@<TRIPOS>MOLECULE
guest-s17_vm2.mol2 : vm2 ligand conformer 1
          25          25           1
SMALL
USER_CHARGES
 
@<TRIPOS>ATOM
       1    C1      21.264943   19.569978   21.138364 C.3        1 MOL1        -0.1684
       2    H1      21.774562   19.741470   20.180260 H          1 MOL1         0.0833
       3    H2      22.046901   19.718273   21.891592 H          1 MOL1         0.0833
       4    C2      20.759512   18.103806   21.158312 C.3        1 MOL1        -0.1684
       5    H3      19.715207   18.040870   20.826536 H          1 MOL1         0.0833
       6    H4      21.332657   17.546814   20.404471 H          1 MOL1         0.0833
       7    C3      20.952985   17.366202   22.509378 C.3        1 MOL1        -0.1684
       8    H5      22.013363   17.400503   22.794698 H          1 MOL1         0.0833
       9    H6      20.726645   16.303860   22.345143 H          1 MOL1         0.0833
      10    C4      20.085790   17.854788   23.700281 C.3        1 MOL1        -0.1760
      11    H7      19.020299   17.798942   23.447836 H          1 MOL1         0.0833
      12    H8      20.224619   17.130966   24.514738 H          1 MOL1         0.0833
      13    C5      20.454443   19.264592   24.230121 C.3        1 MOL1         0.1219
      14    H9      21.470267   19.513843   23.901736 H          1 MOL1         0.0790
      15    C6      19.485771   20.391407   23.794559 C.3        1 MOL1        -0.1760
      16    H10     18.576907   20.318157   24.407027 H          1 MOL1         0.0833
      17    H11     19.939770   21.359799   24.041168 H          1 MOL1         0.0833
      18    C7      19.043650   20.409519   22.308548 C.3        1 MOL1        -0.1684
      19    H12     18.309089   21.218479   22.195830 H          1 MOL1         0.0833
      20    H13     18.489046   19.496677   22.062734 H          1 MOL1         0.0833
      21    C8      20.164529   20.655262   21.267596 C.3        1 MOL1        -0.1684
      22    H14     20.641135   21.624364   21.468235 H          1 MOL1         0.0833
      23    H15     19.682206   20.760419   20.286111 H          1 MOL1         0.0833
      24    O1      20.452377   19.227448   25.652841 O.3        1 MOL1        -0.5508
      25    H16     20.731503   20.115656   25.958803 H          1 MOL1         0.3780
@<TRIPOS>BOND
    1     1     2    1
    2     1     3    1
    3     1     4    1
    4     4     5    1
    5     4     6    1
    6     4     7    1
    7     7     8    1
    8     7     9    1
    9     7    10    1
   10    10    11    1
   11    10    12    1
   12    10    13    1
   13    13    14    1
   14    13    15    1
   15    15    16    1
   16    15    17    1
   17    15    18    1
   18    18    19    1
   19    18    20    1
   20     1    21    1
   21    18    21    1
   22    21    22    1
   23    21    23    1
   24    13    24    1
   25    24    25    1
@<TRIPOS>SUBSTRUCTURE
       1 MOL1            1 RESIDUE      1      MOL     
@<SCITEGIC>MOL_PROPERTY
VM2 Rank
SciTegic.value.IntegerValue
1

@<SCITEGIC>MOL_PROPERTY
Conf_Id
SciTegic.value.IntegerValue
1155

@<SCITEGIC>MOL_PROPERTY
Probability
SciTegic.value.DoubleValue
4.90

@<SCITEGIC>MOL_PROPERTY
Sum Probability
SciTegic.value.DoubleValue
4.90

@<SCITEGIC>MOL_PROPERTY
Delta G
SciTegic.value.DoubleValue
0.000

@<SCITEGIC>MOL_PROPERTY
G
SciTegic.value.DoubleValue
62.075

@<SCITEGIC>MOL_PROPERTY
E
SciTegic.value.DoubleValue
29.291

@<SCITEGIC>MOL_PROPERTY
-TS
SciTegic.value.DoubleValue
32.785

@<SCITEGIC>MOL_PROPERTY
U+W
SciTegic.value.DoubleValue
8.723

@<SCITEGIC>MOL_PROPERTY
U
SciTegic.value.DoubleValue
10.905

@<SCITEGIC>MOL_PROPERTY
W
SciTegic.value.DoubleValue
-2.182

@<SCITEGIC>MOL_PROPERTY
W(PB)
SciTegic.value.DoubleValue
-4.295

@<SCITEGIC>MOL_PROPERTY
W(SA)
SciTegic.value.DoubleValue
2.114

@<SCITEGIC>MOL_PROPERTY
Valence
SciTegic.value.DoubleValue
16.378

@<SCITEGIC>MOL_PROPERTY
Coulomb
SciTegic.value.DoubleValue
-8.448

@<SCITEGIC>MOL_PROPERTY
VdW
SciTegic.value.DoubleValue
2.976

@<SCITEGIC>MOL_PROPERTY
VdW6
SciTegic.value.DoubleValue
-12.570

@<SCITEGIC>MOL_PROPERTY
VdW12
SciTegic.value.DoubleValue
15.545

@<SCITEGIC>MOL_PROPERTY
Bond
SciTegic.value.DoubleValue
0.439

@<SCITEGIC>MOL_PROPERTY
Angle
SciTegic.value.DoubleValue
5.049

@<SCITEGIC>MOL_PROPERTY
Pdih
SciTegic.value.DoubleValue
10.889

@<SCITEGIC>MOL_PROPERTY
Idih
SciTegic.value.DoubleValue
0.000

@<SCITEGIC>MOL_PROPERTY
Tether
SciTegic.value.DoubleValue
0.000

@<TRIPOS>MOLECULE
guest-s17_vm2.mol2 : vm2 ligand conformer 2
          25          25           1
SMALL
USER_CHARGES
 
@<TRIPOS>ATOM
       1    C1      21.265593   19.569596   21.138606 C.3        1 MOL1        -0.1684
       2    H1      21.773514   19.740509   20.179495 H          1 MOL1         0.0833
       3    H2      22.049454   19.717745   21.889865 H          1 MOL1         0.0833
       4    C2      20.760043   18.103374   21.159636 C.3        1 MOL1        -0.1684
       5    H3      19.715704   18.040565   20.827917 H          1 MOL1         0.0833
       6    H4      21.332987   17.546037   20.405886 H          1 MOL1         0.0833
       7    C3      20.953495   17.365877   22.510880 C.3        1 MOL1        -0.1684
       8    H5      22.013691   17.400820   22.796756 H          1 MOL1         0.0833
       9    H6      20.727921   16.303419   22.345998 H          1 MOL1         0.0833
      10    C4      20.083263   17.854245   23.699298 C.3        1 MOL1        -0.1760
      11    H7      19.019175   17.802883   23.439444 H          1 MOL1         0.0833
      12    H8      20.211972   17.126006   24.511099 H          1 MOL1         0.0833
      13    C5      20.452857   19.264325   24.228429 C.3        1 MOL1         0.1219
      14    H9      21.465807   19.519082   23.895708 H          1 MOL1         0.0790
      15    C6      19.481475   20.388748   23.795093 C.3        1 MOL1        -0.1760
      16    H10     18.573396   20.311188   24.407838 H          1 MOL1         0.0833
      17    H11     19.934273   21.355561   24.049826 H          1 MOL1         0.0833
      18    C7      19.042947   20.411418   22.307779 C.3        1 MOL1        -0.1684
      19    H12     18.310482   21.222302   22.195523 H          1 MOL1         0.0833
      20    H13     18.486847   19.500420   22.058652 H          1 MOL1         0.0833
      21    C8      20.166543   20.656498   21.269347 C.3        1 MOL1        -0.1684
      22    H14     20.644714   21.624192   21.473051 H          1 MOL1         0.0833
      23    H15     19.685993   20.765056   20.287370 H          1 MOL1         0.0833
      24    O1      20.457786   19.228921   25.650931 O.3        1 MOL1        -0.5508
      25    H16     21.130790   18.566614   25.913410 H          1 MOL1         0.3780
@<TRIPOS>BOND
    1     1     2    1
    2     1     3    1
    3     1     4    1
    4     4     5    1
    5     4     6    1
    6     4     7    1
    7     7     8    1
    8     7     9    1
    9     7    10    1
   10    10    11    1
   11    10    12    1
   12    10    13    1
   13    13    14    1
   14    13    15    1
   15    15    16    1
   16    15    17    1
   17    15    18    1
   18    18    19    1
   19    18    20    1
   20     1    21    1
   21    18    21    1
   22    21    22    1
   23    21    23    1
   24    13    24    1
   25    24    25    1
@<TRIPOS>SUBSTRUCTURE
       1 MOL1            1 RESIDUE      1      MOL     
@<SCITEGIC>MOL_PROPERTY
VM2 Rank
SciTegic.value.IntegerValue
2

@<SCITEGIC>MOL_PROPERTY
Conf_Id
SciTegic.value.IntegerValue
1110

@<SCITEGIC>MOL_PROPERTY
Probability
SciTegic.value.DoubleValue
4.61

@<SCITEGIC>MOL_PROPERTY
Sum Probability
SciTegic.value.DoubleValue
9.51

@<SCITEGIC>MOL_PROPERTY
Delta G
SciTegic.value.DoubleValue
0.036

@<SCITEGIC>MOL_PROPERTY
G
SciTegic.value.DoubleValue
62.111

@<SCITEGIC>MOL_PROPERTY
E
SciTegic.value.DoubleValue
29.304

@<SCITEGIC>MOL_PROPERTY
-TS
SciTegic.value.DoubleValue
32.807

@<SCITEGIC>MOL_PROPERTY
U+W
SciTegic.value.DoubleValue
8.736

@<SCITEGIC>MOL_PROPERTY
U
SciTegic.value.DoubleValue
10.865

@<SCITEGIC>MOL_PROPERTY
W
SciTegic.value.DoubleValue
-2.128

@<SCITEGIC>MOL_PROPERTY
W(PB)
SciTegic.value.DoubleValue
-4.247

@<SCITEGIC>MOL_PROPERTY
W(SA)
SciTegic.value.DoubleValue
2.118

@<SCITEGIC>MOL_PROPERTY
Valence
SciTegic.value.DoubleValue
16.387

@<SCITEGIC>MOL_PROPERTY
Coulomb
SciTegic.value.DoubleValue
-8.479

@<SCITEGIC>MOL_PROPERTY
VdW
SciTegic.value.DoubleValue
2.957

@<SCITEGIC>MOL_PROPERTY
VdW6
SciTegic.value.DoubleValue
-12.577

@<SCITEGIC>MOL_PROPERTY
VdW12
SciTegic.value.DoubleValue
15.534

@<SCITEGIC>MOL_PROPERTY
Bond
SciTegic.value.DoubleValue
0.441

@<SCITEGIC>MOL_PROPERTY
Angle
SciTegic.value.DoubleValue
5.030

@<SCITEGIC>MOL_PROPERTY
Pdih
SciTegic.value.DoubleValue
10.916

@<SCITEGIC>MOL_PROPERTY
Idih
SciTegic.value.DoubleValue
0.000

@<SCITEGIC>MOL_PROPERTY
Tether
SciTegic.value.DoubleValue
0.000

@<TRIPOS>MOLECULE
guest-s17_vm2.mol2 : vm2 ligand conformer 3
          25          25           1
SMALL
USER_CHARGES
 
@<TRIPOS>ATOM
       1    C1      21.242627   19.623781   21.138208 C.3        1 MOL1        -0.1684
       2    H1      21.726060   19.858477   20.179931 H          1 MOL1         0.0833
       3    H2      21.898646   20.075854   21.890585 H          1 MOL1         0.0833
       4    C2      21.232476   18.078901   21.274927 C.3        1 MOL1        -0.1684
       5    H3      20.967909   17.658588   20.294954 H          1 MOL1         0.0833
       6    H4      22.254532   17.732169   21.479247 H          1 MOL1         0.0833
       7    C3      20.264418   17.464645   22.316987 C.3        1 MOL1        -0.1684
       8    H5      20.317861   16.372703   22.209716 H          1 MOL1         0.0833
       9    H6      19.227123   17.716156   22.067881 H          1 MOL1         0.0833
      10    C4      20.561110   17.797524   23.801977 C.3        1 MOL1        -0.1760
      11    H7      19.865809   17.209218   24.415955 H          1 MOL1         0.0833
      12    H8      21.566628   17.435627   24.052337 H          1 MOL1         0.0833
      13    C5      20.447522   19.281296   24.230087 C.3        1 MOL1         0.1219
      14    H9      21.342424   19.822266   23.900901 H          1 MOL1         0.0790
      15    C6      19.190634   20.014189   23.694094 C.3        1 MOL1        -0.1760
      16    H10     18.398646   19.298590   23.443513 H          1 MOL1         0.0833
      17    H11     18.774973   20.627905   24.504717 H          1 MOL1         0.0833
      18    C7      19.460265   20.967205   22.499084 C.3        1 MOL1        -0.1684
      19    H12     20.233374   21.694532   22.782428 H          1 MOL1         0.0833
      20    H13     18.549063   21.557071   22.330133 H          1 MOL1         0.0833
      21    C8      19.848092   20.302457   21.152028 C.3        1 MOL1        -0.1684
      22    H14     19.860599   21.097897   20.394314 H          1 MOL1         0.0833
      23    H15     19.066196   19.606479   20.822084 H          1 MOL1         0.0833
      24    O1      20.416858   19.313003   25.652609 O.3        1 MOL1        -0.5508
      25    H16     21.241844   18.884176   25.962358 H          1 MOL1         0.3780
@<TRIPOS>BOND
    1     1     2    1
    2     1     3    1
    3     1     4    1
    4     4     5    1
    5     4     6    1
    6     4     7    1
    7     7     8    1
    8     7     9    1
    9     7    10    1
   10    10    11    1
   11    10    12    1
   12    10    13    1
   13    13    14    1
   14    13    15    1
   15    15    16    1
   16    15    17    1
   17    15    18    1
   18    18    19    1
   19    18    20    1
   20     1    21    1
   21    18    21    1
   22    21    22    1
   23    21    23    1
   24    13    24    1
   25    24    25    1
@<TRIPOS>SUBSTRUCTURE
       1 MOL1            1 RESIDUE      1      MOL     
@<SCITEGIC>MOL_PROPERTY
VM2 Rank
SciTegic.value.IntegerValue
3

@<SCITEGIC>MOL_PROPERTY
Conf_Id
SciTegic.value.IntegerValue
1571

@<SCITEGIC>MOL_PROPERTY
Probability
SciTegic.value.DoubleValue
4.50

@<SCITEGIC>MOL_PROPERTY
Sum Probability
SciTegic.value.DoubleValue
14.01

@<SCITEGIC>MOL_PROPERTY
Delta G
SciTegic.value.DoubleValue
0.051

@<SCITEGIC>MOL_PROPERTY
G
SciTegic.value.DoubleValue
62.126

@<SCITEGIC>MOL_PROPERTY
E
SciTegic.value.DoubleValue
29.342

@<SCITEGIC>MOL_PROPERTY
-TS
SciTegic.value.DoubleValue
32.784

@<SCITEGIC>MOL_PROPERTY
U+W
SciTegic.value.DoubleValue
8.774

@<SCITEGIC>MOL_PROPERTY
U
SciTegic.value.DoubleValue
10.905

@<SCITEGIC>MOL_PROPERTY
W
SciTegic.value.DoubleValue
-2.131

@<SCITEGIC>MOL_PROPERTY
W(PB)
SciTegic.value.DoubleValue
-4.281

@<SCITEGIC>MOL_PROPERTY
W(SA)
SciTegic.value.DoubleValue
2.150

@<SCITEGIC>MOL_PROPERTY
Valence
SciTegic.value.DoubleValue
16.378

@<SCITEGIC>MOL_PROPERTY
Coulomb
SciTegic.value.DoubleValue
-8.448

@<SCITEGIC>MOL_PROPERTY
VdW
SciTegic.value.DoubleValue
2.976

@<SCITEGIC>MOL_PROPERTY
VdW6
SciTegic.value.DoubleValue
-12.570

@<SCITEGIC>MOL_PROPERTY
VdW12
SciTegic.value.DoubleValue
15.545

@<SCITEGIC>MOL_PROPERTY
Bond
SciTegic.value.DoubleValue
0.439

@<SCITEGIC>MOL_PROPERTY
Angle
SciTegic.value.DoubleValue
5.049

@<SCITEGIC>MOL_PROPERTY
Pdih
SciTegic.value.DoubleValue
10.889

@<SCITEGIC>MOL_PROPERTY
Idih
SciTegic.value.DoubleValue
0.000

@<SCITEGIC>MOL_PROPERTY
Tether
SciTegic.value.DoubleValue
0.000

@<TRIPOS>MOLECULE
guest-s17_vm2.mol2 : vm2 ligand conformer 4
          25          25           1
SMALL
USER_CHARGES
 
@<TRIPOS>ATOM
       1    C1      21.243004   19.624538   21.138544 C.3        1 MOL1        -0.1684
       2    H1      21.900199   20.078081   21.888990 H          1 MOL1         0.0833
       3    H2      21.724910   19.858418   20.179295 H          1 MOL1         0.0833
       4    C2      21.234981   18.079488   21.276814 C.3        1 MOL1        -0.1684
       5    H3      20.974277   17.657994   20.296320 H          1 MOL1         0.0833
       6    H4      22.257113   17.734913   21.484394 H          1 MOL1         0.0833
       7    C3      20.265295   17.462810   22.316186 C.3        1 MOL1        -0.1684
       8    H5      20.321582   16.370995   22.209363 H          1 MOL1         0.0833
       9    H6      19.228300   17.711968   22.063619 H          1 MOL1         0.0833
      10    C4      20.555974   17.796320   23.802523 C.3        1 MOL1        -0.1760
      11    H7      19.857997   17.211689   24.416620 H          1 MOL1         0.0833
      12    H8      21.559422   17.434619   24.061189 H          1 MOL1         0.0833
      13    C5      20.446075   19.280317   24.228394 C.3        1 MOL1         0.1219
      14    H9      21.342899   19.815283   23.894947 H          1 MOL1         0.0790
      15    C6      19.188391   20.012789   23.693021 C.3        1 MOL1        -0.1760
      16    H10     18.400587   19.294998   23.434981 H          1 MOL1         0.0833
      17    H11     18.762412   20.622454   24.500963 H          1 MOL1         0.0833
      18    C7      19.460426   20.967810   22.500513 C.3        1 MOL1        -0.1684
      19    H12     20.233816   21.694573   22.784495 H          1 MOL1         0.0833
      20    H13     18.549692   21.558278   22.330817 H          1 MOL1         0.0833
      21    C8      19.848342   20.303160   21.153313 C.3        1 MOL1        -0.1684
      22    H14     19.860539   21.098706   20.395694 H          1 MOL1         0.0833
      23    H15     19.066551   19.607072   20.823328 H          1 MOL1         0.0833
      24    O1      20.421513   19.315769   25.650691 O.3        1 MOL1        -0.5508
      25    H16     20.428051   20.261250   25.908574 H          1 MOL1         0.3780
@<TRIPOS>BOND
    1     1     2    1
    2     1     3    1
    3     1     4    1
    4     4     5    1
    5     4     6    1
    6     4     7    1
    7     7     8    1
    8     7     9    1
    9     7    10    1
   10    10    11    1
   11    10    12    1
   12    10    13    1
   13    13    14    1
   14    13    15    1
   15    15    16    1
   16    15    17    1
   17    15    18    1
   18    18    19    1
   19    18    20    1
   20     1    21    1
   21    18    21    1
   22    21    22    1
   23    21    23    1
   24    13    24    1
   25    24    25    1
@<TRIPOS>SUBSTRUCTURE
       1 MOL1            1 RESIDUE      1      MOL     
@<SCITEGIC>MOL_PROPERTY
VM2 Rank
SciTegic.value.IntegerValue
4

@<SCITEGIC>MOL_PROPERTY
Conf_Id
SciTegic.value.IntegerValue
134

@<SCITEGIC>MOL_PROPERTY
Probability
SciTegic.value.DoubleValue
4.50

@<SCITEGIC>MOL_PROPERTY
Sum Probability
SciTegic.value.DoubleValue
18.51

@<SCITEGIC>MOL_PROPERTY
Delta G
SciTegic.value.DoubleValue
0.051

@<SCITEGIC>MOL_PROPERTY
G
SciTegic.value.DoubleValue
62.127

@<SCITEGIC>MOL_PROPERTY
E
SciTegic.value.DoubleValue
29.319

@<SCITEGIC>MOL_PROPERTY
-TS
SciTegic.value.DoubleValue
32.807

@<SCITEGIC>MOL_PROPERTY
U+W
SciTegic.value.DoubleValue
8.752

@<SCITEGIC>MOL_PROPERTY
U
SciTegic.value.DoubleValue
10.865

@<SCITEGIC>MOL_PROPERTY
W
SciTegic.value.DoubleValue
-2.113

@<SCITEGIC>MOL_PROPERTY
W(PB)
SciTegic.value.DoubleValue
-4.265

@<SCITEGIC>MOL_PROPERTY
W(SA)
SciTegic.value.DoubleValue
2.152

@<SCITEGIC>MOL_PROPERTY
Valence
SciTegic.value.DoubleValue
16.387

@<SCITEGIC>MOL_PROPERTY
Coulomb
SciTegic.value.DoubleValue
-8.479

@<SCITEGIC>MOL_PROPERTY
VdW
SciTegic.value.DoubleValue
2.957

@<SCITEGIC>MOL_PROPERTY
VdW6
SciTegic.value.DoubleValue
-12.577

@<SCITEGIC>MOL_PROPERTY
VdW12
SciTegic.value.DoubleValue
15.533

@<SCITEGIC>MOL_PROPERTY
Bond
SciTegic.value.DoubleValue
0.442

@<SCITEGIC>MOL_PROPERTY
Angle
SciTegic.value.DoubleValue
5.030

@<SCITEGIC>MOL_PROPERTY
Pdih
SciTegic.value.DoubleValue
10.916

@<SCITEGIC>MOL_PROPERTY
Idih
SciTegic.value.DoubleValue
0.000

@<SCITEGIC>MOL_PROPERTY
Tether
SciTegic.value.DoubleValue
0.000

@<TRIPOS>MOLECULE
guest-s17_vm2.mol2 : vm2 ligand conformer 5
          25          25           1
SMALL
USER_CHARGES
 
@<TRIPOS>ATOM
       1    C1      20.755830   19.241492   20.800561 C.3        1 MOL1        -0.1684
       2    H1      20.701831   19.067025   19.717257 H          1 MOL1         0.0833
       3    H2      21.817471   19.427438   21.008203 H          1 MOL1         0.0833
       4    C2      20.266198   17.950849   21.506566 C.3        1 MOL1        -0.1684
       5    H3      19.204094   18.030584   21.763902 H          1 MOL1         0.0833
       6    H4      20.313677   17.125633   20.782840 H          1 MOL1         0.0833
       7    C3      21.100334   17.525508   22.740631 C.3        1 MOL1        -0.1684
       8    H5      22.042098   17.093583   22.375430 H          1 MOL1         0.0833
       9    H6      20.584829   16.705055   23.257126 H          1 MOL1         0.0833
      10    C4      21.465954   18.639619   23.758502 C.3        1 MOL1        -0.1760
      11    H7      22.104051   18.186209   24.528349 H          1 MOL1         0.0833
      12    H8      22.106843   19.387332   23.279067 H          1 MOL1         0.0833
      13    C5      20.299686   19.346099   24.492395 C.3        1 MOL1         0.1219
      14    H9      20.756088   20.033755   25.218807 H          1 MOL1         0.0790
      15    C6      19.329753   20.186796   23.626031 C.3        1 MOL1        -0.1760
      16    H10     18.553195   19.555568   23.180426 H          1 MOL1         0.0833
      17    H11     18.787297   20.846680   24.315714 H          1 MOL1         0.0833
      18    C7      19.992296   21.075310   22.539599 C.3        1 MOL1        -0.1684
      19    H12     21.029340   21.319675   22.802933 H          1 MOL1         0.0833
      20    H13     19.464066   22.038603   22.533750 H          1 MOL1         0.0833
      21    C8      19.909546   20.506049   21.099409 C.3        1 MOL1        -0.1684
      22    H14     20.235967   21.296076   20.409383 H          1 MOL1         0.0833
      23    H15     18.859093   20.309530   20.844929 H          1 MOL1         0.0833
      24    O1      19.544401   18.371279   25.196306 O.3        1 MOL1        -0.5508
      25    H16     19.250628   17.729637   24.518585 H          1 MOL1         0.3780
@<TRIPOS>BOND
    1     1     2    1
    2     1     3    1
    3     1     4    1
    4     4     5    1
    5     4     6    1
    6     4     7    1
    7     7     8    1
    8     7     9    1
    9     7    10    1
   10    10    11    1
   11    10    12    1
   12    10    13    1
   13    13    14    1
   14    13    15    1
   15    15    16    1
   16    15    17    1
   17    15    18    1
   18    18    19    1
   19    18    20    1
   20     1    21    1
   21    18    21    1
   22    21    22    1
   23    21    23    1
   24    13    24    1
   25    24    25    1
@<TRIPOS>SUBSTRUCTURE
       1 MOL1            1 RESIDUE      1      MOL     
@<SCITEGIC>MOL_PROPERTY
VM2 Rank
SciTegic.value.IntegerValue
5

@<SCITEGIC>MOL_PROPERTY
Conf_Id
SciTegic.value.IntegerValue
218

@<SCITEGIC>MOL_PROPERTY
Probability
SciTegic.value.DoubleValue
4.01

@<SCITEGIC>MOL_PROPERTY
Sum Probability
SciTegic.value.DoubleValue
22.51

@<SCITEGIC>MOL_PROPERTY
Delta G
SciTegic.value.DoubleValue
0.120

@<SCITEGIC>MOL_PROPERTY
G
SciTegic.value.DoubleValue
62.195

@<SCITEGIC>MOL_PROPERTY
E
SciTegic.value.DoubleValue
29.408

@<SCITEGIC>MOL_PROPERTY
-TS
SciTegic.value.DoubleValue
32.788

@<SCITEGIC>MOL_PROPERTY
U+W
SciTegic.value.DoubleValue
8.840

@<SCITEGIC>MOL_PROPERTY
U
SciTegic.value.DoubleValue
10.304

@<SCITEGIC>MOL_PROPERTY
W
SciTegic.value.DoubleValue
-1.464

@<SCITEGIC>MOL_PROPERTY
W(PB)
SciTegic.value.DoubleValue
-3.587

@<SCITEGIC>MOL_PROPERTY
W(SA)
SciTegic.value.DoubleValue
2.123

@<SCITEGIC>MOL_PROPERTY
Valence
SciTegic.value.DoubleValue
17.199

@<SCITEGIC>MOL_PROPERTY
Coulomb
SciTegic.value.DoubleValue
-9.376

@<SCITEGIC>MOL_PROPERTY
VdW
SciTegic.value.DoubleValue
2.481

@<SCITEGIC>MOL_PROPERTY
VdW6
SciTegic.value.DoubleValue
-13.059

@<SCITEGIC>MOL_PROPERTY
VdW12
SciTegic.value.DoubleValue
15.540

@<SCITEGIC>MOL_PROPERTY
Bond
SciTegic.value.DoubleValue
0.429

@<SCITEGIC>MOL_PROPERTY
Angle
SciTegic.value.DoubleValue
5.593

@<SCITEGIC>MOL_PROPERTY
Pdih
SciTegic.value.DoubleValue
11.176

@<SCITEGIC>MOL_PROPERTY
Idih
SciTegic.value.DoubleValue
0.000

@<SCITEGIC>MOL_PROPERTY
Tether
SciTegic.value.DoubleValue
0.000

@<TRIPOS>MOLECULE
guest-s17_vm2.mol2 : vm2 ligand conformer 6
          25          25           1
SMALL
USER_CHARGES
 
@<TRIPOS>ATOM
       1    C1      20.650073   19.497309   20.800107 C.3        1 MOL1        -0.1684
       2    H1      20.490668   19.576227   19.716010 H          1 MOL1         0.0833
       3    H2      21.526732   20.124504   21.007156 H          1 MOL1         0.0833
       4    C2      20.956971   18.008522   21.106590 C.3        1 MOL1        -0.1684
       5    H3      20.080741   17.396504   20.852640 H          1 MOL1         0.0833
       6    H4      21.750802   17.683866   20.420107 H          1 MOL1         0.0833
       7    C3      21.417005   17.674823   22.549527 C.3        1 MOL1        -0.1684
       8    H5      22.317894   18.243782   22.812591 H          1 MOL1         0.0833
       9    H6      21.733089   16.622641   22.549326 H          1 MOL1         0.0833
      10    C4      20.316181   17.830797   23.632398 C.3        1 MOL1        -0.1760
      11    H7      19.322740   17.718024   23.184723 H          1 MOL1         0.0833
      12    H8      20.404225   16.984478   24.326201 H          1 MOL1         0.0833
      13    C5      20.395070   19.115754   24.493088 C.3        1 MOL1         0.1219
      14    H9      21.203431   18.962050   25.222318 H          1 MOL1         0.0790
      15    C6      20.711495   20.439170   23.753938 C.3        1 MOL1        -0.1760
      16    H10     20.833907   21.215524   24.520555 H          1 MOL1         0.0833
      17    H11     21.695200   20.369303   23.277376 H          1 MOL1         0.0833
      18    C7      19.663626   20.955367   22.730955 C.3        1 MOL1        -0.1684
      19    H12     20.017312   21.927885   22.362218 H          1 MOL1         0.0833
      20    H13     18.715926   21.165791   23.244024 H          1 MOL1         0.0833
      21    C8      19.384911   20.056852   21.500263 C.3        1 MOL1        -0.1684
      22    H14     18.831949   20.666202   20.772293 H          1 MOL1         0.0833
      23    H15     18.696071   19.245106   21.759523 H          1 MOL1         0.0833
      24    O1      19.168669   19.264406   25.193134 O.3        1 MOL1        -0.5508
      25    H16     18.507041   19.501890   24.512577 H          1 MOL1         0.3780
@<TRIPOS>BOND
    1     1     2    1
    2     1     3    1
    3     1     4    1
    4     4     5    1
    5     4     6    1
    6     4     7    1
    7     7     8    1
    8     7     9    1
    9     7    10    1
   10    10    11    1
   11    10    12    1
   12    10    13    1
   13    13    14    1
   14    13    15    1
   15    15    16    1
   16    15    17    1
   17    15    18    1
   18    18    19    1
   19    18    20    1
   20     1    21    1
   21    18    21    1
   22    21    22    1
   23    21    23    1
   24    13    24    1
   25    24    25    1
@<TRIPOS>SUBSTRUCTURE
       1 MOL1            1 RESIDUE      1      MOL     
@<SCITEGIC>MOL_PROPERTY
VM2 Rank
SciTegic.value.IntegerValue
6

@<SCITEGIC>MOL_PROPERTY
Conf_Id
SciTegic.value.IntegerValue
631

@<SCITEGIC>MOL_PROPERTY
Probability
SciTegic.value.DoubleValue
3.85

@<SCITEGIC>MOL_PROPERTY
Sum Probability
SciTegic.value.DoubleValue
26.36

@<SCITEGIC>MOL_PROPERTY
Delta G
SciTegic.value.DoubleValue
0.144

@<SCITEGIC>MOL_PROPERTY
G
SciTegic.value.DoubleValue
62.220

@<SCITEGIC>MOL_PROPERTY
E
SciTegic.value.DoubleValue
29.432

@<SCITEGIC>MOL_PROPERTY
-TS
SciTegic.value.DoubleValue
32.788

@<SCITEGIC>MOL_PROPERTY
U+W
SciTegic.value.DoubleValue
8.864

@<SCITEGIC>MOL_PROPERTY
U
SciTegic.value.DoubleValue
10.304

@<SCITEGIC>MOL_PROPERTY
W
SciTegic.value.DoubleValue
-1.439

@<SCITEGIC>MOL_PROPERTY
W(PB)
SciTegic.value.DoubleValue
-3.553

@<SCITEGIC>MOL_PROPERTY
W(SA)
SciTegic.value.DoubleValue
2.114

@<SCITEGIC>MOL_PROPERTY
Valence
SciTegic.value.DoubleValue
17.199

@<SCITEGIC>MOL_PROPERTY
Coulomb
SciTegic.value.DoubleValue
-9.376

@<SCITEGIC>MOL_PROPERTY
VdW
SciTegic.value.DoubleValue
2.481

@<SCITEGIC>MOL_PROPERTY
VdW6
SciTegic.value.DoubleValue
-13.059

@<SCITEGIC>MOL_PROPERTY
VdW12
SciTegic.value.DoubleValue
15.540

@<SCITEGIC>MOL_PROPERTY
Bond
SciTegic.value.DoubleValue
0.429

@<SCITEGIC>MOL_PROPERTY
Angle
SciTegic.value.DoubleValue
5.594

@<SCITEGIC>MOL_PROPERTY
Pdih
SciTegic.value.DoubleValue
11.176

@<SCITEGIC>MOL_PROPERTY
Idih
SciTegic.value.DoubleValue
0.000

@<SCITEGIC>MOL_PROPERTY
Tether
SciTegic.value.DoubleValue
0.000

@<TRIPOS>MOLECULE
guest-s17_vm2.mol2 : vm2 ligand conformer 7
          25          25           1
SMALL
USER_CHARGES
 
@<TRIPOS>ATOM
       1    C1      21.242698   19.623391   21.138998 C.3        1 MOL1        -0.1684
       2    H1      21.727034   19.859213   20.181459 H          1 MOL1         0.0833
       3    H2      21.898206   20.074030   21.892739 H          1 MOL1         0.0833
       4    C2      21.231823   18.078492   21.273914 C.3        1 MOL1        -0.1684
       5    H3      20.966036   17.659172   20.293850 H          1 MOL1         0.0833
       6    H4      22.253945   17.731202   21.476998 H          1 MOL1         0.0833
       7    C3      20.264908   17.463957   22.316776 C.3        1 MOL1        -0.1684
       8    H5      20.319512   16.372044   22.209694 H          1 MOL1         0.0833
       9    H6      19.227277   17.714455   22.068019 H          1 MOL1         0.0833
      10    C4      20.562444   17.797461   23.801470 C.3        1 MOL1        -0.1760
      11    H7      19.873749   17.202063   24.415291 H          1 MOL1         0.0833
      12    H8      21.570834   17.442969   24.051611 H          1 MOL1         0.0833
      13    C5      20.445646   19.280883   24.230269 C.3        1 MOL1         0.1219
      14    H9      21.341726   19.821122   23.903577 H          1 MOL1         0.0790
      15    C6      19.189222   20.015106   23.694359 C.3        1 MOL1        -0.1760
      16    H10     18.396628   19.301114   23.440261 H          1 MOL1         0.0833
      17    H11     18.773090   20.632330   24.502121 H          1 MOL1         0.0833
      18    C7      19.461338   20.967567   22.499655 C.3        1 MOL1        -0.1684
      19    H12     20.235799   21.693407   22.783277 H          1 MOL1         0.0833
      20    H13     18.551443   21.559328   22.330118 H          1 MOL1         0.0833
      21    C8      19.848325   20.302240   21.152739 C.3        1 MOL1        -0.1684
      22    H14     19.860933   21.097408   20.394735 H          1 MOL1         0.0833
      23    H15     19.066157   19.606376   20.823189 H          1 MOL1         0.0833
      24    O1      20.417596   19.313903   25.651820 O.3        1 MOL1        -0.5508
      25    H16     19.603150   18.843192   25.923851 H          1 MOL1         0.3780
@<TRIPOS>BOND
    1     1     2    1
    2     1     3    1
    3     1     4    1
    4     4     5    1
    5     4     6    1
    6     4     7    1
    7     7     8    1
    8     7     9    1
    9     7    10    1
   10    10    11    1
   11    10    12    1
   12    10    13    1
   13    13    14    1
   14    13    15    1
   15    15    16    1
   16    15    17    1
   17    15    18    1
   18    18    19    1
   19    18    20    1
   20     1    21    1
   21    18    21    1
   22    21    22    1
   23    21    23    1
   24    13    24    1
   25    24    25    1
@<TRIPOS>SUBSTRUCTURE
       1 MOL1            1 RESIDUE      1      MOL     
@<SCITEGIC>MOL_PROPERTY
VM2 Rank
SciTegic.value.IntegerValue
7

@<SCITEGIC>MOL_PROPERTY
Conf_Id
SciTegic.value.IntegerValue
1347

@<SCITEGIC>MOL_PROPERTY
Probability
SciTegic.value.DoubleValue
3.75

@<SCITEGIC>MOL_PROPERTY
Sum Probability
SciTegic.value.DoubleValue
30.12

@<SCITEGIC>MOL_PROPERTY
Delta G
SciTegic.value.DoubleValue
0.159

@<SCITEGIC>MOL_PROPERTY
G
SciTegic.value.DoubleValue
62.234

@<SCITEGIC>MOL_PROPERTY
E
SciTegic.value.DoubleValue
29.468

@<SCITEGIC>MOL_PROPERTY
-TS
SciTegic.value.DoubleValue
32.766

@<SCITEGIC>MOL_PROPERTY
U+W
SciTegic.value.DoubleValue
8.900

@<SCITEGIC>MOL_PROPERTY
U
SciTegic.value.DoubleValue
10.935

@<SCITEGIC>MOL_PROPERTY
W
SciTegic.value.DoubleValue
-2.035

@<SCITEGIC>MOL_PROPERTY
W(PB)
SciTegic.value.DoubleValue
-4.170

@<SCITEGIC>MOL_PROPERTY
W(SA)
SciTegic.value.DoubleValue
2.136

@<SCITEGIC>MOL_PROPERTY
Valence
SciTegic.value.DoubleValue
16.757

@<SCITEGIC>MOL_PROPERTY
Coulomb
SciTegic.value.DoubleValue
-8.731

@<SCITEGIC>MOL_PROPERTY
VdW
SciTegic.value.DoubleValue
2.908

@<SCITEGIC>MOL_PROPERTY
VdW6
SciTegic.value.DoubleValue
-12.597

@<SCITEGIC>MOL_PROPERTY
VdW12
SciTegic.value.DoubleValue
15.505

@<SCITEGIC>MOL_PROPERTY
Bond
SciTegic.value.DoubleValue
0.434

@<SCITEGIC>MOL_PROPERTY
Angle
SciTegic.value.DoubleValue
5.069

@<SCITEGIC>MOL_PROPERTY
Pdih
SciTegic.value.DoubleValue
11.254

@<SCITEGIC>MOL_PROPERTY
Idih
SciTegic.value.DoubleValue
0.000

@<SCITEGIC>MOL_PROPERTY
Tether
SciTegic.value.DoubleValue
0.000

@<TRIPOS>MOLECULE
guest-s17_vm2.mol2 : vm2 ligand conformer 8
          25          25           1
SMALL
USER_CHARGES
 
@<TRIPOS>ATOM
       1    C1      21.264790   19.570284   21.139176 C.3        1 MOL1        -0.1684
       2    H1      21.775851   19.741604   20.181815 H          1 MOL1         0.0833
       3    H2      22.045384   19.719158   21.893764 H          1 MOL1         0.0833
       4    C2      20.759490   18.104138   21.159015 C.3        1 MOL1        -0.1684
       5    H3      19.715069   18.041006   20.827632 H          1 MOL1         0.0833
       6    H4      21.332475   17.547381   20.404875 H          1 MOL1         0.0833
       7    C3      20.953916   17.366686   22.509928 C.3        1 MOL1        -0.1684
       8    H5      22.014190   17.402973   22.795543 H          1 MOL1         0.0833
       9    H6      20.729826   16.303932   22.345096 H          1 MOL1         0.0833
      10    C4      20.085339   17.853127   23.700514 C.3        1 MOL1        -0.1760
      11    H7      19.020568   17.795762   23.444524 H          1 MOL1         0.0833
      12    H8      20.226262   17.126453   24.512115 H          1 MOL1         0.0833
      13    C5      20.452780   19.263513   24.230304 C.3        1 MOL1         0.1219
      14    H9      21.468931   19.514090   23.904429 H          1 MOL1         0.0790
      15    C6      19.486688   20.392403   23.794054 C.3        1 MOL1        -0.1760
      16    H10     18.577444   20.328845   24.406272 H          1 MOL1         0.0833
      17    H11     19.947981   21.357565   24.040538 H          1 MOL1         0.0833
      18    C7      19.043601   20.410446   22.308319 C.3        1 MOL1        -0.1684
      19    H12     18.309938   21.220258   22.195777 H          1 MOL1         0.0833
      20    H13     18.487994   19.498128   22.062790 H          1 MOL1         0.0833
      21    C8      20.163940   20.655149   21.266638 C.3        1 MOL1        -0.1684
      22    H14     20.640275   21.624633   21.466121 H          1 MOL1         0.0833
      23    H15     19.681509   20.758848   20.285055 H          1 MOL1         0.0833
      24    O1      20.453456   19.227254   25.652052 O.3        1 MOL1        -0.5508
      25    H16     19.544323   18.984937   25.923432 H          1 MOL1         0.3780
@<TRIPOS>BOND
    1     1     2    1
    2     1     3    1
    3     1     4    1
    4     4     5    1
    5     4     6    1
    6     4     7    1
    7     7     8    1
    8     7     9    1
    9     7    10    1
   10    10    11    1
   11    10    12    1
   12    10    13    1
   13    13    14    1
   14    13    15    1
   15    15    16    1
   16    15    17    1
   17    15    18    1
   18    18    19    1
   19    18    20    1
   20     1    21    1
   21    18    21    1
   22    21    22    1
   23    21    23    1
   24    13    24    1
   25    24    25    1
@<TRIPOS>SUBSTRUCTURE
       1 MOL1            1 RESIDUE      1      MOL     
@<SCITEGIC>MOL_PROPERTY
VM2 Rank
SciTegic.value.IntegerValue
8

@<SCITEGIC>MOL_PROPERTY
Conf_Id
SciTegic.value.IntegerValue
304

@<SCITEGIC>MOL_PROPERTY
Probability
SciTegic.value.DoubleValue
3.66

@<SCITEGIC>MOL_PROPERTY
Sum Probability
SciTegic.value.DoubleValue
33.78

@<SCITEGIC>MOL_PROPERTY
Delta G
SciTegic.value.DoubleValue
0.173

@<SCITEGIC>MOL_PROPERTY
G
SciTegic.value.DoubleValue
62.249

@<SCITEGIC>MOL_PROPERTY
E
SciTegic.value.DoubleValue
29.482

@<SCITEGIC>MOL_PROPERTY
-TS
SciTegic.value.DoubleValue
32.767

@<SCITEGIC>MOL_PROPERTY
U+W
SciTegic.value.DoubleValue
8.915

@<SCITEGIC>MOL_PROPERTY
U
SciTegic.value.DoubleValue
10.935

@<SCITEGIC>MOL_PROPERTY
W
SciTegic.value.DoubleValue
-2.020

@<SCITEGIC>MOL_PROPERTY
W(PB)
SciTegic.value.DoubleValue
-4.135

@<SCITEGIC>MOL_PROPERTY
W(SA)
SciTegic.value.DoubleValue
2.115

@<SCITEGIC>MOL_PROPERTY
Valence
SciTegic.value.DoubleValue
16.757

@<SCITEGIC>MOL_PROPERTY
Coulomb
SciTegic.value.DoubleValue
-8.731

@<SCITEGIC>MOL_PROPERTY
VdW
SciTegic.value.DoubleValue
2.908

@<SCITEGIC>MOL_PROPERTY
VdW6
SciTegic.value.DoubleValue
-12.597

@<SCITEGIC>MOL_PROPERTY
VdW12
SciTegic.value.DoubleValue
15.505

@<SCITEGIC>MOL_PROPERTY
Bond
SciTegic.value.DoubleValue
0.434

@<SCITEGIC>MOL_PROPERTY
Angle
SciTegic.value.DoubleValue
5.069

@<SCITEGIC>MOL_PROPERTY
Pdih
SciTegic.value.DoubleValue
11.254

@<SCITEGIC>MOL_PROPERTY
Idih
SciTegic.value.DoubleValue
0.000

@<SCITEGIC>MOL_PROPERTY
Tether
SciTegic.value.DoubleValue
0.000

@<TRIPOS>MOLECULE
guest-s17_vm2.mol2 : vm2 ligand conformer 9
          25          25           1
SMALL
USER_CHARGES
 
@<TRIPOS>ATOM
       1    C1      20.080336   19.169765   20.750401 C.3        1 MOL1        -0.1684
       2    H1      19.010784   18.995276   20.924118 H          1 MOL1         0.0833
       3    H2      20.185003   19.240754   19.659111 H          1 MOL1         0.0833
       4    C2      20.918567   17.947082   21.206897 C.3        1 MOL1        -0.1684
       5    H3      20.630056   17.092511   20.579764 H          1 MOL1         0.0833
       6    H4      21.978877   18.129338   20.984753 H          1 MOL1         0.0833
       7    C3      20.770529   17.514324   22.688749 C.3        1 MOL1        -0.1684
       8    H5      21.306382   16.561729   22.799922 H          1 MOL1         0.0833
       9    H6      19.723472   17.282082   22.919876 H          1 MOL1         0.0833
      10    C4      21.372125   18.510920   23.717270 C.3        1 MOL1        -0.1760
      11    H7      21.909586   17.933619   24.481726 H          1 MOL1         0.0833
      12    H8      22.151308   19.119515   23.246572 H          1 MOL1         0.0833
      13    C5      20.359538   19.424434   24.452329 C.3        1 MOL1         0.1219
      14    H9      20.920801   20.248608   24.915205 H          1 MOL1         0.0790
      15    C6      19.224455   20.035336   23.596822 C.3        1 MOL1        -0.1760
      16    H10     18.614174   19.244161   23.148403 H          1 MOL1         0.0833
      17    H11     18.545867   20.559213   24.283084 H          1 MOL1         0.0833
      18    C7      19.655435   21.057869   22.514093 C.3        1 MOL1        -0.1684
      19    H12     20.172912   21.899437   22.994291 H          1 MOL1         0.0833
      20    H13     18.740180   21.481665   22.078646 H          1 MOL1         0.0833
      21    C8      20.531272   20.526409   21.350963 C.3        1 MOL1        -0.1684
      22    H14     21.585140   20.483792   21.648389 H          1 MOL1         0.0833
      23    H15     20.501731   21.280755   20.552771 H          1 MOL1         0.0833
      24    O1      19.751744   18.656861   25.482476 O.3        1 MOL1        -0.5508
      25    H16     19.354061   17.880082   25.039685 H          1 MOL1         0.3780
@<TRIPOS>BOND
    1     1     2    1
    2     1     3    1
    3     1     4    1
    4     4     5    1
    5     4     6    1
    6     4     7    1
    7     7     8    1
    8     7     9    1
    9     7    10    1
   10    10    11    1
   11    10    12    1
   12    10    13    1
   13    13    14    1
   14    13    15    1
   15    15    16    1
   16    15    17    1
   17    15    18    1
   18    18    19    1
   19    18    20    1
   20     1    21    1
   21    18    21    1
   22    21    22    1
   23    21    23    1
   24    13    24    1
   25    24    25    1
@<TRIPOS>SUBSTRUCTURE
       1 MOL1            1 RESIDUE      1      MOL     
@<SCITEGIC>MOL_PROPERTY
VM2 Rank
SciTegic.value.IntegerValue
9

@<SCITEGIC>MOL_PROPERTY
Conf_Id
SciTegic.value.IntegerValue
920

@<SCITEGIC>MOL_PROPERTY
Probability
SciTegic.value.DoubleValue
3.48

@<SCITEGIC>MOL_PROPERTY
Sum Probability
SciTegic.value.DoubleValue
37.26

@<SCITEGIC>MOL_PROPERTY
Delta G
SciTegic.value.DoubleValue
0.204

@<SCITEGIC>MOL_PROPERTY
G
SciTegic.value.DoubleValue
62.280

@<SCITEGIC>MOL_PROPERTY
E
SciTegic.value.DoubleValue
29.544

@<SCITEGIC>MOL_PROPERTY
-TS
SciTegic.value.DoubleValue
32.736

@<SCITEGIC>MOL_PROPERTY
U+W
SciTegic.value.DoubleValue
8.976

@<SCITEGIC>MOL_PROPERTY
U
SciTegic.value.DoubleValue
10.541

@<SCITEGIC>MOL_PROPERTY
W
SciTegic.value.DoubleValue
-1.565

@<SCITEGIC>MOL_PROPERTY
W(PB)
SciTegic.value.DoubleValue
-3.702

@<SCITEGIC>MOL_PROPERTY
W(SA)
SciTegic.value.DoubleValue
2.137

@<SCITEGIC>MOL_PROPERTY
Valence
SciTegic.value.DoubleValue
17.202

@<SCITEGIC>MOL_PROPERTY
Coulomb
SciTegic.value.DoubleValue
-9.327

@<SCITEGIC>MOL_PROPERTY
VdW
SciTegic.value.DoubleValue
2.666

@<SCITEGIC>MOL_PROPERTY
VdW6
SciTegic.value.DoubleValue
-12.816

@<SCITEGIC>MOL_PROPERTY
VdW12
SciTegic.value.DoubleValue
15.482

@<SCITEGIC>MOL_PROPERTY
Bond
SciTegic.value.DoubleValue
0.428

@<SCITEGIC>MOL_PROPERTY
Angle
SciTegic.value.DoubleValue
5.357

@<SCITEGIC>MOL_PROPERTY
Pdih
SciTegic.value.DoubleValue
11.417

@<SCITEGIC>MOL_PROPERTY
Idih
SciTegic.value.DoubleValue
0.000

@<SCITEGIC>MOL_PROPERTY
Tether
SciTegic.value.DoubleValue
0.000

@<TRIPOS>MOLECULE
guest-s17_vm2.mol2 : vm2 ligand conformer 10
          25          25           1
SMALL
USER_CHARGES
 
@<TRIPOS>ATOM
       1    C1      20.153086   19.066524   20.748468 C.3        1 MOL1        -0.1684
       2    H1      19.296384   18.400158   20.911512 H          1 MOL1         0.0833
       3    H2      20.291360   19.093245   19.658939 H          1 MOL1         0.0833
       4    C2      21.446757   18.477383   21.368013 C.3        1 MOL1        -0.1684
       5    H3      21.991421   17.942044   20.578220 H          1 MOL1         0.0833
       6    H4      22.126948   19.280482   21.673446 H          1 MOL1         0.0833
       7    C3      21.226076   17.475606   22.529977 C.3        1 MOL1        -0.1684
       8    H5      22.188517   17.284885   23.023885 H          1 MOL1         0.0833
       9    H6      20.921731   16.515172   22.091973 H          1 MOL1         0.0833
      10    C4      20.167894   17.855466   23.597488 C.3        1 MOL1        -0.1760
      11    H7      19.178993   17.943921   23.135171 H          1 MOL1         0.0833
      12    H8      20.082159   17.002785   24.284124 H          1 MOL1         0.0833
      13    C5      20.478355   19.105052   24.455188 C.3        1 MOL1         0.1219
      14    H9      21.457981   18.958229   24.931961 H          1 MOL1         0.0790
      15    C6      20.505588   20.467406   23.718031 C.3        1 MOL1        -0.1760
      16    H10     20.436243   21.255317   24.480212 H          1 MOL1         0.0833
      17    H11     21.487879   20.625270   23.260589 H          1 MOL1         0.0833
      18    C7      19.379816   20.700729   22.673439 C.3        1 MOL1        -0.1684
      19    H12     19.042935   21.741154   22.778137 H          1 MOL1         0.0833
      20    H13     18.495187   20.090223   22.893436 H          1 MOL1         0.0833
      21    C8      19.818462   20.512924   21.197837 C.3        1 MOL1        -0.1684
      22    H14     20.675254   21.167149   20.986362 H          1 MOL1         0.0833
      23    H15     19.003961   20.880308   20.558740 H          1 MOL1         0.0833
      24    O1      19.487966   19.181909   25.471558 O.3        1 MOL1        -0.5508
      25    H16     18.653889   19.416502   25.016715 H          1 MOL1         0.3780
@<TRIPOS>BOND
    1     1     2    1
    2     1     3    1
    3     1     4    1
    4     4     5    1
    5     4     6    1
    6     4     7    1
    7     7     8    1
    8     7     9    1
    9     7    10    1
   10    10    11    1
   11    10    12    1
   12    10    13    1
   13    13    14    1
   14    13    15    1
   15    15    16    1
   16    15    17    1
   17    15    18    1
   18    18    19    1
   19    18    20    1
   20     1    21    1
   21    18    21    1
   22    21    22    1
   23    21    23    1
   24    13    24    1
   25    24    25    1
@<TRIPOS>SUBSTRUCTURE
       1 MOL1            1 RESIDUE      1      MOL     
@<SCITEGIC>MOL_PROPERTY
VM2 Rank
SciTegic.value.IntegerValue
10

@<SCITEGIC>MOL_PROPERTY
Conf_Id
SciTegic.value.IntegerValue
355

@<SCITEGIC>MOL_PROPERTY
Probability
SciTegic.value.DoubleValue
3.31

@<SCITEGIC>MOL_PROPERTY
Sum Probability
SciTegic.value.DoubleValue
40.57

@<SCITEGIC>MOL_PROPERTY
Delta G
SciTegic.value.DoubleValue
0.234

@<SCITEGIC>MOL_PROPERTY
G
SciTegic.value.DoubleValue
62.309

@<SCITEGIC>MOL_PROPERTY
E
SciTegic.value.DoubleValue
29.573

@<SCITEGIC>MOL_PROPERTY
-TS
SciTegic.value.DoubleValue
32.736

@<SCITEGIC>MOL_PROPERTY
U+W
SciTegic.value.DoubleValue
9.006

@<SCITEGIC>MOL_PROPERTY
U
SciTegic.value.DoubleValue
10.541

@<SCITEGIC>MOL_PROPERTY
W
SciTegic.value.DoubleValue
-1.536

@<SCITEGIC>MOL_PROPERTY
W(PB)
SciTegic.value.DoubleValue
-3.659

@<SCITEGIC>MOL_PROPERTY
W(SA)
SciTegic.value.DoubleValue
2.123

@<SCITEGIC>MOL_PROPERTY
Valence
SciTegic.value.DoubleValue
17.202

@<SCITEGIC>MOL_PROPERTY
Coulomb
SciTegic.value.DoubleValue
-9.327

@<SCITEGIC>MOL_PROPERTY
VdW
SciTegic.value.DoubleValue
2.666

@<SCITEGIC>MOL_PROPERTY
VdW6
SciTegic.value.DoubleValue
-12.816

@<SCITEGIC>MOL_PROPERTY
VdW12
SciTegic.value.DoubleValue
15.482

@<SCITEGIC>MOL_PROPERTY
Bond
SciTegic.value.DoubleValue
0.428

@<SCITEGIC>MOL_PROPERTY
Angle
SciTegic.value.DoubleValue
5.357

@<SCITEGIC>MOL_PROPERTY
Pdih
SciTegic.value.DoubleValue
11.417

@<SCITEGIC>MOL_PROPERTY
Idih
SciTegic.value.DoubleValue
0.000

@<SCITEGIC>MOL_PROPERTY
Tether
SciTegic.value.DoubleValue
0.000

@<TRIPOS>MOLECULE
guest-s17_vm2.mol2 : vm2 ligand conformer 11
          25          25           1
SMALL
USER_CHARGES
 
@<TRIPOS>ATOM
       1    C1      20.885097   19.438523   20.677184 C.3        1 MOL1        -0.1684
       2    H1      20.083312   19.098461   20.007568 H          1 MOL1         0.0833
       3    H2      21.695927   19.774183   20.016316 H          1 MOL1         0.0833
       4    C2      21.414654   18.231736   21.495593 C.3        1 MOL1        -0.1684
       5    H3      21.847177   17.522513   20.776572 H          1 MOL1         0.0833
       6    H4      22.252246   18.533622   22.137509 H          1 MOL1         0.0833
       7    C3      20.331738   17.472209   22.304816 C.3        1 MOL1        -0.1684
       8    H5      20.519123   16.394457   22.203131 H          1 MOL1         0.0833
       9    H6      19.342521   17.622248   21.857618 H          1 MOL1         0.0833
      10    C4      20.299579   17.791424   23.822247 C.3        1 MOL1        -0.1760
      11    H7      19.373152   17.387652   24.251435 H          1 MOL1         0.0833
      12    H8      21.118568   17.232216   24.293305 H          1 MOL1         0.0833
      13    C5      20.446671   19.275698   24.233389 C.3        1 MOL1         0.1219
      14    H9      21.387676   19.670731   23.831259 H          1 MOL1         0.0790
      15    C6      19.285598   20.204276   23.806742 C.3        1 MOL1        -0.1760
      16    H10     18.347092   19.829808   24.235708 H          1 MOL1         0.0833
      17    H11     19.460351   21.181906   24.275205 H          1 MOL1         0.0833
      18    C7      19.088012   20.440543   22.286350 C.3        1 MOL1        -0.1684
      19    H12     18.453849   21.330807   22.175902 H          1 MOL1         0.0833
      20    H13     18.501087   19.628414   21.842503 H          1 MOL1         0.0833
      21    C8      20.392663   20.670910   21.480569 C.3        1 MOL1        -0.1684
      22    H14     21.192120   21.063043   22.122370 H          1 MOL1         0.0833
      23    H15     20.193871   21.469073   20.752242 H          1 MOL1         0.0833
      24    O1      20.519987   19.317681   25.653110 O.3        1 MOL1        -0.5508
      25    H16     21.292779   18.774142   25.912802 H          1 MOL1         0.3780
@<TRIPOS>BOND
    1     1     2    1
    2     1     3    1
    3     1     4    1
    4     4     5    1
    5     4     6    1
    6     4     7    1
    7     7     8    1
    8     7     9    1
    9     7    10    1
   10    10    11    1
   11    10    12    1
   12    10    13    1
   13    13    14    1
   14    13    15    1
   15    15    16    1
   16    15    17    1
   17    15    18    1
   18    18    19    1
   19    18    20    1
   20     1    21    1
   21    18    21    1
   22    21    22    1
   23    21    23    1
   24    13    24    1
   25    24    25    1
@<TRIPOS>SUBSTRUCTURE
       1 MOL1            1 RESIDUE      1      MOL     
@<SCITEGIC>MOL_PROPERTY
VM2 Rank
SciTegic.value.IntegerValue
11

@<SCITEGIC>MOL_PROPERTY
Conf_Id
SciTegic.value.IntegerValue
965

@<SCITEGIC>MOL_PROPERTY
Probability
SciTegic.value.DoubleValue
3.23

@<SCITEGIC>MOL_PROPERTY
Sum Probability
SciTegic.value.DoubleValue
43.80

@<SCITEGIC>MOL_PROPERTY
Delta G
SciTegic.value.DoubleValue
0.248

@<SCITEGIC>MOL_PROPERTY
G
SciTegic.value.DoubleValue
62.324

@<SCITEGIC>MOL_PROPERTY
E
SciTegic.value.DoubleValue
29.662

@<SCITEGIC>MOL_PROPERTY
-TS
SciTegic.value.DoubleValue
32.661

@<SCITEGIC>MOL_PROPERTY
U+W
SciTegic.value.DoubleValue
9.095

@<SCITEGIC>MOL_PROPERTY
U
SciTegic.value.DoubleValue
11.209

@<SCITEGIC>MOL_PROPERTY
W
SciTegic.value.DoubleValue
-2.114

@<SCITEGIC>MOL_PROPERTY
W(PB)
SciTegic.value.DoubleValue
-4.242

@<SCITEGIC>MOL_PROPERTY
W(SA)
SciTegic.value.DoubleValue
2.128

@<SCITEGIC>MOL_PROPERTY
Valence
SciTegic.value.DoubleValue
16.994

@<SCITEGIC>MOL_PROPERTY
Coulomb
SciTegic.value.DoubleValue
-8.421

@<SCITEGIC>MOL_PROPERTY
VdW
SciTegic.value.DoubleValue
2.637

@<SCITEGIC>MOL_PROPERTY
VdW6
SciTegic.value.DoubleValue
-12.542

@<SCITEGIC>MOL_PROPERTY
VdW12
SciTegic.value.DoubleValue
15.179

@<SCITEGIC>MOL_PROPERTY
Bond
SciTegic.value.DoubleValue
0.410

@<SCITEGIC>MOL_PROPERTY
Angle
SciTegic.value.DoubleValue
5.145

@<SCITEGIC>MOL_PROPERTY
Pdih
SciTegic.value.DoubleValue
11.438

@<SCITEGIC>MOL_PROPERTY
Idih
SciTegic.value.DoubleValue
0.000

@<SCITEGIC>MOL_PROPERTY
Tether
SciTegic.value.DoubleValue
0.000

@<TRIPOS>MOLECULE
guest-s17_vm2.mol2 : vm2 ligand conformer 12
          25          25           1
SMALL
USER_CHARGES
 
@<TRIPOS>ATOM
       1    C1      20.885238   19.438250   20.677192 C.3        1 MOL1        -0.1684
       2    H1      20.083742   19.097543   20.007558 H          1 MOL1         0.0833
       3    H2      21.695835   19.774510   20.016344 H          1 MOL1         0.0833
       4    C2      21.415715   18.231850   21.495661 C.3        1 MOL1        -0.1684
       5    H3      21.848999   17.523086   20.776659 H          1 MOL1         0.0833
       6    H4      22.252857   18.534116   22.138030 H          1 MOL1         0.0833
       7    C3      20.333530   17.471074   22.304709 C.3        1 MOL1        -0.1684
       8    H5      20.524661   16.393697   22.206420 H          1 MOL1         0.0833
       9    H6      19.344844   17.616815   21.854941 H          1 MOL1         0.0833
      10    C4      20.296757   17.793562   23.821647 C.3        1 MOL1        -0.1760
      11    H7      19.370052   17.390968   24.250796 H          1 MOL1         0.0833
      12    H8      21.114565   17.238110   24.299578 H          1 MOL1         0.0833
      13    C5      20.446122   19.276983   24.233381 C.3        1 MOL1         0.1219
      14    H9      21.389138   19.667224   23.831284 H          1 MOL1         0.0790
      15    C6      19.286033   20.207786   23.807300 C.3        1 MOL1        -0.1760
      16    H10     18.346877   19.834345   24.236287 H          1 MOL1         0.0833
      17    H11     19.458961   21.188817   24.268846 H          1 MOL1         0.0833
      18    C7      19.087566   20.438463   22.286467 C.3        1 MOL1        -0.1684
      19    H12     18.450516   21.326276   22.172630 H          1 MOL1         0.0833
      20    H13     18.503335   19.622970   21.845228 H          1 MOL1         0.0833
      21    C8      20.391849   20.670240   21.480516 C.3        1 MOL1        -0.1684
      22    H14     21.191335   21.062962   22.121877 H          1 MOL1         0.0833
      23    H15     20.192200   21.468186   20.752170 H          1 MOL1         0.0833
      24    O1      20.521189   19.314793   25.653128 O.3        1 MOL1        -0.5508
      25    H16     20.674048   20.249642   25.903673 H          1 MOL1         0.3780
@<TRIPOS>BOND
    1     1     2    1
    2     1     3    1
    3     1     4    1
    4     4     5    1
    5     4     6    1
    6     4     7    1
    7     7     8    1
    8     7     9    1
    9     7    10    1
   10    10    11    1
   11    10    12    1
   12    10    13    1
   13    13    14    1
   14    13    15    1
   15    15    16    1
   16    15    17    1
   17    15    18    1
   18    18    19    1
   19    18    20    1
   20     1    21    1
   21    18    21    1
   22    21    22    1
   23    21    23    1
   24    13    24    1
   25    24    25    1
@<TRIPOS>SUBSTRUCTURE
       1 MOL1            1 RESIDUE      1      MOL     
@<SCITEGIC>MOL_PROPERTY
VM2 Rank
SciTegic.value.IntegerValue
12

@<SCITEGIC>MOL_PROPERTY
Conf_Id
SciTegic.value.IntegerValue
1201

@<SCITEGIC>MOL_PROPERTY
Probability
SciTegic.value.DoubleValue
3.18

@<SCITEGIC>MOL_PROPERTY
Sum Probability
SciTegic.value.DoubleValue
46.97

@<SCITEGIC>MOL_PROPERTY
Delta G
SciTegic.value.DoubleValue
0.258

@<SCITEGIC>MOL_PROPERTY
G
SciTegic.value.DoubleValue
62.334

@<SCITEGIC>MOL_PROPERTY
E
SciTegic.value.DoubleValue
29.672

@<SCITEGIC>MOL_PROPERTY
-TS
SciTegic.value.DoubleValue
32.661

@<SCITEGIC>MOL_PROPERTY
U+W
SciTegic.value.DoubleValue
9.105

@<SCITEGIC>MOL_PROPERTY
U
SciTegic.value.DoubleValue
11.209

@<SCITEGIC>MOL_PROPERTY
W
SciTegic.value.DoubleValue
-2.104

@<SCITEGIC>MOL_PROPERTY
W(PB)
SciTegic.value.DoubleValue
-4.233

@<SCITEGIC>MOL_PROPERTY
W(SA)
SciTegic.value.DoubleValue
2.129

@<SCITEGIC>MOL_PROPERTY
Valence
SciTegic.value.DoubleValue
16.993

@<SCITEGIC>MOL_PROPERTY
Coulomb
SciTegic.value.DoubleValue
-8.421

@<SCITEGIC>MOL_PROPERTY
VdW
SciTegic.value.DoubleValue
2.637

@<SCITEGIC>MOL_PROPERTY
VdW6
SciTegic.value.DoubleValue
-12.542

@<SCITEGIC>MOL_PROPERTY
VdW12
SciTegic.value.DoubleValue
15.179

@<SCITEGIC>MOL_PROPERTY
Bond
SciTegic.value.DoubleValue
0.410

@<SCITEGIC>MOL_PROPERTY
Angle
SciTegic.value.DoubleValue
5.145

@<SCITEGIC>MOL_PROPERTY
Pdih
SciTegic.value.DoubleValue
11.438

@<SCITEGIC>MOL_PROPERTY
Idih
SciTegic.value.DoubleValue
0.000

@<SCITEGIC>MOL_PROPERTY
Tether
SciTegic.value.DoubleValue
0.000

@<TRIPOS>MOLECULE
guest-s17_vm2.mol2 : vm2 ligand conformer 13
          25          25           1
SMALL
USER_CHARGES
 
@<TRIPOS>ATOM
       1    C1      20.558984   19.223340   20.605392 C.3        1 MOL1        -0.1684
       2    H1      20.076187   18.473772   19.963863 H          1 MOL1         0.0833
       3    H2      21.133956   19.867700   19.926328 H          1 MOL1         0.0833
       4    C2      21.572614   18.518429   21.541512 C.3        1 MOL1        -0.1684
       5    H3      22.321951   18.031714   20.902430 H          1 MOL1         0.0833
       6    H4      22.140185   19.259874   22.115335 H          1 MOL1         0.0833
       7    C3      20.993203   17.430166   22.480040 C.3        1 MOL1        -0.1684
       8    H5      21.838742   16.947388   22.988896 H          1 MOL1         0.0833
       9    H6      20.521294   16.643816   21.875468 H          1 MOL1         0.0833
      10    C4      19.989986   17.901058   23.564740 C.3        1 MOL1        -0.1760
      11    H7      18.990538   18.012541   23.132366 H          1 MOL1         0.0833
      12    H8      19.884077   17.079649   24.285860 H          1 MOL1         0.0833
      13    C5      20.394952   19.197416   24.313192 C.3        1 MOL1         0.1219
      14    H9      21.472814   19.372838   24.196584 H          1 MOL1         0.0790
      15    C6      19.623651   20.459878   23.854182 C.3        1 MOL1        -0.1760
      16    H10     18.544861   20.274799   23.939044 H          1 MOL1         0.0833
      17    H11     19.843447   21.262650   24.570446 H          1 MOL1         0.0833
      18    C7      19.944704   21.000358   22.433951 C.3        1 MOL1        -0.1684
      19    H12     21.013334   21.231795   22.337838 H          1 MOL1         0.0833
      20    H13     19.432078   21.967043   22.335765 H          1 MOL1         0.0833
      21    C8      19.462894   20.096976   21.269215 C.3        1 MOL1        -0.1684
      22    H14     19.048324   20.744479   20.484419 H          1 MOL1         0.0833
      23    H15     18.615753   19.478806   21.587056 H          1 MOL1         0.0833
      24    O1      20.123011   19.015378   25.697776 O.3        1 MOL1        -0.5508
      25    H16     20.668745   18.257003   25.993677 H          1 MOL1         0.3780
@<TRIPOS>BOND
    1     1     2    1
    2     1     3    1
    3     1     4    1
    4     4     5    1
    5     4     6    1
    6     4     7    1
    7     7     8    1
    8     7     9    1
    9     7    10    1
   10    10    11    1
   11    10    12    1
   12    10    13    1
   13    13    14    1
   14    13    15    1
   15    15    16    1
   16    15    17    1
   17    15    18    1
   18    18    19    1
   19    18    20    1
   20     1    21    1
   21    18    21    1
   22    21    22    1
   23    21    23    1
   24    13    24    1
   25    24    25    1
@<TRIPOS>SUBSTRUCTURE
       1 MOL1            1 RESIDUE      1      MOL     
@<SCITEGIC>MOL_PROPERTY
VM2 Rank
SciTegic.value.IntegerValue
13

@<SCITEGIC>MOL_PROPERTY
Conf_Id
SciTegic.value.IntegerValue
443

@<SCITEGIC>MOL_PROPERTY
Probability
SciTegic.value.DoubleValue
2.77

@<SCITEGIC>MOL_PROPERTY
Sum Probability
SciTegic.value.DoubleValue
49.74

@<SCITEGIC>MOL_PROPERTY
Delta G
SciTegic.value.DoubleValue
0.340

@<SCITEGIC>MOL_PROPERTY
G
SciTegic.value.DoubleValue
62.415

@<SCITEGIC>MOL_PROPERTY
E
SciTegic.value.DoubleValue
29.634

@<SCITEGIC>MOL_PROPERTY
-TS
SciTegic.value.DoubleValue
32.781

@<SCITEGIC>MOL_PROPERTY
U+W
SciTegic.value.DoubleValue
9.067

@<SCITEGIC>MOL_PROPERTY
U
SciTegic.value.DoubleValue
11.150

@<SCITEGIC>MOL_PROPERTY
W
SciTegic.value.DoubleValue
-2.083

@<SCITEGIC>MOL_PROPERTY
W(PB)
SciTegic.value.DoubleValue
-4.217

@<SCITEGIC>MOL_PROPERTY
W(SA)
SciTegic.value.DoubleValue
2.134

@<SCITEGIC>MOL_PROPERTY
Valence
SciTegic.value.DoubleValue
16.583

@<SCITEGIC>MOL_PROPERTY
Coulomb
SciTegic.value.DoubleValue
-8.361

@<SCITEGIC>MOL_PROPERTY
VdW
SciTegic.value.DoubleValue
2.928

@<SCITEGIC>MOL_PROPERTY
VdW6
SciTegic.value.DoubleValue
-12.539

@<SCITEGIC>MOL_PROPERTY
VdW12
SciTegic.value.DoubleValue
15.467

@<SCITEGIC>MOL_PROPERTY
Bond
SciTegic.value.DoubleValue
0.441

@<SCITEGIC>MOL_PROPERTY
Angle
SciTegic.value.DoubleValue
5.093

@<SCITEGIC>MOL_PROPERTY
Pdih
SciTegic.value.DoubleValue
11.049

@<SCITEGIC>MOL_PROPERTY
Idih
SciTegic.value.DoubleValue
0.000

@<SCITEGIC>MOL_PROPERTY
Tether
SciTegic.value.DoubleValue
0.000

@<TRIPOS>MOLECULE
guest-s17_vm2.mol2 : vm2 ligand conformer 14
          25          25           1
SMALL
USER_CHARGES
 
@<TRIPOS>ATOM
       1    C1      20.522468   19.366727   20.607155 C.3        1 MOL1        -0.1684
       2    H1      19.659057   19.552844   19.954172 H          1 MOL1         0.0833
       3    H2      21.392833   19.313869   19.938881 H          1 MOL1         0.0833
       4    C2      20.356135   17.977218   21.275662 C.3        1 MOL1        -0.1684
       5    H3      19.316128   17.817547   21.581758 H          1 MOL1         0.0833
       6    H4      20.529734   17.222366   20.496498 H          1 MOL1         0.0833
       7    C3      21.321291   17.684025   22.453523 C.3        1 MOL1        -0.1684
       8    H5      22.242091   18.274944   22.365684 H          1 MOL1         0.0833
       9    H6      21.642770   16.637328   22.364188 H          1 MOL1         0.0833
      10    C4      20.695138   17.846350   23.865554 C.3        1 MOL1        -0.1760
      11    H7      19.800043   17.215393   23.942639 H          1 MOL1         0.0833
      12    H8      21.409227   17.437073   24.592436 H          1 MOL1         0.0833
      13    C5      20.343339   19.286836   24.313489 C.3        1 MOL1         0.1219
      14    H9      21.231321   19.923835   24.204502 H          1 MOL1         0.0790
      15    C6      19.149831   19.914310   23.547628 C.3        1 MOL1        -0.1760
      16    H10     18.526634   19.127090   23.111527 H          1 MOL1         0.0833
      17    H11     18.485858   20.424116   24.258388 H          1 MOL1         0.0833
      18    C7      19.539935   20.951203   22.462529 C.3        1 MOL1        -0.1684
      19    H12     19.790836   21.892777   22.969907 H          1 MOL1         0.0833
      20    H13     18.657707   21.171097   21.846192 H          1 MOL1         0.0833
      21    C8      20.730195   20.586238   21.540059 C.3        1 MOL1        -0.1684
      22    H14     20.924174   21.457096   20.899120 H          1 MOL1         0.0833
      23    H15     21.648721   20.465483   22.125616 H          1 MOL1         0.0833
      24    O1      20.005667   19.230093   25.694401 O.3        1 MOL1        -0.5508
      25    H16     19.852379   20.153737   25.984058 H          1 MOL1         0.3780
@<TRIPOS>BOND
    1     1     2    1
    2     1     3    1
    3     1     4    1
    4     4     5    1
    5     4     6    1
    6     4     7    1
    7     7     8    1
    8     7     9    1
    9     7    10    1
   10    10    11    1
   11    10    12    1
   12    10    13    1
   13    13    14    1
   14    13    15    1
   15    15    16    1
   16    15    17    1
   17    15    18    1
   18    18    19    1
   19    18    20    1
   20     1    21    1
   21    18    21    1
   22    21    22    1
   23    21    23    1
   24    13    24    1
   25    24    25    1
@<TRIPOS>SUBSTRUCTURE
       1 MOL1            1 RESIDUE      1      MOL     
@<SCITEGIC>MOL_PROPERTY
VM2 Rank
SciTegic.value.IntegerValue
14

@<SCITEGIC>MOL_PROPERTY
Conf_Id
SciTegic.value.IntegerValue
685

@<SCITEGIC>MOL_PROPERTY
Probability
SciTegic.value.DoubleValue
2.73

@<SCITEGIC>MOL_PROPERTY
Sum Probability
SciTegic.value.DoubleValue
52.47

@<SCITEGIC>MOL_PROPERTY
Delta G
SciTegic.value.DoubleValue
0.348

@<SCITEGIC>MOL_PROPERTY
G
SciTegic.value.DoubleValue
62.424

@<SCITEGIC>MOL_PROPERTY
E
SciTegic.value.DoubleValue
29.643

@<SCITEGIC>MOL_PROPERTY
-TS
SciTegic.value.DoubleValue
32.781

@<SCITEGIC>MOL_PROPERTY
U+W
SciTegic.value.DoubleValue
9.075

@<SCITEGIC>MOL_PROPERTY
U
SciTegic.value.DoubleValue
11.150

@<SCITEGIC>MOL_PROPERTY
W
SciTegic.value.DoubleValue
-2.074

@<SCITEGIC>MOL_PROPERTY
W(PB)
SciTegic.value.DoubleValue
-4.196

@<SCITEGIC>MOL_PROPERTY
W(SA)
SciTegic.value.DoubleValue
2.121

@<SCITEGIC>MOL_PROPERTY
Valence
SciTegic.value.DoubleValue
16.583

@<SCITEGIC>MOL_PROPERTY
Coulomb
SciTegic.value.DoubleValue
-8.361

@<SCITEGIC>MOL_PROPERTY
VdW
SciTegic.value.DoubleValue
2.928

@<SCITEGIC>MOL_PROPERTY
VdW6
SciTegic.value.DoubleValue
-12.539

@<SCITEGIC>MOL_PROPERTY
VdW12
SciTegic.value.DoubleValue
15.467

@<SCITEGIC>MOL_PROPERTY
Bond
SciTegic.value.DoubleValue
0.441

@<SCITEGIC>MOL_PROPERTY
Angle
SciTegic.value.DoubleValue
5.093

@<SCITEGIC>MOL_PROPERTY
Pdih
SciTegic.value.DoubleValue
11.049

@<SCITEGIC>MOL_PROPERTY
Idih
SciTegic.value.DoubleValue
0.000

@<SCITEGIC>MOL_PROPERTY
Tether
SciTegic.value.DoubleValue
0.000

@<TRIPOS>MOLECULE
guest-s17_vm2.mol2 : vm2 ligand conformer 15
          25          25           1
SMALL
USER_CHARGES
 
@<TRIPOS>ATOM
       1    C1      20.521999   19.365779   20.605896 C.3        1 MOL1        -0.1684
       2    H1      19.659009   19.551998   19.952385 H          1 MOL1         0.0833
       3    H2      21.392707   19.311035   19.938225 H          1 MOL1         0.0833
       4    C2      20.353521   17.978121   21.277031 C.3        1 MOL1        -0.1684
       5    H3      19.313951   17.822376   21.586646 H          1 MOL1         0.0833
       6    H4      20.522804   17.221185   20.498937 H          1 MOL1         0.0833
       7    C3      21.321590   17.685800   22.452565 C.3        1 MOL1        -0.1684
       8    H5      22.241858   18.277249   22.362599 H          1 MOL1         0.0833
       9    H6      21.643743   16.639389   22.361883 H          1 MOL1         0.0833
      10    C4      20.698400   17.846962   23.865811 C.3        1 MOL1        -0.1760
      11    H7      19.803226   17.215579   23.941574 H          1 MOL1         0.0833
      12    H8      21.415050   17.433135   24.587269 H          1 MOL1         0.0833
      13    C5      20.344654   19.287294   24.315337 C.3        1 MOL1         0.1219
      14    H9      21.229636   19.929031   24.209385 H          1 MOL1         0.0790
      15    C6      19.152004   19.915766   23.549381 C.3        1 MOL1        -0.1760
      16    H10     18.522328   19.130028   23.120201 H          1 MOL1         0.0833
      17    H11     18.497468   20.431068   24.265329 H          1 MOL1         0.0833
      18    C7      19.540128   20.950125   22.460728 C.3        1 MOL1        -0.1684
      19    H12     19.790787   21.892429   22.966906 H          1 MOL1         0.0833
      20    H13     18.656945   21.168485   21.845303 H          1 MOL1         0.0833
      21    C8      20.730139   20.585587   21.538033 C.3        1 MOL1        -0.1684
      22    H14     21.648481   20.465281   22.123969 H          1 MOL1         0.0833
      23    H15     20.923806   21.456292   20.896810 H          1 MOL1         0.0833
      24    O1      20.001565   19.227567   25.695219 O.3        1 MOL1        -0.5508
      25    H16     20.787834   18.883367   26.168006 H          1 MOL1         0.3780
@<TRIPOS>BOND
    1     1     2    1
    2     1     3    1
    3     1     4    1
    4     4     5    1
    5     4     6    1
    6     4     7    1
    7     7     8    1
    8     7     9    1
    9     7    10    1
   10    10    11    1
   11    10    12    1
   12    10    13    1
   13    13    14    1
   14    13    15    1
   15    15    16    1
   16    15    17    1
   17    15    18    1
   18    18    19    1
   19    18    20    1
   20     1    21    1
   21    18    21    1
   22    21    22    1
   23    21    23    1
   24    13    24    1
   25    24    25    1
@<TRIPOS>SUBSTRUCTURE
       1 MOL1            1 RESIDUE      1      MOL     
@<SCITEGIC>MOL_PROPERTY
VM2 Rank
SciTegic.value.IntegerValue
15

@<SCITEGIC>MOL_PROPERTY
Conf_Id
SciTegic.value.IntegerValue
923

@<SCITEGIC>MOL_PROPERTY
Probability
SciTegic.value.DoubleValue
2.70

@<SCITEGIC>MOL_PROPERTY
Sum Probability
SciTegic.value.DoubleValue
55.18

@<SCITEGIC>MOL_PROPERTY
Delta G
SciTegic.value.DoubleValue
0.354

@<SCITEGIC>MOL_PROPERTY
G
SciTegic.value.DoubleValue
62.430

@<SCITEGIC>MOL_PROPERTY
E
SciTegic.value.DoubleValue
29.684

@<SCITEGIC>MOL_PROPERTY
-TS
SciTegic.value.DoubleValue
32.745

@<SCITEGIC>MOL_PROPERTY
U+W
SciTegic.value.DoubleValue
9.117

@<SCITEGIC>MOL_PROPERTY
U
SciTegic.value.DoubleValue
11.364

@<SCITEGIC>MOL_PROPERTY
W
SciTegic.value.DoubleValue
-2.248

@<SCITEGIC>MOL_PROPERTY
W(PB)
SciTegic.value.DoubleValue
-4.367

@<SCITEGIC>MOL_PROPERTY
W(SA)
SciTegic.value.DoubleValue
2.119

@<SCITEGIC>MOL_PROPERTY
Valence
SciTegic.value.DoubleValue
16.582

@<SCITEGIC>MOL_PROPERTY
Coulomb
SciTegic.value.DoubleValue
-8.150

@<SCITEGIC>MOL_PROPERTY
VdW
SciTegic.value.DoubleValue
2.932

@<SCITEGIC>MOL_PROPERTY
VdW6
SciTegic.value.DoubleValue
-12.531

@<SCITEGIC>MOL_PROPERTY
VdW12
SciTegic.value.DoubleValue
15.464

@<SCITEGIC>MOL_PROPERTY
Bond
SciTegic.value.DoubleValue
0.439

@<SCITEGIC>MOL_PROPERTY
Angle
SciTegic.value.DoubleValue
5.099

@<SCITEGIC>MOL_PROPERTY
Pdih
SciTegic.value.DoubleValue
11.044

@<SCITEGIC>MOL_PROPERTY
Idih
SciTegic.value.DoubleValue
0.000

@<SCITEGIC>MOL_PROPERTY
Tether
SciTegic.value.DoubleValue
0.000

@<TRIPOS>MOLECULE
guest-s17_vm2.mol2 : vm2 ligand conformer 16
          25          25           1
SMALL
USER_CHARGES
 
@<TRIPOS>ATOM
       1    C1      20.557953   19.223601   20.604131 C.3        1 MOL1        -0.1684
       2    H1      20.075534   18.474253   19.962059 H          1 MOL1         0.0833
       3    H2      21.131837   19.869555   19.925666 H          1 MOL1         0.0833
       4    C2      21.572090   18.518773   21.539486 C.3        1 MOL1        -0.1684
       5    H3      22.321076   18.031913   20.900119 H          1 MOL1         0.0833
       6    H4      22.139870   19.259787   22.113656 H          1 MOL1         0.0833
       7    C3      20.992581   17.431026   22.478290 C.3        1 MOL1        -0.1684
       8    H5      21.838473   16.947579   22.985961 H          1 MOL1         0.0833
       9    H6      20.518914   16.645062   21.874682 H          1 MOL1         0.0833
      10    C4      19.992588   17.901606   23.566530 C.3        1 MOL1        -0.1760
      11    H7      18.989628   18.007508   23.141176 H          1 MOL1         0.0833
      12    H8      19.897290   17.083070   24.292791 H          1 MOL1         0.0833
      13    C5      20.396240   19.198105   24.315018 C.3        1 MOL1         0.1219
      14    H9      21.475338   19.368110   24.201469 H          1 MOL1         0.0790
      15    C6      19.626377   20.461779   23.854363 C.3        1 MOL1        -0.1760
      16    H10     18.547229   20.276898   23.937906 H          1 MOL1         0.0833
      17    H11     19.844719   21.269548   24.565122 H          1 MOL1         0.0833
      18    C7      19.946126   20.999287   22.432939 C.3        1 MOL1        -0.1684
      19    H12     21.014740   21.229962   22.334687 H          1 MOL1         0.0833
      20    H13     19.434150   21.966216   22.333369 H          1 MOL1         0.0833
      21    C8      19.461653   20.094436   21.270606 C.3        1 MOL1        -0.1684
      22    H14     18.617635   19.473830   21.592018 H          1 MOL1         0.0833
      23    H15     19.042535   20.740339   20.486906 H          1 MOL1         0.0833
      24    O1      20.118392   19.014387   25.698637 O.3        1 MOL1        -0.5508
      25    H16     20.433894   19.819121   26.160245 H          1 MOL1         0.3780
@<TRIPOS>BOND
    1     1     2    1
    2     1     3    1
    3     1     4    1
    4     4     5    1
    5     4     6    1
    6     4     7    1
    7     7     8    1
    8     7     9    1
    9     7    10    1
   10    10    11    1
   11    10    12    1
   12    10    13    1
   13    13    14    1
   14    13    15    1
   15    15    16    1
   16    15    17    1
   17    15    18    1
   18    18    19    1
   19    18    20    1
   20     1    21    1
   21    18    21    1
   22    21    22    1
   23    21    23    1
   24    13    24    1
   25    24    25    1
@<TRIPOS>SUBSTRUCTURE
       1 MOL1            1 RESIDUE      1      MOL     
@<SCITEGIC>MOL_PROPERTY
VM2 Rank
SciTegic.value.IntegerValue
16

@<SCITEGIC>MOL_PROPERTY
Conf_Id
SciTegic.value.IntegerValue
152

@<SCITEGIC>MOL_PROPERTY
Probability
SciTegic.value.DoubleValue
2.63

@<SCITEGIC>MOL_PROPERTY
Sum Probability
SciTegic.value.DoubleValue
57.81

@<SCITEGIC>MOL_PROPERTY
Delta G
SciTegic.value.DoubleValue
0.370

@<SCITEGIC>MOL_PROPERTY
G
SciTegic.value.DoubleValue
62.446

@<SCITEGIC>MOL_PROPERTY
E
SciTegic.value.DoubleValue
29.700

@<SCITEGIC>MOL_PROPERTY
-TS
SciTegic.value.DoubleValue
32.745

@<SCITEGIC>MOL_PROPERTY
U+W
SciTegic.value.DoubleValue
9.133

@<SCITEGIC>MOL_PROPERTY
U
SciTegic.value.DoubleValue
11.364

@<SCITEGIC>MOL_PROPERTY
W
SciTegic.value.DoubleValue
-2.232

@<SCITEGIC>MOL_PROPERTY
W(PB)
SciTegic.value.DoubleValue
-4.359

@<SCITEGIC>MOL_PROPERTY
W(SA)
SciTegic.value.DoubleValue
2.127

@<SCITEGIC>MOL_PROPERTY
Valence
SciTegic.value.DoubleValue
16.582

@<SCITEGIC>MOL_PROPERTY
Coulomb
SciTegic.value.DoubleValue
-8.150

@<SCITEGIC>MOL_PROPERTY
VdW
SciTegic.value.DoubleValue
2.932

@<SCITEGIC>MOL_PROPERTY
VdW6
SciTegic.value.DoubleValue
-12.531

@<SCITEGIC>MOL_PROPERTY
VdW12
SciTegic.value.DoubleValue
15.464

@<SCITEGIC>MOL_PROPERTY
Bond
SciTegic.value.DoubleValue
0.439

@<SCITEGIC>MOL_PROPERTY
Angle
SciTegic.value.DoubleValue
5.099

@<SCITEGIC>MOL_PROPERTY
Pdih
SciTegic.value.DoubleValue
11.044

@<SCITEGIC>MOL_PROPERTY
Idih
SciTegic.value.DoubleValue
0.000

@<SCITEGIC>MOL_PROPERTY
Tether
SciTegic.value.DoubleValue
0.000

@<TRIPOS>MOLECULE
guest-s17_vm2.mol2 : vm2 ligand conformer 17
          25          25           1
SMALL
USER_CHARGES
 
@<TRIPOS>ATOM
       1    C1      20.521606   19.365653   20.606643 C.3        1 MOL1        -0.1684
       2    H1      19.658021   19.551848   19.953910 H          1 MOL1         0.0833
       3    H2      21.391737   19.311453   19.938173 H          1 MOL1         0.0833
       4    C2      20.354452   17.977562   21.277254 C.3        1 MOL1        -0.1684
       5    H3      19.314870   17.820521   21.586137 H          1 MOL1         0.0833
       6    H4      20.525059   17.221103   20.498977 H          1 MOL1         0.0833
       7    C3      21.322293   17.685930   22.453172 C.3        1 MOL1        -0.1684
       8    H5      22.241906   18.278565   22.364357 H          1 MOL1         0.0833
       9    H6      21.645886   16.639946   22.362783 H          1 MOL1         0.0833
      10    C4      20.697414   17.846500   23.865533 C.3        1 MOL1        -0.1760
      11    H7      19.805602   17.210552   23.939415 H          1 MOL1         0.0833
      12    H8      21.415014   17.438813   24.590155 H          1 MOL1         0.0833
      13    C5      20.342751   19.286623   24.314038 C.3        1 MOL1         0.1219
      14    H9      21.228942   19.926701   24.209936 H          1 MOL1         0.0790
      15    C6      19.150135   19.916792   23.549102 C.3        1 MOL1        -0.1760
      16    H10     18.520324   19.132969   23.116088 H          1 MOL1         0.0833
      17    H11     18.495663   20.435357   24.262805 H          1 MOL1         0.0833
      18    C7      19.540720   20.951041   22.461423 C.3        1 MOL1        -0.1684
      19    H12     19.792999   21.892605   22.968241 H          1 MOL1         0.0833
      20    H13     18.658320   21.171593   21.845612 H          1 MOL1         0.0833
      21    C8      20.730457   20.585262   21.538926 C.3        1 MOL1        -0.1684
      22    H14     20.924912   21.455803   20.897715 H          1 MOL1         0.0833
      23    H15     21.648652   20.464468   22.125039 H          1 MOL1         0.0833
      24    O1      20.004173   19.227637   25.693908 O.3        1 MOL1        -0.5508
      25    H16     19.216353   18.649896   25.760971 H          1 MOL1         0.3780
@<TRIPOS>BOND
    1     1     2    1
    2     1     3    1
    3     1     4    1
    4     4     5    1
    5     4     6    1
    6     4     7    1
    7     7     8    1
    8     7     9    1
    9     7    10    1
   10    10    11    1
   11    10    12    1
   12    10    13    1
   13    13    14    1
   14    13    15    1
   15    15    16    1
   16    15    17    1
   17    15    18    1
   18    18    19    1
   19    18    20    1
   20     1    21    1
   21    18    21    1
   22    21    22    1
   23    21    23    1
   24    13    24    1
   25    24    25    1
@<TRIPOS>SUBSTRUCTURE
       1 MOL1            1 RESIDUE      1      MOL     
@<SCITEGIC>MOL_PROPERTY
VM2 Rank
SciTegic.value.IntegerValue
17

@<SCITEGIC>MOL_PROPERTY
Conf_Id
SciTegic.value.IntegerValue
1580

@<SCITEGIC>MOL_PROPERTY
Probability
SciTegic.value.DoubleValue
2.59

@<SCITEGIC>MOL_PROPERTY
Sum Probability
SciTegic.value.DoubleValue
60.40

@<SCITEGIC>MOL_PROPERTY
Delta G
SciTegic.value.DoubleValue
0.380

@<SCITEGIC>MOL_PROPERTY
G
SciTegic.value.DoubleValue
62.455

@<SCITEGIC>MOL_PROPERTY
E
SciTegic.value.DoubleValue
29.716

@<SCITEGIC>MOL_PROPERTY
-TS
SciTegic.value.DoubleValue
32.739

@<SCITEGIC>MOL_PROPERTY
U+W
SciTegic.value.DoubleValue
9.148

@<SCITEGIC>MOL_PROPERTY
U
SciTegic.value.DoubleValue
11.181

@<SCITEGIC>MOL_PROPERTY
W
SciTegic.value.DoubleValue
-2.032

@<SCITEGIC>MOL_PROPERTY
W(PB)
SciTegic.value.DoubleValue
-4.147

@<SCITEGIC>MOL_PROPERTY
W(SA)
SciTegic.value.DoubleValue
2.114

@<SCITEGIC>MOL_PROPERTY
Valence
SciTegic.value.DoubleValue
16.955

@<SCITEGIC>MOL_PROPERTY
Coulomb
SciTegic.value.DoubleValue
-8.661

@<SCITEGIC>MOL_PROPERTY
VdW
SciTegic.value.DoubleValue
2.887

@<SCITEGIC>MOL_PROPERTY
VdW6
SciTegic.value.DoubleValue
-12.561

@<SCITEGIC>MOL_PROPERTY
VdW12
SciTegic.value.DoubleValue
15.448

@<SCITEGIC>MOL_PROPERTY
Bond
SciTegic.value.DoubleValue
0.433

@<SCITEGIC>MOL_PROPERTY
Angle
SciTegic.value.DoubleValue
5.120

@<SCITEGIC>MOL_PROPERTY
Pdih
SciTegic.value.DoubleValue
11.402

@<SCITEGIC>MOL_PROPERTY
Idih
SciTegic.value.DoubleValue
0.000

@<SCITEGIC>MOL_PROPERTY
Tether
SciTegic.value.DoubleValue
0.000

@<TRIPOS>MOLECULE
guest-s17_vm2.mol2 : vm2 ligand conformer 18
          25          25           1
SMALL
USER_CHARGES
 
@<TRIPOS>ATOM
       1    C1      20.557653   19.223484   20.604874 C.3        1 MOL1        -0.1684
       2    H1      20.074759   18.473839   19.963506 H          1 MOL1         0.0833
       3    H2      21.131610   19.868634   19.925700 H          1 MOL1         0.0833
       4    C2      21.572016   18.519127   21.540376 C.3        1 MOL1        -0.1684
       5    H3      22.321416   18.032878   20.901027 H          1 MOL1         0.0833
       6    H4      22.139412   19.260285   22.114787 H          1 MOL1         0.0833
       7    C3      20.993370   17.430726   22.478898 C.3        1 MOL1        -0.1684
       8    H5      21.839805   16.948734   22.987115 H          1 MOL1         0.0833
       9    H6      20.521629   16.643913   21.874840 H          1 MOL1         0.0833
      10    C4      19.991830   17.899565   23.566274 C.3        1 MOL1        -0.1760
      11    H7      18.990088   18.004080   23.137172 H          1 MOL1         0.0833
      12    H8      19.898841   17.078731   24.290292 H          1 MOL1         0.0833
      13    C5      20.394414   19.197170   24.313750 C.3        1 MOL1         0.1219
      14    H9      21.473227   19.369085   24.202033 H          1 MOL1         0.0790
      15    C6      19.625503   20.461453   23.854119 C.3        1 MOL1        -0.1760
      16    H10     18.545478   20.282280   23.935718 H          1 MOL1         0.0833
      17    H11     19.848967   21.265546   24.568075 H          1 MOL1         0.0833
      18    C7      19.946923   20.999736   22.433571 C.3        1 MOL1        -0.1684
      19    H12     21.015941   21.229018   22.336493 H          1 MOL1         0.0833
      20    H13     19.436368   21.967436   22.334290 H          1 MOL1         0.0833
      21    C8      19.462038   20.095594   21.270833 C.3        1 MOL1        -0.1684
      22    H14     19.044208   20.742135   20.486962 H          1 MOL1         0.0833
      23    H15     18.617070   19.475919   21.591507 H          1 MOL1         0.0833
      24    O1      20.120252   19.016144   25.697306 O.3        1 MOL1        -0.5508
      25    H16     19.154873   18.869391   25.771122 H          1 MOL1         0.3780
@<TRIPOS>BOND
    1     1     2    1
    2     1     3    1
    3     1     4    1
    4     4     5    1
    5     4     6    1
    6     4     7    1
    7     7     8    1
    8     7     9    1
    9     7    10    1
   10    10    11    1
   11    10    12    1
   12    10    13    1
   13    13    14    1
   14    13    15    1
   15    15    16    1
   16    15    17    1
   17    15    18    1
   18    18    19    1
   19    18    20    1
   20     1    21    1
   21    18    21    1
   22    21    22    1
   23    21    23    1
   24    13    24    1
   25    24    25    1
@<TRIPOS>SUBSTRUCTURE
       1 MOL1            1 RESIDUE      1      MOL     
@<SCITEGIC>MOL_PROPERTY
VM2 Rank
SciTegic.value.IntegerValue
18

@<SCITEGIC>MOL_PROPERTY
Conf_Id
SciTegic.value.IntegerValue
890

@<SCITEGIC>MOL_PROPERTY
Probability
SciTegic.value.DoubleValue
2.33

@<SCITEGIC>MOL_PROPERTY
Sum Probability
SciTegic.value.DoubleValue
62.73

@<SCITEGIC>MOL_PROPERTY
Delta G
SciTegic.value.DoubleValue
0.444

@<SCITEGIC>MOL_PROPERTY
G
SciTegic.value.DoubleValue
62.519

@<SCITEGIC>MOL_PROPERTY
E
SciTegic.value.DoubleValue
29.779

@<SCITEGIC>MOL_PROPERTY
-TS
SciTegic.value.DoubleValue
32.740

@<SCITEGIC>MOL_PROPERTY
U+W
SciTegic.value.DoubleValue
9.212

@<SCITEGIC>MOL_PROPERTY
U
SciTegic.value.DoubleValue
11.181

@<SCITEGIC>MOL_PROPERTY
W
SciTegic.value.DoubleValue
-1.969

@<SCITEGIC>MOL_PROPERTY
W(PB)
SciTegic.value.DoubleValue
-4.091

@<SCITEGIC>MOL_PROPERTY
W(SA)
SciTegic.value.DoubleValue
2.122

@<SCITEGIC>MOL_PROPERTY
Valence
SciTegic.value.DoubleValue
16.955

@<SCITEGIC>MOL_PROPERTY
Coulomb
SciTegic.value.DoubleValue
-8.661

@<SCITEGIC>MOL_PROPERTY
VdW
SciTegic.value.DoubleValue
2.887

@<SCITEGIC>MOL_PROPERTY
VdW6
SciTegic.value.DoubleValue
-12.561

@<SCITEGIC>MOL_PROPERTY
VdW12
SciTegic.value.DoubleValue
15.448

@<SCITEGIC>MOL_PROPERTY
Bond
SciTegic.value.DoubleValue
0.433

@<SCITEGIC>MOL_PROPERTY
Angle
SciTegic.value.DoubleValue
5.120

@<SCITEGIC>MOL_PROPERTY
Pdih
SciTegic.value.DoubleValue
11.402

@<SCITEGIC>MOL_PROPERTY
Idih
SciTegic.value.DoubleValue
0.000

@<SCITEGIC>MOL_PROPERTY
Tether
SciTegic.value.DoubleValue
0.000

@<TRIPOS>MOLECULE
guest-s17_vm2.mol2 : vm2 ligand conformer 19
          25          25           1
SMALL
USER_CHARGES
 
@<TRIPOS>ATOM
       1    C1      20.073490   19.166417   20.752273 C.3        1 MOL1        -0.1684
       2    H1      19.005171   18.992047   20.933471 H          1 MOL1         0.0833
       3    H2      20.171255   19.233498   19.660113 H          1 MOL1         0.0833
       4    C2      20.914884   17.945444   21.207925 C.3        1 MOL1        -0.1684
       5    H3      20.622652   17.088574   20.585727 H          1 MOL1         0.0833
       6    H4      21.973722   18.127260   20.978681 H          1 MOL1         0.0833
       7    C3      20.776548   17.517375   22.692338 C.3        1 MOL1        -0.1684
       8    H5      21.313915   16.565980   22.804944 H          1 MOL1         0.0833
       9    H6      19.731342   17.285500   22.934785 H          1 MOL1         0.0833
      10    C4      21.378344   18.518739   23.715179 C.3        1 MOL1        -0.1760
      11    H7      21.928114   17.944784   24.472587 H          1 MOL1         0.0833
      12    H8      22.147472   19.134598   23.237737 H          1 MOL1         0.0833
      13    C5      20.359939   19.422650   24.455776 C.3        1 MOL1         0.1219
      14    H9      20.918635   20.244949   24.925390 H          1 MOL1         0.0790
      15    C6      19.229077   20.039001   23.598930 C.3        1 MOL1        -0.1760
      16    H10     18.617427   19.246488   23.154638 H          1 MOL1         0.0833
      17    H11     18.551384   20.563302   24.285441 H          1 MOL1         0.0833
      18    C7      19.661533   21.059881   22.514676 C.3        1 MOL1        -0.1684
      19    H12     20.185907   21.898210   22.992965 H          1 MOL1         0.0833
      20    H13     18.746248   21.489035   22.084636 H          1 MOL1         0.0833
      21    C8      20.527539   20.525480   21.345182 C.3        1 MOL1        -0.1684
      22    H14     21.584173   20.485241   21.632811 H          1 MOL1         0.0833
      23    H15     20.489916   21.277416   20.545067 H          1 MOL1         0.0833
      24    O1      19.742647   18.648013   25.477721 O.3        1 MOL1        -0.5508
      25    H16     20.464574   18.275517   26.024661 H          1 MOL1         0.3780
@<TRIPOS>BOND
    1     1     2    1
    2     1     3    1
    3     1     4    1
    4     4     5    1
    5     4     6    1
    6     4     7    1
    7     7     8    1
    8     7     9    1
    9     7    10    1
   10    10    11    1
   11    10    12    1
   12    10    13    1
   13    13    14    1
   14    13    15    1
   15    15    16    1
   16    15    17    1
   17    15    18    1
   18    18    19    1
   19    18    20    1
   20     1    21    1
   21    18    21    1
   22    21    22    1
   23    21    23    1
   24    13    24    1
   25    24    25    1
@<TRIPOS>SUBSTRUCTURE
       1 MOL1            1 RESIDUE      1      MOL     
@<SCITEGIC>MOL_PROPERTY
VM2 Rank
SciTegic.value.IntegerValue
19

@<SCITEGIC>MOL_PROPERTY
Conf_Id
SciTegic.value.IntegerValue
1563

@<SCITEGIC>MOL_PROPERTY
Probability
SciTegic.value.DoubleValue
2.09

@<SCITEGIC>MOL_PROPERTY
Sum Probability
SciTegic.value.DoubleValue
64.82

@<SCITEGIC>MOL_PROPERTY
Delta G
SciTegic.value.DoubleValue
0.509

@<SCITEGIC>MOL_PROPERTY
G
SciTegic.value.DoubleValue
62.584

@<SCITEGIC>MOL_PROPERTY
E
SciTegic.value.DoubleValue
29.865

@<SCITEGIC>MOL_PROPERTY
-TS
SciTegic.value.DoubleValue
32.719

@<SCITEGIC>MOL_PROPERTY
U+W
SciTegic.value.DoubleValue
9.298

@<SCITEGIC>MOL_PROPERTY
U
SciTegic.value.DoubleValue
11.545

@<SCITEGIC>MOL_PROPERTY
W
SciTegic.value.DoubleValue
-2.247

@<SCITEGIC>MOL_PROPERTY
W(PB)
SciTegic.value.DoubleValue
-4.381

@<SCITEGIC>MOL_PROPERTY
W(SA)
SciTegic.value.DoubleValue
2.133

@<SCITEGIC>MOL_PROPERTY
Valence
SciTegic.value.DoubleValue
16.814

@<SCITEGIC>MOL_PROPERTY
Coulomb
SciTegic.value.DoubleValue
-7.999

@<SCITEGIC>MOL_PROPERTY
VdW
SciTegic.value.DoubleValue
2.729

@<SCITEGIC>MOL_PROPERTY
VdW6
SciTegic.value.DoubleValue
-12.749

@<SCITEGIC>MOL_PROPERTY
VdW12
SciTegic.value.DoubleValue
15.478

@<SCITEGIC>MOL_PROPERTY
Bond
SciTegic.value.DoubleValue
0.438

@<SCITEGIC>MOL_PROPERTY
Angle
SciTegic.value.DoubleValue
5.318

@<SCITEGIC>MOL_PROPERTY
Pdih
SciTegic.value.DoubleValue
11.058

@<SCITEGIC>MOL_PROPERTY
Idih
SciTegic.value.DoubleValue
0.000

@<SCITEGIC>MOL_PROPERTY
Tether
SciTegic.value.DoubleValue
0.000

@<TRIPOS>MOLECULE
guest-s17_vm2.mol2 : vm2 ligand conformer 20
          25          25           1
SMALL
USER_CHARGES
 
@<TRIPOS>ATOM
       1    C1      21.058475   19.529847   20.991369 C.3        1 MOL1        -0.1684
       2    H1      21.420995   19.684239   19.965998 H          1 MOL1         0.0833
       3    H2      21.876570   19.881738   21.630139 H          1 MOL1         0.0833
       4    C2      20.842568   18.007847   21.179819 C.3        1 MOL1        -0.1684
       5    H3      20.092109   17.655501   20.459290 H          1 MOL1         0.0833
       6    H4      21.779385   17.505422   20.902637 H          1 MOL1         0.0833
       7    C3      20.445851   17.523474   22.597543 C.3        1 MOL1        -0.1684
       8    H5      20.621605   16.439471   22.627855 H          1 MOL1         0.0833
       9    H6      19.366757   17.626547   22.748904 H          1 MOL1         0.0833
      10    C4      21.243357   18.171828   23.764098 C.3        1 MOL1        -0.1760
      11    H7      21.466432   17.381941   24.493488 H          1 MOL1         0.0833
      12    H8      22.225106   18.514063   23.414930 H          1 MOL1         0.0833
      13    C5      20.535477   19.309552   24.546074 C.3        1 MOL1         0.1219
      14    H9      21.222819   19.605530   25.351538 H          1 MOL1         0.0790
      15    C6      20.199028   20.604859   23.761232 C.3        1 MOL1        -0.1760
      16    H10     19.779472   21.312130   24.488856 H          1 MOL1         0.0833
      17    H11     21.123693   21.080093   23.411915 H          1 MOL1         0.0833
      18    C7      19.180678   20.471040   22.594065 C.3        1 MOL1        -0.1684
      19    H12     18.515906   21.345205   22.622074 H          1 MOL1         0.0833
      20    H13     18.511951   19.618083   22.746536 H          1 MOL1         0.0833
      21    C8      19.806309   20.422168   21.176977 C.3        1 MOL1        -0.1684
      22    H14     20.087695   21.446813   20.898027 H          1 MOL1         0.0833
      23    H15     19.034556   20.119479   20.456369 H          1 MOL1         0.0833
      24    O1      19.352258   18.802384   25.148823 O.3        1 MOL1        -0.5508
      25    H16     18.767358   18.550328   24.408076 H          1 MOL1         0.3780
@<TRIPOS>BOND
    1     1     2    1
    2     1     3    1
    3     1     4    1
    4     4     5    1
    5     4     6    1
    6     4     7    1
    7     7     8    1
    8     7     9    1
    9     7    10    1
   10    10    11    1
   11    10    12    1
   12    10    13    1
   13    13    14    1
   14    13    15    1
   15    15    16    1
   16    15    17    1
   17    15    18    1
   18    18    19    1
   19    18    20    1
   20     1    21    1
   21    18    21    1
   22    21    22    1
   23    21    23    1
   24    13    24    1
   25    24    25    1
@<TRIPOS>SUBSTRUCTURE
       1 MOL1            1 RESIDUE      1      MOL     
@<SCITEGIC>MOL_PROPERTY
VM2 Rank
SciTegic.value.IntegerValue
20

@<SCITEGIC>MOL_PROPERTY
Conf_Id
SciTegic.value.IntegerValue
1355

@<SCITEGIC>MOL_PROPERTY
Probability
SciTegic.value.DoubleValue
1.99

@<SCITEGIC>MOL_PROPERTY
Sum Probability
SciTegic.value.DoubleValue
66.81

@<SCITEGIC>MOL_PROPERTY
Delta G
SciTegic.value.DoubleValue
0.537

@<SCITEGIC>MOL_PROPERTY
G
SciTegic.value.DoubleValue
62.613

@<SCITEGIC>MOL_PROPERTY
E
SciTegic.value.DoubleValue
29.810

@<SCITEGIC>MOL_PROPERTY
-TS
SciTegic.value.DoubleValue
32.803

@<SCITEGIC>MOL_PROPERTY
U+W
SciTegic.value.DoubleValue
9.243

@<SCITEGIC>MOL_PROPERTY
U
SciTegic.value.DoubleValue
10.674

@<SCITEGIC>MOL_PROPERTY
W
SciTegic.value.DoubleValue
-1.432

@<SCITEGIC>MOL_PROPERTY
W(PB)
SciTegic.value.DoubleValue
-3.549

@<SCITEGIC>MOL_PROPERTY
W(SA)
SciTegic.value.DoubleValue
2.118

@<SCITEGIC>MOL_PROPERTY
Valence
SciTegic.value.DoubleValue
17.246

@<SCITEGIC>MOL_PROPERTY
Coulomb
SciTegic.value.DoubleValue
-9.242

@<SCITEGIC>MOL_PROPERTY
VdW
SciTegic.value.DoubleValue
2.670

@<SCITEGIC>MOL_PROPERTY
VdW6
SciTegic.value.DoubleValue
-13.410

@<SCITEGIC>MOL_PROPERTY
VdW12
SciTegic.value.DoubleValue
16.081

@<SCITEGIC>MOL_PROPERTY
Bond
SciTegic.value.DoubleValue
0.483

@<SCITEGIC>MOL_PROPERTY
Angle
SciTegic.value.DoubleValue
6.110

@<SCITEGIC>MOL_PROPERTY
Pdih
SciTegic.value.DoubleValue
10.652

@<SCITEGIC>MOL_PROPERTY
Idih
SciTegic.value.DoubleValue
0.000

@<SCITEGIC>MOL_PROPERTY
Tether
SciTegic.value.DoubleValue
0.000

@<TRIPOS>MOLECULE
guest-s17_vm2.mol2 : vm2 ligand conformer 21
          25          25           1
SMALL
USER_CHARGES
 
@<TRIPOS>ATOM
       1    C1      20.146007   19.063940   20.750224 C.3        1 MOL1        -0.1684
       2    H1      19.290119   18.398403   20.920688 H          1 MOL1         0.0833
       3    H2      20.276767   19.088329   19.659729 H          1 MOL1         0.0833
       4    C2      21.443648   18.475370   21.362164 C.3        1 MOL1        -0.1684
       5    H3      21.981103   17.935792   20.570327 H          1 MOL1         0.0833
       6    H4      22.127596   19.278836   21.657939 H          1 MOL1         0.0833
       7    C3      21.231671   17.478732   22.530516 C.3        1 MOL1        -0.1684
       8    H5      22.196429   17.295215   23.022541 H          1 MOL1         0.0833
       9    H6      20.931157   16.514687   22.097894 H          1 MOL1         0.0833
      10    C4      20.173668   17.856326   23.599569 C.3        1 MOL1        -0.1760
      11    H7      19.182811   17.944738   23.141343 H          1 MOL1         0.0833
      12    H8      20.088824   17.003964   24.286399 H          1 MOL1         0.0833
      13    C5      20.477251   19.106450   24.458608 C.3        1 MOL1         0.1219
      14    H9      21.453673   18.958995   24.942048 H          1 MOL1         0.0790
      15    C6      20.515536   20.466605   23.716182 C.3        1 MOL1        -0.1760
      16    H10     20.457057   21.261204   24.471516 H          1 MOL1         0.0833
      17    H11     21.496433   20.612210   23.252035 H          1 MOL1         0.0833
      18    C7      19.386076   20.703080   22.677197 C.3        1 MOL1        -0.1684
      19    H12     19.051045   21.743784   22.783427 H          1 MOL1         0.0833
      20    H13     18.502829   20.093655   22.908450 H          1 MOL1         0.0833
      21    C8      19.814787   20.511463   21.198903 C.3        1 MOL1        -0.1684
      22    H14     20.670364   21.164910   20.980403 H          1 MOL1         0.0833
      23    H15     18.996034   20.877743   20.564680 H          1 MOL1         0.0833
      24    O1      19.475355   19.181035   25.466638 O.3        1 MOL1        -0.5508
      25    H16     19.684499   19.964908   26.015158 H          1 MOL1         0.3780
@<TRIPOS>BOND
    1     1     2    1
    2     1     3    1
    3     1     4    1
    4     4     5    1
    5     4     6    1
    6     4     7    1
    7     7     8    1
    8     7     9    1
    9     7    10    1
   10    10    11    1
   11    10    12    1
   12    10    13    1
   13    13    14    1
   14    13    15    1
   15    15    16    1
   16    15    17    1
   17    15    18    1
   18    18    19    1
   19    18    20    1
   20     1    21    1
   21    18    21    1
   22    21    22    1
   23    21    23    1
   24    13    24    1
   25    24    25    1
@<TRIPOS>SUBSTRUCTURE
       1 MOL1            1 RESIDUE      1      MOL     
@<SCITEGIC>MOL_PROPERTY
VM2 Rank
SciTegic.value.IntegerValue
21

@<SCITEGIC>MOL_PROPERTY
Conf_Id
SciTegic.value.IntegerValue
1258

@<SCITEGIC>MOL_PROPERTY
Probability
SciTegic.value.DoubleValue
1.99

@<SCITEGIC>MOL_PROPERTY
Sum Probability
SciTegic.value.DoubleValue
68.79

@<SCITEGIC>MOL_PROPERTY
Delta G
SciTegic.value.DoubleValue
0.538

@<SCITEGIC>MOL_PROPERTY
G
SciTegic.value.DoubleValue
62.614

@<SCITEGIC>MOL_PROPERTY
E
SciTegic.value.DoubleValue
29.895

@<SCITEGIC>MOL_PROPERTY
-TS
SciTegic.value.DoubleValue
32.719

@<SCITEGIC>MOL_PROPERTY
U+W
SciTegic.value.DoubleValue
9.327

@<SCITEGIC>MOL_PROPERTY
U
SciTegic.value.DoubleValue
11.545

@<SCITEGIC>MOL_PROPERTY
W
SciTegic.value.DoubleValue
-2.217

@<SCITEGIC>MOL_PROPERTY
W(PB)
SciTegic.value.DoubleValue
-4.341

@<SCITEGIC>MOL_PROPERTY
W(SA)
SciTegic.value.DoubleValue
2.124

@<SCITEGIC>MOL_PROPERTY
Valence
SciTegic.value.DoubleValue
16.814

@<SCITEGIC>MOL_PROPERTY
Coulomb
SciTegic.value.DoubleValue
-7.999

@<SCITEGIC>MOL_PROPERTY
VdW
SciTegic.value.DoubleValue
2.729

@<SCITEGIC>MOL_PROPERTY
VdW6
SciTegic.value.DoubleValue
-12.749

@<SCITEGIC>MOL_PROPERTY
VdW12
SciTegic.value.DoubleValue
15.478

@<SCITEGIC>MOL_PROPERTY
Bond
SciTegic.value.DoubleValue
0.438

@<SCITEGIC>MOL_PROPERTY
Angle
SciTegic.value.DoubleValue
5.318

@<SCITEGIC>MOL_PROPERTY
Pdih
SciTegic.value.DoubleValue
11.058

@<SCITEGIC>MOL_PROPERTY
Idih
SciTegic.value.DoubleValue
0.000

@<SCITEGIC>MOL_PROPERTY
Tether
SciTegic.value.DoubleValue
0.000

@<TRIPOS>MOLECULE
guest-s17_vm2.mol2 : vm2 ligand conformer 22
          25          25           1
SMALL
USER_CHARGES
 
@<TRIPOS>ATOM
       1    C1      20.659677   19.500345   20.797563 C.3        1 MOL1        -0.1684
       2    H1      20.508289   19.580482   19.712434 H          1 MOL1         0.0833
       3    H2      21.535558   20.126180   21.011230 H          1 MOL1         0.0833
       4    C2      20.960368   18.010055   21.104509 C.3        1 MOL1        -0.1684
       5    H3      20.083262   17.401407   20.845561 H          1 MOL1         0.0833
       6    H4      21.756658   17.683235   20.421941 H          1 MOL1         0.0833
       7    C3      21.411116   17.672463   22.549627 C.3        1 MOL1        -0.1684
       8    H5      22.314164   18.236141   22.816687 H          1 MOL1         0.0833
       9    H6      21.720747   16.618401   22.550581 H          1 MOL1         0.0833
      10    C4      20.307376   17.835446   23.629163 C.3        1 MOL1        -0.1760
      11    H7      19.312617   17.741094   23.180201 H          1 MOL1         0.0833
      12    H8      20.381415   16.985603   24.319992 H          1 MOL1         0.0833
      13    C5      20.397244   19.116799   24.492925 C.3        1 MOL1         0.1219
      14    H9      21.219352   18.961644   25.206506 H          1 MOL1         0.0790
      15    C6      20.706431   20.440291   23.749386 C.3        1 MOL1        -0.1760
      16    H10     20.833787   21.221236   24.510088 H          1 MOL1         0.0833
      17    H11     21.687080   20.370577   23.266780 H          1 MOL1         0.0833
      18    C7      19.650931   20.948297   22.730800 C.3        1 MOL1        -0.1684
      19    H12     19.981745   21.933946   22.376418 H          1 MOL1         0.0833
      20    H13     18.698009   21.123749   23.248062 H          1 MOL1         0.0833
      21    C8      19.389296   20.060225   21.488217 C.3        1 MOL1        -0.1684
      22    H14     18.844276   20.674784   20.758787 H          1 MOL1         0.0833
      23    H15     18.696306   19.248238   21.736231 H          1 MOL1         0.0833
      24    O1      19.181560   19.259081   25.217810 O.3        1 MOL1        -0.5508
      25    H16     19.252589   20.095931   25.720940 H          1 MOL1         0.3780
@<TRIPOS>BOND
    1     1     2    1
    2     1     3    1
    3     1     4    1
    4     4     5    1
    5     4     6    1
    6     4     7    1
    7     7     8    1
    8     7     9    1
    9     7    10    1
   10    10    11    1
   11    10    12    1
   12    10    13    1
   13    13    14    1
   14    13    15    1
   15    15    16    1
   16    15    17    1
   17    15    18    1
   18    18    19    1
   19    18    20    1
   20     1    21    1
   21    18    21    1
   22    21    22    1
   23    21    23    1
   24    13    24    1
   25    24    25    1
@<TRIPOS>SUBSTRUCTURE
       1 MOL1            1 RESIDUE      1      MOL     
@<SCITEGIC>MOL_PROPERTY
VM2 Rank
SciTegic.value.IntegerValue
22

@<SCITEGIC>MOL_PROPERTY
Conf_Id
SciTegic.value.IntegerValue
637

@<SCITEGIC>MOL_PROPERTY
Probability
SciTegic.value.DoubleValue
1.65

@<SCITEGIC>MOL_PROPERTY
Sum Probability
SciTegic.value.DoubleValue
70.44

@<SCITEGIC>MOL_PROPERTY
Delta G
SciTegic.value.DoubleValue
0.648

@<SCITEGIC>MOL_PROPERTY
G
SciTegic.value.DoubleValue
62.723

@<SCITEGIC>MOL_PROPERTY
E
SciTegic.value.DoubleValue
30.035

@<SCITEGIC>MOL_PROPERTY
-TS
SciTegic.value.DoubleValue
32.688

@<SCITEGIC>MOL_PROPERTY
U+W
SciTegic.value.DoubleValue
9.467

@<SCITEGIC>MOL_PROPERTY
U
SciTegic.value.DoubleValue
11.668

@<SCITEGIC>MOL_PROPERTY
W
SciTegic.value.DoubleValue
-2.201

@<SCITEGIC>MOL_PROPERTY
W(PB)
SciTegic.value.DoubleValue
-4.334

@<SCITEGIC>MOL_PROPERTY
W(SA)
SciTegic.value.DoubleValue
2.133

@<SCITEGIC>MOL_PROPERTY
Valence
SciTegic.value.DoubleValue
16.811

@<SCITEGIC>MOL_PROPERTY
Coulomb
SciTegic.value.DoubleValue
-7.706

@<SCITEGIC>MOL_PROPERTY
VdW
SciTegic.value.DoubleValue
2.563

@<SCITEGIC>MOL_PROPERTY
VdW6
SciTegic.value.DoubleValue
-12.921

@<SCITEGIC>MOL_PROPERTY
VdW12
SciTegic.value.DoubleValue
15.484

@<SCITEGIC>MOL_PROPERTY
Bond
SciTegic.value.DoubleValue
0.437

@<SCITEGIC>MOL_PROPERTY
Angle
SciTegic.value.DoubleValue
5.466

@<SCITEGIC>MOL_PROPERTY
Pdih
SciTegic.value.DoubleValue
10.908

@<SCITEGIC>MOL_PROPERTY
Idih
SciTegic.value.DoubleValue
0.000

@<SCITEGIC>MOL_PROPERTY
Tether
SciTegic.value.DoubleValue
0.000

@<TRIPOS>MOLECULE
guest-s17_vm2.mol2 : vm2 ligand conformer 23
          25          25           1
SMALL
USER_CHARGES
 
@<TRIPOS>ATOM
       1    C1      20.152266   19.065442   20.747652 C.3        1 MOL1        -0.1684
       2    H1      20.289560   19.091049   19.657988 H          1 MOL1         0.0833
       3    H2      19.296273   18.398612   20.912569 H          1 MOL1         0.0833
       4    C2      21.446755   18.478535   21.367374 C.3        1 MOL1        -0.1684
       5    H3      21.992436   17.943852   20.577848 H          1 MOL1         0.0833
       6    H4      22.125485   19.282781   21.672974 H          1 MOL1         0.0833
       7    C3      21.226699   17.476847   22.529443 C.3        1 MOL1        -0.1684
       8    H5      22.189463   17.286223   23.022736 H          1 MOL1         0.0833
       9    H6      20.922540   16.516511   22.091074 H          1 MOL1         0.0833
      10    C4      20.168456   17.855648   23.597556 C.3        1 MOL1        -0.1760
      11    H7      19.179212   17.948674   23.136359 H          1 MOL1         0.0833
      12    H8      20.081337   16.999108   24.278590 H          1 MOL1         0.0833
      13    C5      20.477559   19.105427   24.456234 C.3        1 MOL1         0.1219
      14    H9      21.459020   18.961251   24.930376 H          1 MOL1         0.0790
      15    C6      20.507289   20.467673   23.717285 C.3        1 MOL1        -0.1760
      16    H10     20.432537   21.253479   24.480818 H          1 MOL1         0.0833
      17    H11     21.490133   20.627431   23.262090 H          1 MOL1         0.0833
      18    C7      19.381851   20.701322   22.673027 C.3        1 MOL1        -0.1684
      19    H12     19.044920   21.741438   22.778604 H          1 MOL1         0.0833
      20    H13     18.498581   20.091234   22.901849 H          1 MOL1         0.0833
      21    C8      19.816455   20.511730   21.196193 C.3        1 MOL1        -0.1684
      22    H14     18.999559   20.877109   20.559073 H          1 MOL1         0.0833
      23    H15     20.671737   21.166907   20.981780 H          1 MOL1         0.0833
      24    O1      19.486671   19.180375   25.475236 O.3        1 MOL1        -0.5508
      25    H16     19.525258   18.335976   25.970056 H          1 MOL1         0.3780
@<TRIPOS>BOND
    1     1     2    1
    2     1     3    1
    3     1     4    1
    4     4     5    1
    5     4     6    1
    6     4     7    1
    7     7     8    1
    8     7     9    1
    9     7    10    1
   10    10    11    1
   11    10    12    1
   12    10    13    1
   13    13    14    1
   14    13    15    1
   15    15    16    1
   16    15    17    1
   17    15    18    1
   18    18    19    1
   19    18    20    1
   20     1    21    1
   21    18    21    1
   22    21    22    1
   23    21    23    1
   24    13    24    1
   25    24    25    1
@<TRIPOS>SUBSTRUCTURE
       1 MOL1            1 RESIDUE      1      MOL     
@<SCITEGIC>MOL_PROPERTY
VM2 Rank
SciTegic.value.IntegerValue
23

@<SCITEGIC>MOL_PROPERTY
Conf_Id
SciTegic.value.IntegerValue
1667

@<SCITEGIC>MOL_PROPERTY
Probability
SciTegic.value.DoubleValue
1.62

@<SCITEGIC>MOL_PROPERTY
Sum Probability
SciTegic.value.DoubleValue
72.06

@<SCITEGIC>MOL_PROPERTY
Delta G
SciTegic.value.DoubleValue
0.661

@<SCITEGIC>MOL_PROPERTY
G
SciTegic.value.DoubleValue
62.736

@<SCITEGIC>MOL_PROPERTY
E
SciTegic.value.DoubleValue
29.993

@<SCITEGIC>MOL_PROPERTY
-TS
SciTegic.value.DoubleValue
32.743

@<SCITEGIC>MOL_PROPERTY
U+W
SciTegic.value.DoubleValue
9.425

@<SCITEGIC>MOL_PROPERTY
U
SciTegic.value.DoubleValue
11.687

@<SCITEGIC>MOL_PROPERTY
W
SciTegic.value.DoubleValue
-2.262

@<SCITEGIC>MOL_PROPERTY
W(PB)
SciTegic.value.DoubleValue
-4.388

@<SCITEGIC>MOL_PROPERTY
W(SA)
SciTegic.value.DoubleValue
2.126

@<SCITEGIC>MOL_PROPERTY
Valence
SciTegic.value.DoubleValue
16.789

@<SCITEGIC>MOL_PROPERTY
Coulomb
SciTegic.value.DoubleValue
-7.836

@<SCITEGIC>MOL_PROPERTY
VdW
SciTegic.value.DoubleValue
2.734

@<SCITEGIC>MOL_PROPERTY
VdW6
SciTegic.value.DoubleValue
-12.729

@<SCITEGIC>MOL_PROPERTY
VdW12
SciTegic.value.DoubleValue
15.463

@<SCITEGIC>MOL_PROPERTY
Bond
SciTegic.value.DoubleValue
0.436

@<SCITEGIC>MOL_PROPERTY
Angle
SciTegic.value.DoubleValue
5.314

@<SCITEGIC>MOL_PROPERTY
Pdih
SciTegic.value.DoubleValue
11.039

@<SCITEGIC>MOL_PROPERTY
Idih
SciTegic.value.DoubleValue
0.000

@<SCITEGIC>MOL_PROPERTY
Tether
SciTegic.value.DoubleValue
0.000

@<TRIPOS>MOLECULE
guest-s17_vm2.mol2 : vm2 ligand conformer 24
          25          25           1
SMALL
USER_CHARGES
 
@<TRIPOS>ATOM
       1    C1      20.078947   19.169946   20.749596 C.3        1 MOL1        -0.1684
       2    H1      20.182143   19.240996   19.658185 H          1 MOL1         0.0833
       3    H2      19.009541   18.996367   20.925159 H          1 MOL1         0.0833
       4    C2      20.916212   17.946395   21.205247 C.3        1 MOL1        -0.1684
       5    H3      20.624537   17.091479   20.580117 H          1 MOL1         0.0833
       6    H4      21.976178   18.126797   20.980161 H          1 MOL1         0.0833
       7    C3      20.772268   17.515383   22.688275 C.3        1 MOL1        -0.1684
       8    H5      21.307836   16.562950   22.800296 H          1 MOL1         0.0833
       9    H6      19.726513   17.283982   22.928243 H          1 MOL1         0.0833
      10    C4      21.373469   18.511916   23.716458 C.3        1 MOL1        -0.1760
      11    H7      21.905728   17.932067   24.482315 H          1 MOL1         0.0833
      12    H8      22.154448   19.119625   23.247979 H          1 MOL1         0.0833
      13    C5      20.359338   19.423585   24.453377 C.3        1 MOL1         0.1219
      14    H9      20.923815   20.247261   24.913579 H          1 MOL1         0.0790
      15    C6      19.225011   20.035630   23.596912 C.3        1 MOL1        -0.1760
      16    H10     18.617843   19.241124   23.149623 H          1 MOL1         0.0833
      17    H11     18.542627   20.561044   24.277609 H          1 MOL1         0.0833
      18    C7      19.656790   21.057494   22.513590 C.3        1 MOL1        -0.1684
      19    H12     20.174543   21.899232   22.993172 H          1 MOL1         0.0833
      20    H13     18.741720   21.481338   22.077779 H          1 MOL1         0.0833
      21    C8      20.532135   20.525644   21.350360 C.3        1 MOL1        -0.1684
      22    H14     21.585852   20.481139   21.647979 H          1 MOL1         0.0833
      23    H15     20.503790   21.280318   20.552444 H          1 MOL1         0.0833
      24    O1      19.749830   18.657006   25.486186 O.3        1 MOL1        -0.5508
      25    H16     19.160159   19.264358   25.978889 H          1 MOL1         0.3780
@<TRIPOS>BOND
    1     1     2    1
    2     1     3    1
    3     1     4    1
    4     4     5    1
    5     4     6    1
    6     4     7    1
    7     7     8    1
    8     7     9    1
    9     7    10    1
   10    10    11    1
   11    10    12    1
   12    10    13    1
   13    13    14    1
   14    13    15    1
   15    15    16    1
   16    15    17    1
   17    15    18    1
   18    18    19    1
   19    18    20    1
   20     1    21    1
   21    18    21    1
   22    21    22    1
   23    21    23    1
   24    13    24    1
   25    24    25    1
@<TRIPOS>SUBSTRUCTURE
       1 MOL1            1 RESIDUE      1      MOL     
@<SCITEGIC>MOL_PROPERTY
VM2 Rank
SciTegic.value.IntegerValue
24

@<SCITEGIC>MOL_PROPERTY
Conf_Id
SciTegic.value.IntegerValue
1683

@<SCITEGIC>MOL_PROPERTY
Probability
SciTegic.value.DoubleValue
1.53

@<SCITEGIC>MOL_PROPERTY
Sum Probability
SciTegic.value.DoubleValue
73.59

@<SCITEGIC>MOL_PROPERTY
Delta G
SciTegic.value.DoubleValue
0.696

@<SCITEGIC>MOL_PROPERTY
G
SciTegic.value.DoubleValue
62.771

@<SCITEGIC>MOL_PROPERTY
E
SciTegic.value.DoubleValue
30.029

@<SCITEGIC>MOL_PROPERTY
-TS
SciTegic.value.DoubleValue
32.742

@<SCITEGIC>MOL_PROPERTY
U+W
SciTegic.value.DoubleValue
9.462

@<SCITEGIC>MOL_PROPERTY
U
SciTegic.value.DoubleValue
11.687

@<SCITEGIC>MOL_PROPERTY
W
SciTegic.value.DoubleValue
-2.226

@<SCITEGIC>MOL_PROPERTY
W(PB)
SciTegic.value.DoubleValue
-4.373

@<SCITEGIC>MOL_PROPERTY
W(SA)
SciTegic.value.DoubleValue
2.147

@<SCITEGIC>MOL_PROPERTY
Valence
SciTegic.value.DoubleValue
16.789

@<SCITEGIC>MOL_PROPERTY
Coulomb
SciTegic.value.DoubleValue
-7.836

@<SCITEGIC>MOL_PROPERTY
VdW
SciTegic.value.DoubleValue
2.735

@<SCITEGIC>MOL_PROPERTY
VdW6
SciTegic.value.DoubleValue
-12.729

@<SCITEGIC>MOL_PROPERTY
VdW12
SciTegic.value.DoubleValue
15.463

@<SCITEGIC>MOL_PROPERTY
Bond
SciTegic.value.DoubleValue
0.436

@<SCITEGIC>MOL_PROPERTY
Angle
SciTegic.value.DoubleValue
5.314

@<SCITEGIC>MOL_PROPERTY
Pdih
SciTegic.value.DoubleValue
11.039

@<SCITEGIC>MOL_PROPERTY
Idih
SciTegic.value.DoubleValue
0.000

@<SCITEGIC>MOL_PROPERTY
Tether
SciTegic.value.DoubleValue
0.000

@<TRIPOS>MOLECULE
guest-s17_vm2.mol2 : vm2 ligand conformer 25
          25          25           1
SMALL
USER_CHARGES
 
@<TRIPOS>ATOM
       1    C1      21.055484   19.512960   21.007005 C.3        1 MOL1        -0.1684
       2    H1      21.845152   19.931514   21.644656 H          1 MOL1         0.0833
       3    H2      21.365296   19.741626   19.977949 H          1 MOL1         0.0833
       4    C2      21.011435   17.971475   21.141369 C.3        1 MOL1        -0.1684
       5    H3      20.088542   17.581742   20.690739 H          1 MOL1         0.0833
       6    H4      21.831024   17.554433   20.540206 H          1 MOL1         0.0833
       7    C3      21.167778   17.424615   22.580635 C.3        1 MOL1        -0.1684
       8    H5      22.162613   17.675897   22.973108 H          1 MOL1         0.0833
       9    H6      21.140039   16.327840   22.522893 H          1 MOL1         0.0833
      10    C4      20.072966   17.883070   23.572872 C.3        1 MOL1        -0.1760
      11    H7      19.095206   17.874371   23.075325 H          1 MOL1         0.0833
      12    H8      19.999002   17.123574   24.362802 H          1 MOL1         0.0833
      13    C5      20.357517   19.263552   24.221890 C.3        1 MOL1         0.1219
      14    H9      21.358862   19.611572   23.932425 H          1 MOL1         0.0790
      15    C6      19.331932   20.352546   23.834903 C.3        1 MOL1        -0.1760
      16    H10     18.324532   19.919298   23.790019 H          1 MOL1         0.0833
      17    H11     19.297487   21.100637   24.638353 H          1 MOL1         0.0833
      18    C7      19.644155   21.103280   22.516727 C.3        1 MOL1        -0.1684
      19    H12     20.582314   21.665563   22.619025 H          1 MOL1         0.0833
      20    H13     18.860407   21.859849   22.374263 H          1 MOL1         0.0833
      21    C8      19.693593   20.218817   21.247819 C.3        1 MOL1        -0.1684
      22    H14     19.505559   20.873335   20.385559 H          1 MOL1         0.0833
      23    H15     18.863584   19.499987   21.250787 H          1 MOL1         0.0833
      24    O1      20.329140   19.112687   25.636779 O.3        1 MOL1        -0.5508
      25    H16     21.026857   18.462473   25.862712 H          1 MOL1         0.3780
@<TRIPOS>BOND
    1     1     2    1
    2     1     3    1
    3     1     4    1
    4     4     5    1
    5     4     6    1
    6     4     7    1
    7     7     8    1
    8     7     9    1
    9     7    10    1
   10    10    11    1
   11    10    12    1
   12    10    13    1
   13    13    14    1
   14    13    15    1
   15    15    16    1
   16    15    17    1
   17    15    18    1
   18    18    19    1
   19    18    20    1
   20     1    21    1
   21    18    21    1
   22    21    22    1
   23    21    23    1
   24    13    24    1
   25    24    25    1
@<TRIPOS>SUBSTRUCTURE
       1 MOL1            1 RESIDUE      1      MOL     
@<SCITEGIC>MOL_PROPERTY
VM2 Rank
SciTegic.value.IntegerValue
25

@<SCITEGIC>MOL_PROPERTY
Conf_Id
SciTegic.value.IntegerValue
272

@<SCITEGIC>MOL_PROPERTY
Probability
SciTegic.value.DoubleValue
1.51

@<SCITEGIC>MOL_PROPERTY
Sum Probability
SciTegic.value.DoubleValue
75.09

@<SCITEGIC>MOL_PROPERTY
Delta G
SciTegic.value.DoubleValue
0.702

@<SCITEGIC>MOL_PROPERTY
G
SciTegic.value.DoubleValue
62.778

@<SCITEGIC>MOL_PROPERTY
E
SciTegic.value.DoubleValue
30.568

@<SCITEGIC>MOL_PROPERTY
-TS
SciTegic.value.DoubleValue
32.210

@<SCITEGIC>MOL_PROPERTY
U+W
SciTegic.value.DoubleValue
10.001

@<SCITEGIC>MOL_PROPERTY
U
SciTegic.value.DoubleValue
12.140

@<SCITEGIC>MOL_PROPERTY
W
SciTegic.value.DoubleValue
-2.139

@<SCITEGIC>MOL_PROPERTY
W(PB)
SciTegic.value.DoubleValue
-4.284

@<SCITEGIC>MOL_PROPERTY
W(SA)
SciTegic.value.DoubleValue
2.144

@<SCITEGIC>MOL_PROPERTY
Valence
SciTegic.value.DoubleValue
18.248

@<SCITEGIC>MOL_PROPERTY
Coulomb
SciTegic.value.DoubleValue
-8.720

@<SCITEGIC>MOL_PROPERTY
VdW
SciTegic.value.DoubleValue
2.612

@<SCITEGIC>MOL_PROPERTY
VdW6
SciTegic.value.DoubleValue
-11.959

@<SCITEGIC>MOL_PROPERTY
VdW12
SciTegic.value.DoubleValue
14.570

@<SCITEGIC>MOL_PROPERTY
Bond
SciTegic.value.DoubleValue
0.338

@<SCITEGIC>MOL_PROPERTY
Angle
SciTegic.value.DoubleValue
3.151

@<SCITEGIC>MOL_PROPERTY
Pdih
SciTegic.value.DoubleValue
14.759

@<SCITEGIC>MOL_PROPERTY
Idih
SciTegic.value.DoubleValue
0.000

@<SCITEGIC>MOL_PROPERTY
Tether
SciTegic.value.DoubleValue
0.000

@<TRIPOS>MOLECULE
guest-s17_vm2.mol2 : vm2 ligand conformer 26
          25          25           1
SMALL
USER_CHARGES
 
@<TRIPOS>ATOM
       1    C1      19.706357   18.990769   20.935776 C.3        1 MOL1        -0.1684
       2    H1      18.875859   18.677698   21.578726 H          1 MOL1         0.0833
       3    H2      19.330837   18.853616   19.912638 H          1 MOL1         0.0833
       4    C2      20.915587   18.039017   21.113504 C.3        1 MOL1        -0.1684
       5    H3      20.582652   17.029198   20.837264 H          1 MOL1         0.0833
       6    H4      21.695509   18.303669   20.386747 H          1 MOL1         0.0833
       7    C3      21.550110   17.958924   22.525483 C.3        1 MOL1        -0.1684
       8    H5      22.258433   18.781455   22.676200 H          1 MOL1         0.0833
       9    H6      22.171797   17.053424   22.549939 H          1 MOL1         0.0833
      10    C4      20.541121   17.886303   23.702759 C.3        1 MOL1        -0.1760
      11    H7      19.575331   17.486106   23.370578 H          1 MOL1         0.0833
      12    H8      20.929399   17.148802   24.417375 H          1 MOL1         0.0833
      13    C5      20.341624   19.215463   24.474073 C.3        1 MOL1         0.1219
      14    H9      21.329658   19.586835   24.782053 H          1 MOL1         0.0790
      15    C6      19.616629   20.352260   23.711195 C.3        1 MOL1        -0.1760
      16    H10     18.623976   20.022179   23.381838 H          1 MOL1         0.0833
      17    H11     19.427509   21.154324   24.436961 H          1 MOL1         0.0833
      18    C7      20.420630   20.970785   22.536213 C.3        1 MOL1        -0.1684
      19    H12     21.495737   20.818371   22.684072 H          1 MOL1         0.0833
      20    H13     20.290894   22.061226   22.568653 H          1 MOL1         0.0833
      21    C8      19.993466   20.501613   21.121883 C.3        1 MOL1        -0.1684
      22    H14     20.754489   20.818644   20.396060 H          1 MOL1         0.0833
      23    H15     19.078762   21.045883   20.849906 H          1 MOL1         0.0833
      24    O1      19.578476   18.927866   25.639113 O.3        1 MOL1        -0.5508
      25    H16     20.080144   18.257272   26.147817 H          1 MOL1         0.3780
@<TRIPOS>BOND
    1     1     2    1
    2     1     3    1
    3     1     4    1
    4     4     5    1
    5     4     6    1
    6     4     7    1
    7     7     8    1
    8     7     9    1
    9     7    10    1
   10    10    11    1
   11    10    12    1
   12    10    13    1
   13    13    14    1
   14    13    15    1
   15    15    16    1
   16    15    17    1
   17    15    18    1
   18    18    19    1
   19    18    20    1
   20     1    21    1
   21    18    21    1
   22    21    22    1
   23    21    23    1
   24    13    24    1
   25    24    25    1
@<TRIPOS>SUBSTRUCTURE
       1 MOL1            1 RESIDUE      1      MOL     
@<SCITEGIC>MOL_PROPERTY
VM2 Rank
SciTegic.value.IntegerValue
26

@<SCITEGIC>MOL_PROPERTY
Conf_Id
SciTegic.value.IntegerValue
1692

@<SCITEGIC>MOL_PROPERTY
Probability
SciTegic.value.DoubleValue
1.33

@<SCITEGIC>MOL_PROPERTY
Sum Probability
SciTegic.value.DoubleValue
76.43

@<SCITEGIC>MOL_PROPERTY
Delta G
SciTegic.value.DoubleValue
0.777

@<SCITEGIC>MOL_PROPERTY
G
SciTegic.value.DoubleValue
62.852

@<SCITEGIC>MOL_PROPERTY
E
SciTegic.value.DoubleValue
30.198

@<SCITEGIC>MOL_PROPERTY
-TS
SciTegic.value.DoubleValue
32.655

@<SCITEGIC>MOL_PROPERTY
U+W
SciTegic.value.DoubleValue
9.630

@<SCITEGIC>MOL_PROPERTY
U
SciTegic.value.DoubleValue
11.876

@<SCITEGIC>MOL_PROPERTY
W
SciTegic.value.DoubleValue
-2.246

@<SCITEGIC>MOL_PROPERTY
W(PB)
SciTegic.value.DoubleValue
-4.376

@<SCITEGIC>MOL_PROPERTY
W(SA)
SciTegic.value.DoubleValue
2.130

@<SCITEGIC>MOL_PROPERTY
Valence
SciTegic.value.DoubleValue
17.153

@<SCITEGIC>MOL_PROPERTY
Coulomb
SciTegic.value.DoubleValue
-7.966

@<SCITEGIC>MOL_PROPERTY
VdW
SciTegic.value.DoubleValue
2.689

@<SCITEGIC>MOL_PROPERTY
VdW6
SciTegic.value.DoubleValue
-12.458

@<SCITEGIC>MOL_PROPERTY
VdW12
SciTegic.value.DoubleValue
15.147

@<SCITEGIC>MOL_PROPERTY
Bond
SciTegic.value.DoubleValue
0.421

@<SCITEGIC>MOL_PROPERTY
Angle
SciTegic.value.DoubleValue
5.258

@<SCITEGIC>MOL_PROPERTY
Pdih
SciTegic.value.DoubleValue
11.475

@<SCITEGIC>MOL_PROPERTY
Idih
SciTegic.value.DoubleValue
0.000

@<SCITEGIC>MOL_PROPERTY
Tether
SciTegic.value.DoubleValue
0.000

@<TRIPOS>MOLECULE
guest-s17_vm2.mol2 : vm2 ligand conformer 27
          25          25           1
SMALL
USER_CHARGES
 
@<TRIPOS>ATOM
       1    C1      19.707285   18.990720   20.935908 C.3        1 MOL1        -0.1684
       2    H1      18.876319   18.676908   21.577732 H          1 MOL1         0.0833
       3    H2      19.332747   18.853834   19.912357 H          1 MOL1         0.0833
       4    C2      20.916923   18.039494   21.113861 C.3        1 MOL1        -0.1684
       5    H3      20.584923   17.029835   20.835894 H          1 MOL1         0.0833
       6    H4      21.697506   18.305459   20.388284 H          1 MOL1         0.0833
       7    C3      21.550047   17.957755   22.526390 C.3        1 MOL1        -0.1684
       8    H5      22.259148   18.779385   22.678591 H          1 MOL1         0.0833
       9    H6      22.170496   17.051429   22.551263 H          1 MOL1         0.0833
      10    C4      20.539714   17.885791   23.702327 C.3        1 MOL1        -0.1760
      11    H7      19.577130   17.479769   23.368622 H          1 MOL1         0.0833
      12    H8      20.929311   17.154021   24.422719 H          1 MOL1         0.0833
      13    C5      20.339375   19.215456   24.471953 C.3        1 MOL1         0.1219
      14    H9      21.327812   19.584982   24.780247 H          1 MOL1         0.0790
      15    C6      19.614410   20.353732   23.710888 C.3        1 MOL1        -0.1760
      16    H10     18.621398   20.028859   23.377477 H          1 MOL1         0.0833
      17    H11     19.428542   21.156874   24.436598 H          1 MOL1         0.0833
      18    C7      20.420322   20.970868   22.536825 C.3        1 MOL1        -0.1684
      19    H12     21.495148   20.816990   22.685594 H          1 MOL1         0.0833
      20    H13     20.292089   22.061532   22.568634 H          1 MOL1         0.0833
      21    C8      19.993693   20.501649   21.122407 C.3        1 MOL1        -0.1684
      22    H14     20.754993   20.818912   20.396960 H          1 MOL1         0.0833
      23    H15     19.079050   21.045780   20.849914 H          1 MOL1         0.0833
      24    O1      19.582231   18.927533   25.639441 O.3        1 MOL1        -0.5508
      25    H16     18.711764   18.602227   25.330818 H          1 MOL1         0.3780
@<TRIPOS>BOND
    1     1     2    1
    2     1     3    1
    3     1     4    1
    4     4     5    1
    5     4     6    1
    6     4     7    1
    7     7     8    1
    8     7     9    1
    9     7    10    1
   10    10    11    1
   11    10    12    1
   12    10    13    1
   13    13    14    1
   14    13    15    1
   15    15    16    1
   16    15    17    1
   17    15    18    1
   18    18    19    1
   19    18    20    1
   20     1    21    1
   21    18    21    1
   22    21    22    1
   23    21    23    1
   24    13    24    1
   25    24    25    1
@<TRIPOS>SUBSTRUCTURE
       1 MOL1            1 RESIDUE      1      MOL     
@<SCITEGIC>MOL_PROPERTY
VM2 Rank
SciTegic.value.IntegerValue
27

@<SCITEGIC>MOL_PROPERTY
Conf_Id
SciTegic.value.IntegerValue
1452

@<SCITEGIC>MOL_PROPERTY
Probability
SciTegic.value.DoubleValue
1.33

@<SCITEGIC>MOL_PROPERTY
Sum Probability
SciTegic.value.DoubleValue
77.76

@<SCITEGIC>MOL_PROPERTY
Delta G
SciTegic.value.DoubleValue
0.777

@<SCITEGIC>MOL_PROPERTY
G
SciTegic.value.DoubleValue
62.852

@<SCITEGIC>MOL_PROPERTY
E
SciTegic.value.DoubleValue
30.210

@<SCITEGIC>MOL_PROPERTY
-TS
SciTegic.value.DoubleValue
32.642

@<SCITEGIC>MOL_PROPERTY
U+W
SciTegic.value.DoubleValue
9.643

@<SCITEGIC>MOL_PROPERTY
U
SciTegic.value.DoubleValue
11.413

@<SCITEGIC>MOL_PROPERTY
W
SciTegic.value.DoubleValue
-1.770

@<SCITEGIC>MOL_PROPERTY
W(PB)
SciTegic.value.DoubleValue
-3.908

@<SCITEGIC>MOL_PROPERTY
W(SA)
SciTegic.value.DoubleValue
2.138

@<SCITEGIC>MOL_PROPERTY
Valence
SciTegic.value.DoubleValue
17.496

@<SCITEGIC>MOL_PROPERTY
Coulomb
SciTegic.value.DoubleValue
-8.736

@<SCITEGIC>MOL_PROPERTY
VdW
SciTegic.value.DoubleValue
2.653

@<SCITEGIC>MOL_PROPERTY
VdW6
SciTegic.value.DoubleValue
-12.485

@<SCITEGIC>MOL_PROPERTY
VdW12
SciTegic.value.DoubleValue
15.138

@<SCITEGIC>MOL_PROPERTY
Bond
SciTegic.value.DoubleValue
0.414

@<SCITEGIC>MOL_PROPERTY
Angle
SciTegic.value.DoubleValue
5.295

@<SCITEGIC>MOL_PROPERTY
Pdih
SciTegic.value.DoubleValue
11.787

@<SCITEGIC>MOL_PROPERTY
Idih
SciTegic.value.DoubleValue
0.000

@<SCITEGIC>MOL_PROPERTY
Tether
SciTegic.value.DoubleValue
0.000

@<TRIPOS>MOLECULE
guest-s17_vm2.mol2 : vm2 ligand conformer 28
          25          25           1
SMALL
USER_CHARGES
 
@<TRIPOS>ATOM
       1    C1      21.073293   19.515314   21.014793 C.3        1 MOL1        -0.1684
       2    H1      21.464955   19.568409   19.989604 H          1 MOL1         0.0833
       3    H2      21.924470   19.766715   21.661056 H          1 MOL1         0.0833
       4    C2      20.588785   18.058998   21.250111 C.3        1 MOL1        -0.1684
       5    H3      19.492718   17.994090   21.242157 H          1 MOL1         0.0833
       6    H4      20.919713   17.459550   20.390815 H          1 MOL1         0.0833
       7    C3      21.158297   17.390693   22.524424 C.3        1 MOL1        -0.1684
       8    H5      22.221437   17.643154   22.637422 H          1 MOL1         0.0833
       9    H6      21.126899   16.301917   22.381122 H          1 MOL1         0.0833
      10    C4      20.397533   17.709505   23.835249 C.3        1 MOL1        -0.1760
      11    H7      19.374342   17.316311   23.780001 H          1 MOL1         0.0833
      12    H8      20.887186   17.149521   24.643342 H          1 MOL1         0.0833
      13    C5      20.367548   19.204999   24.222662 C.3        1 MOL1         0.1219
      14    H9      21.330223   19.655131   23.942954 H          1 MOL1         0.0790
      15    C6      19.206482   19.994908   23.562441 C.3        1 MOL1        -0.1760
      16    H10     18.505432   19.318694   23.057559 H          1 MOL1         0.0833
      17    H11     18.615405   20.486594   24.346767 H          1 MOL1         0.0833
      18    C7      19.679998   21.088005   22.575400 C.3        1 MOL1        -0.1684
      19    H12     20.563692   21.602519   22.976937 H          1 MOL1         0.0833
      20    H13     18.894974   21.853843   22.510217 H          1 MOL1         0.0833
      21    C8      19.964210   20.588052   21.138646 C.3        1 MOL1        -0.1684
      22    H14     20.265751   21.459147   20.540887 H          1 MOL1         0.0833
      23    H15     19.035932   20.222929   20.678566 H          1 MOL1         0.0833
      24    O1      20.227854   19.292527   25.636274 O.3        1 MOL1        -0.5508
      25    H16     20.271176   20.245053   25.863101 H          1 MOL1         0.3780
@<TRIPOS>BOND
    1     1     2    1
    2     1     3    1
    3     1     4    1
    4     4     5    1
    5     4     6    1
    6     4     7    1
    7     7     8    1
    8     7     9    1
    9     7    10    1
   10    10    11    1
   11    10    12    1
   12    10    13    1
   13    13    14    1
   14    13    15    1
   15    15    16    1
   16    15    17    1
   17    15    18    1
   18    18    19    1
   19    18    20    1
   20     1    21    1
   21    18    21    1
   22    21    22    1
   23    21    23    1
   24    13    24    1
   25    24    25    1
@<TRIPOS>SUBSTRUCTURE
       1 MOL1            1 RESIDUE      1      MOL     
@<SCITEGIC>MOL_PROPERTY
VM2 Rank
SciTegic.value.IntegerValue
28

@<SCITEGIC>MOL_PROPERTY
Conf_Id
SciTegic.value.IntegerValue
488

@<SCITEGIC>MOL_PROPERTY
Probability
SciTegic.value.DoubleValue
1.33

@<SCITEGIC>MOL_PROPERTY
Sum Probability
SciTegic.value.DoubleValue
79.08

@<SCITEGIC>MOL_PROPERTY
Delta G
SciTegic.value.DoubleValue
0.779

@<SCITEGIC>MOL_PROPERTY
G
SciTegic.value.DoubleValue
62.854

@<SCITEGIC>MOL_PROPERTY
E
SciTegic.value.DoubleValue
30.645

@<SCITEGIC>MOL_PROPERTY
-TS
SciTegic.value.DoubleValue
32.210

@<SCITEGIC>MOL_PROPERTY
U+W
SciTegic.value.DoubleValue
10.077

@<SCITEGIC>MOL_PROPERTY
U
SciTegic.value.DoubleValue
12.140

@<SCITEGIC>MOL_PROPERTY
W
SciTegic.value.DoubleValue
-2.063

@<SCITEGIC>MOL_PROPERTY
W(PB)
SciTegic.value.DoubleValue
-4.217

@<SCITEGIC>MOL_PROPERTY
W(SA)
SciTegic.value.DoubleValue
2.155

@<SCITEGIC>MOL_PROPERTY
Valence
SciTegic.value.DoubleValue
18.247

@<SCITEGIC>MOL_PROPERTY
Coulomb
SciTegic.value.DoubleValue
-8.720

@<SCITEGIC>MOL_PROPERTY
VdW
SciTegic.value.DoubleValue
2.612

@<SCITEGIC>MOL_PROPERTY
VdW6
SciTegic.value.DoubleValue
-11.959

@<SCITEGIC>MOL_PROPERTY
VdW12
SciTegic.value.DoubleValue
14.571

@<SCITEGIC>MOL_PROPERTY
Bond
SciTegic.value.DoubleValue
0.338

@<SCITEGIC>MOL_PROPERTY
Angle
SciTegic.value.DoubleValue
3.150

@<SCITEGIC>MOL_PROPERTY
Pdih
SciTegic.value.DoubleValue
14.759

@<SCITEGIC>MOL_PROPERTY
Idih
SciTegic.value.DoubleValue
0.000

@<SCITEGIC>MOL_PROPERTY
Tether
SciTegic.value.DoubleValue
0.000

@<TRIPOS>MOLECULE
guest-s17_vm2.mol2 : vm2 ligand conformer 29
          25          25           1
SMALL
USER_CHARGES
 
@<TRIPOS>ATOM
       1    C1      21.053514   19.512006   21.002352 C.3        1 MOL1        -0.1684
       2    H1      21.360773   19.738043   19.971948 H          1 MOL1         0.0833
       3    H2      21.846581   19.928490   21.637182 H          1 MOL1         0.0833
       4    C2      21.003905   17.971214   21.139189 C.3        1 MOL1        -0.1684
       5    H3      20.076299   17.583770   20.696379 H          1 MOL1         0.0833
       6    H4      21.817505   17.550233   20.532668 H          1 MOL1         0.0833
       7    C3      21.170022   17.426919   22.578065 C.3        1 MOL1        -0.1684
       8    H5      22.165709   17.682457   22.965637 H          1 MOL1         0.0833
       9    H6      21.146673   16.330017   22.521813 H          1 MOL1         0.0833
      10    C4      20.079882   17.880297   23.578150 C.3        1 MOL1        -0.1760
      11    H7      19.096595   17.859885   23.092256 H          1 MOL1         0.0833
      12    H8      20.025556   17.124506   24.373468 H          1 MOL1         0.0833
      13    C5      20.357989   19.262979   24.225349 C.3        1 MOL1         0.1219
      14    H9      21.361659   19.608043   23.940307 H          1 MOL1         0.0790
      15    C6      19.331167   20.349554   23.831882 C.3        1 MOL1        -0.1760
      16    H10     18.326225   19.911510   23.775673 H          1 MOL1         0.0833
      17    H11     19.281889   21.099180   24.632754 H          1 MOL1         0.0833
      18    C7      19.650828   21.103253   22.517714 C.3        1 MOL1        -0.1684
      19    H12     20.592048   21.659926   22.622643 H          1 MOL1         0.0833
      20    H13     18.871562   21.864702   22.376318 H          1 MOL1         0.0833
      21    C8      19.695048   20.222413   21.246533 C.3        1 MOL1        -0.1684
      22    H14     19.508531   20.879996   20.386268 H          1 MOL1         0.0833
      23    H15     18.862381   19.506571   21.248900 H          1 MOL1         0.0833
      24    O1      20.321646   19.114364   25.640765 O.3        1 MOL1        -0.5508
      25    H16     20.571322   19.981658   26.022592 H          1 MOL1         0.3780
@<TRIPOS>BOND
    1     1     2    1
    2     1     3    1
    3     1     4    1
    4     4     5    1
    5     4     6    1
    6     4     7    1
    7     7     8    1
    8     7     9    1
    9     7    10    1
   10    10    11    1
   11    10    12    1
   12    10    13    1
   13    13    14    1
   14    13    15    1
   15    15    16    1
   16    15    17    1
   17    15    18    1
   18    18    19    1
   19    18    20    1
   20     1    21    1
   21    18    21    1
   22    21    22    1
   23    21    23    1
   24    13    24    1
   25    24    25    1
@<TRIPOS>SUBSTRUCTURE
       1 MOL1            1 RESIDUE      1      MOL     
@<SCITEGIC>MOL_PROPERTY
VM2 Rank
SciTegic.value.IntegerValue
29

@<SCITEGIC>MOL_PROPERTY
Conf_Id
SciTegic.value.IntegerValue
474

@<SCITEGIC>MOL_PROPERTY
Probability
SciTegic.value.DoubleValue
1.27

@<SCITEGIC>MOL_PROPERTY
Sum Probability
SciTegic.value.DoubleValue
80.36

@<SCITEGIC>MOL_PROPERTY
Delta G
SciTegic.value.DoubleValue
0.803

@<SCITEGIC>MOL_PROPERTY
G
SciTegic.value.DoubleValue
62.878

@<SCITEGIC>MOL_PROPERTY
E
SciTegic.value.DoubleValue
30.759

@<SCITEGIC>MOL_PROPERTY
-TS
SciTegic.value.DoubleValue
32.119

@<SCITEGIC>MOL_PROPERTY
U+W
SciTegic.value.DoubleValue
10.192

@<SCITEGIC>MOL_PROPERTY
U
SciTegic.value.DoubleValue
12.424

@<SCITEGIC>MOL_PROPERTY
W
SciTegic.value.DoubleValue
-2.232

@<SCITEGIC>MOL_PROPERTY
W(PB)
SciTegic.value.DoubleValue
-4.375

@<SCITEGIC>MOL_PROPERTY
W(SA)
SciTegic.value.DoubleValue
2.143

@<SCITEGIC>MOL_PROPERTY
Valence
SciTegic.value.DoubleValue
18.277

@<SCITEGIC>MOL_PROPERTY
Coulomb
SciTegic.value.DoubleValue
-8.429

@<SCITEGIC>MOL_PROPERTY
VdW
SciTegic.value.DoubleValue
2.575

@<SCITEGIC>MOL_PROPERTY
VdW6
SciTegic.value.DoubleValue
-11.900

@<SCITEGIC>MOL_PROPERTY
VdW12
SciTegic.value.DoubleValue
14.476

@<SCITEGIC>MOL_PROPERTY
Bond
SciTegic.value.DoubleValue
0.331

@<SCITEGIC>MOL_PROPERTY
Angle
SciTegic.value.DoubleValue
3.180

@<SCITEGIC>MOL_PROPERTY
Pdih
SciTegic.value.DoubleValue
14.767

@<SCITEGIC>MOL_PROPERTY
Idih
SciTegic.value.DoubleValue
0.000

@<SCITEGIC>MOL_PROPERTY
Tether
SciTegic.value.DoubleValue
0.000

@<TRIPOS>MOLECULE
guest-s17_vm2.mol2 : vm2 ligand conformer 30
          25          25           1
SMALL
USER_CHARGES
 
@<TRIPOS>ATOM
       1    C1      21.070952   19.514223   21.009955 C.3        1 MOL1        -0.1684
       2    H1      21.458783   19.567233   19.983304 H          1 MOL1         0.0833
       3    H2      21.923385   19.769118   21.653236 H          1 MOL1         0.0833
       4    C2      20.591444   18.057257   21.248819 C.3        1 MOL1        -0.1684
       5    H3      19.495533   17.988843   21.240521 H          1 MOL1         0.0833
       6    H4      20.925111   17.456519   20.391472 H          1 MOL1         0.0833
       7    C3      21.162140   17.394944   22.525292 C.3        1 MOL1        -0.1684
       8    H5      22.223686   17.653032   22.640617 H          1 MOL1         0.0833
       9    H6      21.136767   16.305813   22.383160 H          1 MOL1         0.0833
      10    C4      20.394521   17.711107   23.832233 C.3        1 MOL1        -0.1760
      11    H7      19.369663   17.323524   23.765940 H          1 MOL1         0.0833
      12    H8      20.874610   17.139492   24.637548 H          1 MOL1         0.0833
      13    C5      20.367811   19.205763   24.226090 C.3        1 MOL1         0.1219
      14    H9      21.330164   19.659205   23.950526 H          1 MOL1         0.0790
      15    C6      19.209965   20.002210   23.567997 C.3        1 MOL1        -0.1760
      16    H10     18.496254   19.330799   23.074860 H          1 MOL1         0.0833
      17    H11     18.635897   20.505221   24.358016 H          1 MOL1         0.0833
      18    C7      19.683945   21.088182   22.572943 C.3        1 MOL1        -0.1684
      19    H12     20.571553   21.599934   22.969385 H          1 MOL1         0.0833
      20    H13     18.902236   21.857467   22.509424 H          1 MOL1         0.0833
      21    C8      19.958836   20.583065   21.136451 C.3        1 MOL1        -0.1684
      22    H14     20.253628   21.452649   20.533161 H          1 MOL1         0.0833
      23    H15     19.028443   20.213383   20.684396 H          1 MOL1         0.0833
      24    O1      20.224387   19.286249   25.640219 O.3        1 MOL1        -0.5508
      25    H16     21.004783   18.839228   26.029425 H          1 MOL1         0.3780
@<TRIPOS>BOND
    1     1     2    1
    2     1     3    1
    3     1     4    1
    4     4     5    1
    5     4     6    1
    6     4     7    1
    7     7     8    1
    8     7     9    1
    9     7    10    1
   10    10    11    1
   11    10    12    1
   12    10    13    1
   13    13    14    1
   14    13    15    1
   15    15    16    1
   16    15    17    1
   17    15    18    1
   18    18    19    1
   19    18    20    1
   20     1    21    1
   21    18    21    1
   22    21    22    1
   23    21    23    1
   24    13    24    1
   25    24    25    1
@<TRIPOS>SUBSTRUCTURE
       1 MOL1            1 RESIDUE      1      MOL     
@<SCITEGIC>MOL_PROPERTY
VM2 Rank
SciTegic.value.IntegerValue
30

@<SCITEGIC>MOL_PROPERTY
Conf_Id
SciTegic.value.IntegerValue
1555

@<SCITEGIC>MOL_PROPERTY
Probability
SciTegic.value.DoubleValue
1.26

@<SCITEGIC>MOL_PROPERTY
Sum Probability
SciTegic.value.DoubleValue
81.62

@<SCITEGIC>MOL_PROPERTY
Delta G
SciTegic.value.DoubleValue
0.810

@<SCITEGIC>MOL_PROPERTY
G
SciTegic.value.DoubleValue
62.885

@<SCITEGIC>MOL_PROPERTY
E
SciTegic.value.DoubleValue
30.766

@<SCITEGIC>MOL_PROPERTY
-TS
SciTegic.value.DoubleValue
32.119

@<SCITEGIC>MOL_PROPERTY
U+W
SciTegic.value.DoubleValue
10.198

@<SCITEGIC>MOL_PROPERTY
U
SciTegic.value.DoubleValue
12.424

@<SCITEGIC>MOL_PROPERTY
W
SciTegic.value.DoubleValue
-2.225

@<SCITEGIC>MOL_PROPERTY
W(PB)
SciTegic.value.DoubleValue
-4.391

@<SCITEGIC>MOL_PROPERTY
W(SA)
SciTegic.value.DoubleValue
2.165

@<SCITEGIC>MOL_PROPERTY
Valence
SciTegic.value.DoubleValue
18.277

@<SCITEGIC>MOL_PROPERTY
Coulomb
SciTegic.value.DoubleValue
-8.429

@<SCITEGIC>MOL_PROPERTY
VdW
SciTegic.value.DoubleValue
2.576

@<SCITEGIC>MOL_PROPERTY
VdW6
SciTegic.value.DoubleValue
-11.900

@<SCITEGIC>MOL_PROPERTY
VdW12
SciTegic.value.DoubleValue
14.476

@<SCITEGIC>MOL_PROPERTY
Bond
SciTegic.value.DoubleValue
0.331

@<SCITEGIC>MOL_PROPERTY
Angle
SciTegic.value.DoubleValue
3.180

@<SCITEGIC>MOL_PROPERTY
Pdih
SciTegic.value.DoubleValue
14.766

@<SCITEGIC>MOL_PROPERTY
Idih
SciTegic.value.DoubleValue
0.000

@<SCITEGIC>MOL_PROPERTY
Tether
SciTegic.value.DoubleValue
0.000

@<TRIPOS>MOLECULE
guest-s17_vm2.mol2 : vm2 ligand conformer 31
          25          25           1
SMALL
USER_CHARGES
 
@<TRIPOS>ATOM
       1    C1      19.706588   18.990027   20.935781 C.3        1 MOL1        -0.1684
       2    H1      18.876460   18.675991   21.578738 H          1 MOL1         0.0833
       3    H2      19.331129   18.852679   19.912645 H          1 MOL1         0.0833
       4    C2      20.916676   18.039305   21.113358 C.3        1 MOL1        -0.1684
       5    H3      20.584684   17.029485   20.835999 H          1 MOL1         0.0833
       6    H4      21.696870   18.305192   20.387353 H          1 MOL1         0.0833
       7    C3      21.550230   17.958054   22.525779 C.3        1 MOL1        -0.1684
       8    H5      22.260461   18.778818   22.676992 H          1 MOL1         0.0833
       9    H6      22.169454   17.050939   22.551303 H          1 MOL1         0.0833
      10    C4      20.540463   17.888390   23.702677 C.3        1 MOL1        -0.1760
      11    H7      19.574736   17.486479   23.373088 H          1 MOL1         0.0833
      12    H8      20.926936   17.155318   24.423131 H          1 MOL1         0.0833
      13    C5      20.341104   19.216962   24.474082 C.3        1 MOL1         0.1219
      14    H9      21.330446   19.584866   24.782029 H          1 MOL1         0.0790
      15    C6      19.615794   20.354274   23.711302 C.3        1 MOL1        -0.1760
      16    H10     18.624211   20.022851   23.379379 H          1 MOL1         0.0833
      17    H11     19.425120   21.160911   24.431250 H          1 MOL1         0.0833
      18    C7      20.421102   20.970038   22.535878 C.3        1 MOL1        -0.1684
      19    H12     21.495938   20.815037   22.683174 H          1 MOL1         0.0833
      20    H13     20.294295   22.060891   22.567238 H          1 MOL1         0.0833
      21    C8      19.992376   20.501086   21.122020 C.3        1 MOL1        -0.1684
      22    H14     20.752337   20.818872   20.395409 H          1 MOL1         0.0833
      23    H15     19.076946   21.044721   20.851208 H          1 MOL1         0.0833
      24    O1      19.579668   18.924864   25.639123 O.3        1 MOL1        -0.5508
      25    H16     19.517913   19.756890   26.153000 H          1 MOL1         0.3780
@<TRIPOS>BOND
    1     1     2    1
    2     1     3    1
    3     1     4    1
    4     4     5    1
    5     4     6    1
    6     4     7    1
    7     7     8    1
    8     7     9    1
    9     7    10    1
   10    10    11    1
   11    10    12    1
   12    10    13    1
   13    13    14    1
   14    13    15    1
   15    15    16    1
   16    15    17    1
   17    15    18    1
   18    18    19    1
   19    18    20    1
   20     1    21    1
   21    18    21    1
   22    21    22    1
   23    21    23    1
   24    13    24    1
   25    24    25    1
@<TRIPOS>SUBSTRUCTURE
       1 MOL1            1 RESIDUE      1      MOL     
@<SCITEGIC>MOL_PROPERTY
VM2 Rank
SciTegic.value.IntegerValue
31

@<SCITEGIC>MOL_PROPERTY
Conf_Id
SciTegic.value.IntegerValue
24

@<SCITEGIC>MOL_PROPERTY
Probability
SciTegic.value.DoubleValue
1.23

@<SCITEGIC>MOL_PROPERTY
Sum Probability
SciTegic.value.DoubleValue
82.85

@<SCITEGIC>MOL_PROPERTY
Delta G
SciTegic.value.DoubleValue
0.824

@<SCITEGIC>MOL_PROPERTY
G
SciTegic.value.DoubleValue
62.899

@<SCITEGIC>MOL_PROPERTY
E
SciTegic.value.DoubleValue
30.245

@<SCITEGIC>MOL_PROPERTY
-TS
SciTegic.value.DoubleValue
32.654

@<SCITEGIC>MOL_PROPERTY
U+W
SciTegic.value.DoubleValue
9.678

@<SCITEGIC>MOL_PROPERTY
U
SciTegic.value.DoubleValue
11.876

@<SCITEGIC>MOL_PROPERTY
W
SciTegic.value.DoubleValue
-2.199

@<SCITEGIC>MOL_PROPERTY
W(PB)
SciTegic.value.DoubleValue
-4.335

@<SCITEGIC>MOL_PROPERTY
W(SA)
SciTegic.value.DoubleValue
2.137

@<SCITEGIC>MOL_PROPERTY
Valence
SciTegic.value.DoubleValue
17.153

@<SCITEGIC>MOL_PROPERTY
Coulomb
SciTegic.value.DoubleValue
-7.966

@<SCITEGIC>MOL_PROPERTY
VdW
SciTegic.value.DoubleValue
2.689

@<SCITEGIC>MOL_PROPERTY
VdW6
SciTegic.value.DoubleValue
-12.458

@<SCITEGIC>MOL_PROPERTY
VdW12
SciTegic.value.DoubleValue
15.147

@<SCITEGIC>MOL_PROPERTY
Bond
SciTegic.value.DoubleValue
0.421

@<SCITEGIC>MOL_PROPERTY
Angle
SciTegic.value.DoubleValue
5.258

@<SCITEGIC>MOL_PROPERTY
Pdih
SciTegic.value.DoubleValue
11.475

@<SCITEGIC>MOL_PROPERTY
Idih
SciTegic.value.DoubleValue
0.000

@<SCITEGIC>MOL_PROPERTY
Tether
SciTegic.value.DoubleValue
0.000

@<TRIPOS>MOLECULE
guest-s17_vm2.mol2 : vm2 ligand conformer 32
          25          25           1
SMALL
USER_CHARGES
 
@<TRIPOS>ATOM
       1    C1      21.051426   19.511212   20.999365 C.3        1 MOL1        -0.1684
       2    H1      21.846344   19.927844   21.631874 H          1 MOL1         0.0833
       3    H2      21.356103   19.735820   19.967883 H          1 MOL1         0.0833
       4    C2      21.001328   17.970844   21.138473 C.3        1 MOL1        -0.1684
       5    H3      20.072241   17.582875   20.699239 H          1 MOL1         0.0833
       6    H4      21.812941   17.548773   20.530039 H          1 MOL1         0.0833
       7    C3      21.172471   17.429406   22.577666 C.3        1 MOL1        -0.1684
       8    H5      22.167849   17.689735   22.962959 H          1 MOL1         0.0833
       9    H6      21.154046   16.332328   22.522447 H          1 MOL1         0.0833
      10    C4      20.082183   17.878687   23.579279 C.3        1 MOL1        -0.1760
      11    H7      19.098991   17.856455   23.092753 H          1 MOL1         0.0833
      12    H8      20.032930   17.118910   24.371046 H          1 MOL1         0.0833
      13    C5      20.357544   19.261881   24.226947 C.3        1 MOL1         0.1219
      14    H9      21.362414   19.608367   23.948482 H          1 MOL1         0.0790
      15    C6      19.333479   20.350267   23.832241 C.3        1 MOL1        -0.1760
      16    H10     18.326046   19.918107   23.776091 H          1 MOL1         0.0833
      17    H11     19.292763   21.100228   24.633889 H          1 MOL1         0.0833
      18    C7      19.654628   21.103092   22.518089 C.3        1 MOL1        -0.1684
      19    H12     20.598127   21.655939   22.622952 H          1 MOL1         0.0833
      20    H13     18.878370   21.867814   22.377912 H          1 MOL1         0.0833
      21    C8      19.694269   20.222737   21.246561 C.3        1 MOL1        -0.1684
      22    H14     19.506801   20.881007   20.387027 H          1 MOL1         0.0833
      23    H15     18.860738   19.507926   21.250361 H          1 MOL1         0.0833
      24    O1      20.316672   19.114874   25.641379 O.3        1 MOL1        -0.5508
      25    H16     19.407087   18.827522   25.863285 H          1 MOL1         0.3780
@<TRIPOS>BOND
    1     1     2    1
    2     1     3    1
    3     1     4    1
    4     4     5    1
    5     4     6    1
    6     4     7    1
    7     7     8    1
    8     7     9    1
    9     7    10    1
   10    10    11    1
   11    10    12    1
   12    10    13    1
   13    13    14    1
   14    13    15    1
   15    15    16    1
   16    15    17    1
   17    15    18    1
   18    18    19    1
   19    18    20    1
   20     1    21    1
   21    18    21    1
   22    21    22    1
   23    21    23    1
   24    13    24    1
   25    24    25    1
@<TRIPOS>SUBSTRUCTURE
       1 MOL1            1 RESIDUE      1      MOL     
@<SCITEGIC>MOL_PROPERTY
VM2 Rank
SciTegic.value.IntegerValue
32

@<SCITEGIC>MOL_PROPERTY
Conf_Id
SciTegic.value.IntegerValue
316

@<SCITEGIC>MOL_PROPERTY
Probability
SciTegic.value.DoubleValue
1.23

@<SCITEGIC>MOL_PROPERTY
Sum Probability
SciTegic.value.DoubleValue
84.08

@<SCITEGIC>MOL_PROPERTY
Delta G
SciTegic.value.DoubleValue
0.825

@<SCITEGIC>MOL_PROPERTY
G
SciTegic.value.DoubleValue
62.900

@<SCITEGIC>MOL_PROPERTY
E
SciTegic.value.DoubleValue
30.812

@<SCITEGIC>MOL_PROPERTY
-TS
SciTegic.value.DoubleValue
32.088

@<SCITEGIC>MOL_PROPERTY
U+W
SciTegic.value.DoubleValue
10.244

@<SCITEGIC>MOL_PROPERTY
U
SciTegic.value.DoubleValue
12.337

@<SCITEGIC>MOL_PROPERTY
W
SciTegic.value.DoubleValue
-2.092

@<SCITEGIC>MOL_PROPERTY
W(PB)
SciTegic.value.DoubleValue
-4.240

@<SCITEGIC>MOL_PROPERTY
W(SA)
SciTegic.value.DoubleValue
2.147

@<SCITEGIC>MOL_PROPERTY
Valence
SciTegic.value.DoubleValue
18.676

@<SCITEGIC>MOL_PROPERTY
Coulomb
SciTegic.value.DoubleValue
-8.851

@<SCITEGIC>MOL_PROPERTY
VdW
SciTegic.value.DoubleValue
2.512

@<SCITEGIC>MOL_PROPERTY
VdW6
SciTegic.value.DoubleValue
-11.906

@<SCITEGIC>MOL_PROPERTY
VdW12
SciTegic.value.DoubleValue
14.417

@<SCITEGIC>MOL_PROPERTY
Bond
SciTegic.value.DoubleValue
0.323

@<SCITEGIC>MOL_PROPERTY
Angle
SciTegic.value.DoubleValue
3.226

@<SCITEGIC>MOL_PROPERTY
Pdih
SciTegic.value.DoubleValue
15.127

@<SCITEGIC>MOL_PROPERTY
Idih
SciTegic.value.DoubleValue
0.000

@<SCITEGIC>MOL_PROPERTY
Tether
SciTegic.value.DoubleValue
0.000

@<TRIPOS>MOLECULE
guest-s17_vm2.mol2 : vm2 ligand conformer 33
          25          25           1
SMALL
USER_CHARGES
 
@<TRIPOS>ATOM
       1    C1      20.769612   19.249878   20.796724 C.3        1 MOL1        -0.1684
       2    H1      20.727603   19.084018   19.711564 H          1 MOL1         0.0833
       3    H2      21.828399   19.436719   21.016988 H          1 MOL1         0.0833
       4    C2      20.274482   17.952437   21.486224 C.3        1 MOL1        -0.1684
       5    H3      19.206898   18.025676   21.722574 H          1 MOL1         0.0833
       6    H4      20.339715   17.131053   20.759685 H          1 MOL1         0.0833
       7    C3      21.078819   17.520495   22.738568 C.3        1 MOL1        -0.1684
       8    H5      22.011814   17.053752   22.395051 H          1 MOL1         0.0833
       9    H6      20.525331   16.728025   23.260446 H          1 MOL1         0.0833
      10    C4      21.460244   18.631833   23.753276 C.3        1 MOL1        -0.1760
      11    H7      22.094026   18.170870   24.521878 H          1 MOL1         0.0833
      12    H8      22.107216   19.373166   23.272552 H          1 MOL1         0.0833
      13    C5      20.302866   19.348557   24.492172 C.3        1 MOL1         0.1219
      14    H9      20.772768   20.053429   25.193225 H          1 MOL1         0.0790
      15    C6      19.322780   20.169830   23.619669 C.3        1 MOL1        -0.1760
      16    H10     18.566927   19.518737   23.166988 H          1 MOL1         0.0833
      17    H11     18.759682   20.821573   24.300256 H          1 MOL1         0.0833
      18    C7      19.982967   21.069613   22.540531 C.3        1 MOL1        -0.1684
      19    H12     21.017083   21.319329   22.810664 H          1 MOL1         0.0833
      20    H13     19.448004   22.029189   22.537283 H          1 MOL1         0.0833
      21    C8      19.914505   20.508581   21.096397 C.3        1 MOL1        -0.1684
      22    H14     18.867027   20.308115   20.832916 H          1 MOL1         0.0833
      23    H15     20.242103   21.304403   20.413647 H          1 MOL1         0.0833
      24    O1      19.557724   18.391776   25.236440 O.3        1 MOL1        -0.5508
      25    H16     18.867070   18.887911   25.722096 H          1 MOL1         0.3780
@<TRIPOS>BOND
    1     1     2    1
    2     1     3    1
    3     1     4    1
    4     4     5    1
    5     4     6    1
    6     4     7    1
    7     7     8    1
    8     7     9    1
    9     7    10    1
   10    10    11    1
   11    10    12    1
   12    10    13    1
   13    13    14    1
   14    13    15    1
   15    15    16    1
   16    15    17    1
   17    15    18    1
   18    18    19    1
   19    18    20    1
   20     1    21    1
   21    18    21    1
   22    21    22    1
   23    21    23    1
   24    13    24    1
   25    24    25    1
@<TRIPOS>SUBSTRUCTURE
       1 MOL1            1 RESIDUE      1      MOL     
@<SCITEGIC>MOL_PROPERTY
VM2 Rank
SciTegic.value.IntegerValue
33

@<SCITEGIC>MOL_PROPERTY
Conf_Id
SciTegic.value.IntegerValue
1022

@<SCITEGIC>MOL_PROPERTY
Probability
SciTegic.value.DoubleValue
0.92

@<SCITEGIC>MOL_PROPERTY
Sum Probability
SciTegic.value.DoubleValue
84.99

@<SCITEGIC>MOL_PROPERTY
Delta G
SciTegic.value.DoubleValue
1.000

@<SCITEGIC>MOL_PROPERTY
G
SciTegic.value.DoubleValue
63.075

@<SCITEGIC>MOL_PROPERTY
E
SciTegic.value.DoubleValue
30.343

@<SCITEGIC>MOL_PROPERTY
-TS
SciTegic.value.DoubleValue
32.732

@<SCITEGIC>MOL_PROPERTY
U+W
SciTegic.value.DoubleValue
9.776

@<SCITEGIC>MOL_PROPERTY
U
SciTegic.value.DoubleValue
11.974

@<SCITEGIC>MOL_PROPERTY
W
SciTegic.value.DoubleValue
-2.198

@<SCITEGIC>MOL_PROPERTY
W(PB)
SciTegic.value.DoubleValue
-4.331

@<SCITEGIC>MOL_PROPERTY
W(SA)
SciTegic.value.DoubleValue
2.133

@<SCITEGIC>MOL_PROPERTY
Valence
SciTegic.value.DoubleValue
16.772

@<SCITEGIC>MOL_PROPERTY
Coulomb
SciTegic.value.DoubleValue
-7.357

@<SCITEGIC>MOL_PROPERTY
VdW
SciTegic.value.DoubleValue
2.559

@<SCITEGIC>MOL_PROPERTY
VdW6
SciTegic.value.DoubleValue
-12.877

@<SCITEGIC>MOL_PROPERTY
VdW12
SciTegic.value.DoubleValue
15.436

@<SCITEGIC>MOL_PROPERTY
Bond
SciTegic.value.DoubleValue
0.436

@<SCITEGIC>MOL_PROPERTY
Angle
SciTegic.value.DoubleValue
5.453

@<SCITEGIC>MOL_PROPERTY
Pdih
SciTegic.value.DoubleValue
10.883

@<SCITEGIC>MOL_PROPERTY
Idih
SciTegic.value.DoubleValue
0.000

@<SCITEGIC>MOL_PROPERTY
Tether
SciTegic.value.DoubleValue
0.000

@<TRIPOS>MOLECULE
guest-s17_vm2.mol2 : vm2 ligand conformer 34
          25          25           1
SMALL
USER_CHARGES
 
@<TRIPOS>ATOM
       1    C1      20.666153   19.502291   20.796527 C.3        1 MOL1        -0.1684
       2    H1      20.521565   19.584168   19.710600 H          1 MOL1         0.0833
       3    H2      21.541147   20.127071   21.016737 H          1 MOL1         0.0833
       4    C2      20.963096   18.011280   21.103211 C.3        1 MOL1        -0.1684
       5    H3      20.086428   17.403945   20.839743 H          1 MOL1         0.0833
       6    H4      21.762138   17.683997   20.424081 H          1 MOL1         0.0833
       7    C3      21.406982   17.672674   22.550027 C.3        1 MOL1        -0.1684
       8    H5      22.309372   18.235980   22.820404 H          1 MOL1         0.0833
       9    H6      21.716013   16.618406   22.552017 H          1 MOL1         0.0833
      10    C4      20.299482   17.837359   23.625350 C.3        1 MOL1        -0.1760
      11    H7      19.306562   17.753116   23.170192 H          1 MOL1         0.0833
      12    H8      20.367387   16.981718   24.309683 H          1 MOL1         0.0833
      13    C5      20.398688   19.115606   24.492853 C.3        1 MOL1         0.1219
      14    H9      21.228744   18.959296   25.196914 H          1 MOL1         0.0790
      15    C6      20.701313   20.440281   23.749327 C.3        1 MOL1        -0.1760
      16    H10     20.814860   21.218549   24.515041 H          1 MOL1         0.0833
      17    H11     21.684882   20.379772   23.271650 H          1 MOL1         0.0833
      18    C7      19.644390   20.943363   22.729516 C.3        1 MOL1        -0.1684
      19    H12     19.966770   21.934429   22.382830 H          1 MOL1         0.0833
      20    H13     18.689789   21.106522   23.248007 H          1 MOL1         0.0833
      21    C8      19.391958   20.061856   21.480069 C.3        1 MOL1        -0.1684
      22    H14     18.854156   20.681297   20.749422 H          1 MOL1         0.0833
      23    H15     18.694927   19.250310   21.717776 H          1 MOL1         0.0833
      24    O1      19.191937   19.258290   25.233119 O.3        1 MOL1        -0.5508
      25    H16     19.059992   18.419986   25.721844 H          1 MOL1         0.3780
@<TRIPOS>BOND
    1     1     2    1
    2     1     3    1
    3     1     4    1
    4     4     5    1
    5     4     6    1
    6     4     7    1
    7     7     8    1
    8     7     9    1
    9     7    10    1
   10    10    11    1
   11    10    12    1
   12    10    13    1
   13    13    14    1
   14    13    15    1
   15    15    16    1
   16    15    17    1
   17    15    18    1
   18    18    19    1
   19    18    20    1
   20     1    21    1
   21    18    21    1
   22    21    22    1
   23    21    23    1
   24    13    24    1
   25    24    25    1
@<TRIPOS>SUBSTRUCTURE
       1 MOL1            1 RESIDUE      1      MOL     
@<SCITEGIC>MOL_PROPERTY
VM2 Rank
SciTegic.value.IntegerValue
34

@<SCITEGIC>MOL_PROPERTY
Conf_Id
SciTegic.value.IntegerValue
1433

@<SCITEGIC>MOL_PROPERTY
Probability
SciTegic.value.DoubleValue
0.88

@<SCITEGIC>MOL_PROPERTY
Sum Probability
SciTegic.value.DoubleValue
85.87

@<SCITEGIC>MOL_PROPERTY
Delta G
SciTegic.value.DoubleValue
1.022

@<SCITEGIC>MOL_PROPERTY
G
SciTegic.value.DoubleValue
63.097

@<SCITEGIC>MOL_PROPERTY
E
SciTegic.value.DoubleValue
30.367

@<SCITEGIC>MOL_PROPERTY
-TS
SciTegic.value.DoubleValue
32.730

@<SCITEGIC>MOL_PROPERTY
U+W
SciTegic.value.DoubleValue
9.799

@<SCITEGIC>MOL_PROPERTY
U
SciTegic.value.DoubleValue
11.974

@<SCITEGIC>MOL_PROPERTY
W
SciTegic.value.DoubleValue
-2.174

@<SCITEGIC>MOL_PROPERTY
W(PB)
SciTegic.value.DoubleValue
-4.302

@<SCITEGIC>MOL_PROPERTY
W(SA)
SciTegic.value.DoubleValue
2.128

@<SCITEGIC>MOL_PROPERTY
Valence
SciTegic.value.DoubleValue
16.772

@<SCITEGIC>MOL_PROPERTY
Coulomb
SciTegic.value.DoubleValue
-7.357

@<SCITEGIC>MOL_PROPERTY
VdW
SciTegic.value.DoubleValue
2.559

@<SCITEGIC>MOL_PROPERTY
VdW6
SciTegic.value.DoubleValue
-12.877

@<SCITEGIC>MOL_PROPERTY
VdW12
SciTegic.value.DoubleValue
15.436

@<SCITEGIC>MOL_PROPERTY
Bond
SciTegic.value.DoubleValue
0.436

@<SCITEGIC>MOL_PROPERTY
Angle
SciTegic.value.DoubleValue
5.452

@<SCITEGIC>MOL_PROPERTY
Pdih
SciTegic.value.DoubleValue
10.883

@<SCITEGIC>MOL_PROPERTY
Idih
SciTegic.value.DoubleValue
0.000

@<SCITEGIC>MOL_PROPERTY
Tether
SciTegic.value.DoubleValue
0.000

@<TRIPOS>MOLECULE
guest-s17_vm2.mol2 : vm2 ligand conformer 35
          25          25           1
SMALL
USER_CHARGES
 
@<TRIPOS>ATOM
       1    C1      20.689475   19.360514   20.551814 C.3        1 MOL1        -0.1684
       2    H1      20.407648   19.228598   19.498173 H          1 MOL1         0.0833
       3    H2      21.757360   19.617372   20.540680 H          1 MOL1         0.0833
       4    C2      20.471492   18.010307   21.274281 C.3        1 MOL1        -0.1684
       5    H3      19.407867   17.867496   21.506955 H          1 MOL1         0.0833
       6    H4      20.721679   17.213920   20.559875 H          1 MOL1         0.0833
       7    C3      21.360426   17.803708   22.528516 C.3        1 MOL1        -0.1684
       8    H5      22.186605   18.526625   22.557682 H          1 MOL1         0.0833
       9    H6      21.838990   16.819291   22.432952 H          1 MOL1         0.0833
      10    C4      20.588648   17.812062   23.870511 C.3        1 MOL1        -0.1760
      11    H7      19.635849   17.277356   23.761646 H          1 MOL1         0.0833
      12    H8      21.176132   17.231211   24.593620 H          1 MOL1         0.0833
      13    C5      20.342310   19.207924   24.484774 C.3        1 MOL1         0.1219
      14    H9      21.310407   19.704051   24.643884 H          1 MOL1         0.0790
      15    C6      19.438819   20.133725   23.639460 C.3        1 MOL1        -0.1760
      16    H10     18.616721   19.555546   23.199377 H          1 MOL1         0.0833
      17    H11     18.960127   20.850705   24.320160 H          1 MOL1         0.0833
      18    C7      20.193003   20.954469   22.558942 C.3        1 MOL1        -0.1684
      19    H12     21.278462   20.934579   22.724354 H          1 MOL1         0.0833
      20    H13     19.899248   22.006343   22.679075 H          1 MOL1         0.0833
      21    C8      19.863970   20.545692   21.104458 C.3        1 MOL1        -0.1684
      22    H14     20.059193   21.411837   20.457403 H          1 MOL1         0.0833
      23    H15     18.790261   20.337500   21.002479 H          1 MOL1         0.0833
      24    O1      19.715856   19.014599   25.747244 O.3        1 MOL1        -0.5508
      25    H16     20.327344   18.470989   26.286600 H          1 MOL1         0.3780
@<TRIPOS>BOND
    1     1     2    1
    2     1     3    1
    3     1     4    1
    4     4     5    1
    5     4     6    1
    6     4     7    1
    7     7     8    1
    8     7     9    1
    9     7    10    1
   10    10    11    1
   11    10    12    1
   12    10    13    1
   13    13    14    1
   14    13    15    1
   15    15    16    1
   16    15    17    1
   17    15    18    1
   18    18    19    1
   19    18    20    1
   20     1    21    1
   21    18    21    1
   22    21    22    1
   23    21    23    1
   24    13    24    1
   25    24    25    1
@<TRIPOS>SUBSTRUCTURE
       1 MOL1            1 RESIDUE      1      MOL     
@<SCITEGIC>MOL_PROPERTY
VM2 Rank
SciTegic.value.IntegerValue
35

@<SCITEGIC>MOL_PROPERTY
Conf_Id
SciTegic.value.IntegerValue
1649

@<SCITEGIC>MOL_PROPERTY
Probability
SciTegic.value.DoubleValue
0.80

@<SCITEGIC>MOL_PROPERTY
Sum Probability
SciTegic.value.DoubleValue
86.67

@<SCITEGIC>MOL_PROPERTY
Delta G
SciTegic.value.DoubleValue
1.084

@<SCITEGIC>MOL_PROPERTY
G
SciTegic.value.DoubleValue
63.159

@<SCITEGIC>MOL_PROPERTY
E
SciTegic.value.DoubleValue
31.416

@<SCITEGIC>MOL_PROPERTY
-TS
SciTegic.value.DoubleValue
31.743

@<SCITEGIC>MOL_PROPERTY
U+W
SciTegic.value.DoubleValue
10.849

@<SCITEGIC>MOL_PROPERTY
U
SciTegic.value.DoubleValue
13.140

@<SCITEGIC>MOL_PROPERTY
W
SciTegic.value.DoubleValue
-2.291

@<SCITEGIC>MOL_PROPERTY
W(PB)
SciTegic.value.DoubleValue
-4.428

@<SCITEGIC>MOL_PROPERTY
W(SA)
SciTegic.value.DoubleValue
2.137

@<SCITEGIC>MOL_PROPERTY
Valence
SciTegic.value.DoubleValue
19.156

@<SCITEGIC>MOL_PROPERTY
Coulomb
SciTegic.value.DoubleValue
-8.157

@<SCITEGIC>MOL_PROPERTY
VdW
SciTegic.value.DoubleValue
2.141

@<SCITEGIC>MOL_PROPERTY
VdW6
SciTegic.value.DoubleValue
-11.575

@<SCITEGIC>MOL_PROPERTY
VdW12
SciTegic.value.DoubleValue
13.717

@<SCITEGIC>MOL_PROPERTY
Bond
SciTegic.value.DoubleValue
0.294

@<SCITEGIC>MOL_PROPERTY
Angle
SciTegic.value.DoubleValue
3.548

@<SCITEGIC>MOL_PROPERTY
Pdih
SciTegic.value.DoubleValue
15.314

@<SCITEGIC>MOL_PROPERTY
Idih
SciTegic.value.DoubleValue
0.000

@<SCITEGIC>MOL_PROPERTY
Tether
SciTegic.value.DoubleValue
0.000

@<TRIPOS>MOLECULE
guest-s17_vm2.mol2 : vm2 ligand conformer 36
          25          25           1
SMALL
USER_CHARGES
 
@<TRIPOS>ATOM
       1    C1      20.694850   19.362597   20.554907 C.3        1 MOL1        -0.1684
       2    H1      20.419607   19.232645   19.499280 H          1 MOL1         0.0833
       3    H2      21.762392   19.621054   20.550625 H          1 MOL1         0.0833
       4    C2      20.474465   18.010025   21.272455 C.3        1 MOL1        -0.1684
       5    H3      19.410100   17.865587   21.500678 H          1 MOL1         0.0833
       6    H4      20.727822   17.216252   20.556258 H          1 MOL1         0.0833
       7    C3      21.358658   17.798688   22.529243 C.3        1 MOL1        -0.1684
       8    H5      22.189143   18.516546   22.560286 H          1 MOL1         0.0833
       9    H6      21.831230   16.811199   22.435950 H          1 MOL1         0.0833
      10    C4      20.583649   17.812329   23.869457 C.3        1 MOL1        -0.1760
      11    H7      19.629552   17.280127   23.761847 H          1 MOL1         0.0833
      12    H8      21.166193   17.233977   24.598778 H          1 MOL1         0.0833
      13    C5      20.341691   19.208928   24.482258 C.3        1 MOL1         0.1219
      14    H9      21.312762   19.701100   24.635396 H          1 MOL1         0.0790
      15    C6      19.434285   20.132698   23.638268 C.3        1 MOL1        -0.1760
      16    H10     18.617660   19.549801   23.193745 H          1 MOL1         0.0833
      17    H11     18.947005   20.848887   24.313177 H          1 MOL1         0.0833
      18    C7      20.188050   20.956067   22.559728 C.3        1 MOL1        -0.1684
      19    H12     21.273325   20.939844   22.727097 H          1 MOL1         0.0833
      20    H13     19.890555   22.007088   22.678431 H          1 MOL1         0.0833
      21    C8      19.864169   20.545543   21.104640 C.3        1 MOL1        -0.1684
      22    H14     20.059034   21.411959   20.457825 H          1 MOL1         0.0833
      23    H15     18.791349   20.334433   20.999313 H          1 MOL1         0.0833
      24    O1      19.724183   19.016125   25.749043 O.3        1 MOL1        -0.5508
      25    H16     19.641579   19.901619   26.160751 H          1 MOL1         0.3780
@<TRIPOS>BOND
    1     1     2    1
    2     1     3    1
    3     1     4    1
    4     4     5    1
    5     4     6    1
    6     4     7    1
    7     7     8    1
    8     7     9    1
    9     7    10    1
   10    10    11    1
   11    10    12    1
   12    10    13    1
   13    13    14    1
   14    13    15    1
   15    15    16    1
   16    15    17    1
   17    15    18    1
   18    18    19    1
   19    18    20    1
   20     1    21    1
   21    18    21    1
   22    21    22    1
   23    21    23    1
   24    13    24    1
   25    24    25    1
@<TRIPOS>SUBSTRUCTURE
       1 MOL1            1 RESIDUE      1      MOL     
@<SCITEGIC>MOL_PROPERTY
VM2 Rank
SciTegic.value.IntegerValue
36

@<SCITEGIC>MOL_PROPERTY
Conf_Id
SciTegic.value.IntegerValue
1209

@<SCITEGIC>MOL_PROPERTY
Probability
SciTegic.value.DoubleValue
0.79

@<SCITEGIC>MOL_PROPERTY
Sum Probability
SciTegic.value.DoubleValue
87.46

@<SCITEGIC>MOL_PROPERTY
Delta G
SciTegic.value.DoubleValue
1.087

@<SCITEGIC>MOL_PROPERTY
G
SciTegic.value.DoubleValue
63.162

@<SCITEGIC>MOL_PROPERTY
E
SciTegic.value.DoubleValue
31.434

@<SCITEGIC>MOL_PROPERTY
-TS
SciTegic.value.DoubleValue
31.728

@<SCITEGIC>MOL_PROPERTY
U+W
SciTegic.value.DoubleValue
10.866

@<SCITEGIC>MOL_PROPERTY
U
SciTegic.value.DoubleValue
13.061

@<SCITEGIC>MOL_PROPERTY
W
SciTegic.value.DoubleValue
-2.195

@<SCITEGIC>MOL_PROPERTY
W(PB)
SciTegic.value.DoubleValue
-4.334

@<SCITEGIC>MOL_PROPERTY
W(SA)
SciTegic.value.DoubleValue
2.139

@<SCITEGIC>MOL_PROPERTY
Valence
SciTegic.value.DoubleValue
19.173

@<SCITEGIC>MOL_PROPERTY
Coulomb
SciTegic.value.DoubleValue
-8.232

@<SCITEGIC>MOL_PROPERTY
VdW
SciTegic.value.DoubleValue
2.120

@<SCITEGIC>MOL_PROPERTY
VdW6
SciTegic.value.DoubleValue
-11.563

@<SCITEGIC>MOL_PROPERTY
VdW12
SciTegic.value.DoubleValue
13.683

@<SCITEGIC>MOL_PROPERTY
Bond
SciTegic.value.DoubleValue
0.293

@<SCITEGIC>MOL_PROPERTY
Angle
SciTegic.value.DoubleValue
3.543

@<SCITEGIC>MOL_PROPERTY
Pdih
SciTegic.value.DoubleValue
15.336

@<SCITEGIC>MOL_PROPERTY
Idih
SciTegic.value.DoubleValue
0.000

@<SCITEGIC>MOL_PROPERTY
Tether
SciTegic.value.DoubleValue
0.000

@<TRIPOS>MOLECULE
guest-s17_vm2.mol2 : vm2 ligand conformer 37
          25          25           1
SMALL
USER_CHARGES
 
@<TRIPOS>ATOM
       1    C1      20.694498   19.362161   20.554676 C.3        1 MOL1        -0.1684
       2    H1      20.418621   19.232044   19.499231 H          1 MOL1         0.0833
       3    H2      21.761862   19.621376   20.549718 H          1 MOL1         0.0833
       4    C2      20.475386   18.009653   21.272389 C.3        1 MOL1        -0.1684
       5    H3      19.411004   17.864281   21.499826 H          1 MOL1         0.0833
       6    H4      20.730033   17.215947   20.556559 H          1 MOL1         0.0833
       7    C3      21.359471   17.800164   22.529488 C.3        1 MOL1        -0.1684
       8    H5      22.187771   18.520557   22.561622 H          1 MOL1         0.0833
       9    H6      21.835248   16.814223   22.435790 H          1 MOL1         0.0833
      10    C4      20.583128   17.810825   23.868564 C.3        1 MOL1        -0.1760
      11    H7      19.631857   17.274736   23.756030 H          1 MOL1         0.0833
      12    H8      21.167689   17.232922   24.596934 H          1 MOL1         0.0833
      13    C5      20.340499   19.207513   24.481509 C.3        1 MOL1         0.1219
      14    H9      21.310615   19.700223   24.637682 H          1 MOL1         0.0790
      15    C6      19.435070   20.135573   23.640522 C.3        1 MOL1        -0.1760
      16    H10     18.611268   19.561241   23.198277 H          1 MOL1         0.0833
      17    H11     18.960691   20.854806   24.322102 H          1 MOL1         0.0833
      18    C7      20.188601   20.956096   22.559656 C.3        1 MOL1        -0.1684
      19    H12     21.273876   20.939912   22.727024 H          1 MOL1         0.0833
      20    H13     19.891634   22.007400   22.677117 H          1 MOL1         0.0833
      21    C8      19.863324   20.544285   21.105170 C.3        1 MOL1        -0.1684
      22    H14     20.056620   21.410612   20.457761 H          1 MOL1         0.0833
      23    H15     18.790590   20.332240   21.000999 H          1 MOL1         0.0833
      24    O1      19.724023   19.016731   25.748025 O.3        1 MOL1        -0.5508
      25    H16     18.862240   18.585438   25.573945 H          1 MOL1         0.3780
@<TRIPOS>BOND
    1     1     2    1
    2     1     3    1
    3     1     4    1
    4     4     5    1
    5     4     6    1
    6     4     7    1
    7     7     8    1
    8     7     9    1
    9     7    10    1
   10    10    11    1
   11    10    12    1
   12    10    13    1
   13    13    14    1
   14    13    15    1
   15    15    16    1
   16    15    17    1
   17    15    18    1
   18    18    19    1
   19    18    20    1
   20     1    21    1
   21    18    21    1
   22    21    22    1
   23    21    23    1
   24    13    24    1
   25    24    25    1
@<TRIPOS>SUBSTRUCTURE
       1 MOL1            1 RESIDUE      1      MOL     
@<SCITEGIC>MOL_PROPERTY
VM2 Rank
SciTegic.value.IntegerValue
37

@<SCITEGIC>MOL_PROPERTY
Conf_Id
SciTegic.value.IntegerValue
668

@<SCITEGIC>MOL_PROPERTY
Probability
SciTegic.value.DoubleValue
0.72

@<SCITEGIC>MOL_PROPERTY
Sum Probability
SciTegic.value.DoubleValue
88.18

@<SCITEGIC>MOL_PROPERTY
Delta G
SciTegic.value.DoubleValue
1.147

@<SCITEGIC>MOL_PROPERTY
G
SciTegic.value.DoubleValue
63.222

@<SCITEGIC>MOL_PROPERTY
E
SciTegic.value.DoubleValue
31.524

@<SCITEGIC>MOL_PROPERTY
-TS
SciTegic.value.DoubleValue
31.698

@<SCITEGIC>MOL_PROPERTY
U+W
SciTegic.value.DoubleValue
10.956

@<SCITEGIC>MOL_PROPERTY
U
SciTegic.value.DoubleValue
12.791

@<SCITEGIC>MOL_PROPERTY
W
SciTegic.value.DoubleValue
-1.835

@<SCITEGIC>MOL_PROPERTY
W(PB)
SciTegic.value.DoubleValue
-3.980

@<SCITEGIC>MOL_PROPERTY
W(SA)
SciTegic.value.DoubleValue
2.145

@<SCITEGIC>MOL_PROPERTY
Valence
SciTegic.value.DoubleValue
19.528

@<SCITEGIC>MOL_PROPERTY
Coulomb
SciTegic.value.DoubleValue
-8.823

@<SCITEGIC>MOL_PROPERTY
VdW
SciTegic.value.DoubleValue
2.086

@<SCITEGIC>MOL_PROPERTY
VdW6
SciTegic.value.DoubleValue
-11.580

@<SCITEGIC>MOL_PROPERTY
VdW12
SciTegic.value.DoubleValue
13.666

@<SCITEGIC>MOL_PROPERTY
Bond
SciTegic.value.DoubleValue
0.287

@<SCITEGIC>MOL_PROPERTY
Angle
SciTegic.value.DoubleValue
3.589

@<SCITEGIC>MOL_PROPERTY
Pdih
SciTegic.value.DoubleValue
15.653

@<SCITEGIC>MOL_PROPERTY
Idih
SciTegic.value.DoubleValue
0.000

@<SCITEGIC>MOL_PROPERTY
Tether
SciTegic.value.DoubleValue
0.000

@<TRIPOS>MOLECULE
guest-s17_vm2.mol2 : vm2 ligand conformer 38
          25          25           1
SMALL
USER_CHARGES
 
@<TRIPOS>ATOM
       1    C1      19.892735   19.017943   21.011302 C.3        1 MOL1        -0.1684
       2    H1      18.996640   18.566156   21.454669 H          1 MOL1         0.0833
       3    H2      19.772445   18.883390   19.927346 H          1 MOL1         0.0833
       4    C2      21.181886   18.262817   21.420342 C.3        1 MOL1        -0.1684
       5    H3      21.434983   17.582702   20.595210 H          1 MOL1         0.0833
       6    H4      22.036950   18.947029   21.503361 H          1 MOL1         0.0833
       7    C3      21.053735   17.398987   22.694906 C.3        1 MOL1        -0.1684
       8    H5      21.795142   16.591812   22.618513 H          1 MOL1         0.0833
       9    H6      20.080657   16.890855   22.724156 H          1 MOL1         0.0833
      10    C4      21.332837   18.139865   24.027635 C.3        1 MOL1        -0.1760
      11    H7      21.387356   17.379911   24.818139 H          1 MOL1         0.0833
      12    H8      22.332212   18.592561   23.994375 H          1 MOL1         0.0833
      13    C5      20.301504   19.196647   24.488305 C.3        1 MOL1         0.1219
      14    H9      20.483174   19.339068   25.563471 H          1 MOL1         0.0790
      15    C6      20.472394   20.597117   23.837954 C.3        1 MOL1        -0.1760
      16    H10     20.319268   21.328002   24.642722 H          1 MOL1         0.0833
      17    H11     21.512400   20.743522   23.519477 H          1 MOL1         0.0833
      18    C7      19.510192   20.994690   22.684887 C.3        1 MOL1        -0.1684
      19    H12     19.471148   22.092432   22.663422 H          1 MOL1         0.0833
      20    H13     18.478467   20.684656   22.895001 H          1 MOL1         0.0833
      21    C8      19.934413   20.541077   21.270096 C.3        1 MOL1        -0.1684
      22    H14     20.928622   20.940939   21.028800 H          1 MOL1         0.0833
      23    H15     19.247446   21.018149   20.557541 H          1 MOL1         0.0833
      24    O1      18.984303   18.693857   24.324571 O.3        1 MOL1        -0.5508
      25    H16     18.873811   18.626807   23.355385 H          1 MOL1         0.3780
@<TRIPOS>BOND
    1     1     2    1
    2     1     3    1
    3     1     4    1
    4     4     5    1
    5     4     6    1
    6     4     7    1
    7     7     8    1
    8     7     9    1
    9     7    10    1
   10    10    11    1
   11    10    12    1
   12    10    13    1
   13    13    14    1
   14    13    15    1
   15    15    16    1
   16    15    17    1
   17    15    18    1
   18    18    19    1
   19    18    20    1
   20     1    21    1
   21    18    21    1
   22    21    22    1
   23    21    23    1
   24    13    24    1
   25    24    25    1
@<TRIPOS>SUBSTRUCTURE
       1 MOL1            1 RESIDUE      1      MOL     
@<SCITEGIC>MOL_PROPERTY
VM2 Rank
SciTegic.value.IntegerValue
38

@<SCITEGIC>MOL_PROPERTY
Conf_Id
SciTegic.value.IntegerValue
1041

@<SCITEGIC>MOL_PROPERTY
Probability
SciTegic.value.DoubleValue
0.66

@<SCITEGIC>MOL_PROPERTY
Sum Probability
SciTegic.value.DoubleValue
88.83

@<SCITEGIC>MOL_PROPERTY
Delta G
SciTegic.value.DoubleValue
1.197

@<SCITEGIC>MOL_PROPERTY
G
SciTegic.value.DoubleValue
63.272

@<SCITEGIC>MOL_PROPERTY
E
SciTegic.value.DoubleValue
31.218

@<SCITEGIC>MOL_PROPERTY
-TS
SciTegic.value.DoubleValue
32.054

@<SCITEGIC>MOL_PROPERTY
U+W
SciTegic.value.DoubleValue
10.651

@<SCITEGIC>MOL_PROPERTY
U
SciTegic.value.DoubleValue
11.809

@<SCITEGIC>MOL_PROPERTY
W
SciTegic.value.DoubleValue
-1.158

@<SCITEGIC>MOL_PROPERTY
W(PB)
SciTegic.value.DoubleValue
-3.264

@<SCITEGIC>MOL_PROPERTY
W(SA)
SciTegic.value.DoubleValue
2.105

@<SCITEGIC>MOL_PROPERTY
Valence
SciTegic.value.DoubleValue
19.951

@<SCITEGIC>MOL_PROPERTY
Coulomb
SciTegic.value.DoubleValue
-10.074

@<SCITEGIC>MOL_PROPERTY
VdW
SciTegic.value.DoubleValue
1.932

@<SCITEGIC>MOL_PROPERTY
VdW6
SciTegic.value.DoubleValue
-12.999

@<SCITEGIC>MOL_PROPERTY
VdW12
SciTegic.value.DoubleValue
14.931

@<SCITEGIC>MOL_PROPERTY
Bond
SciTegic.value.DoubleValue
0.347

@<SCITEGIC>MOL_PROPERTY
Angle
SciTegic.value.DoubleValue
6.175

@<SCITEGIC>MOL_PROPERTY
Pdih
SciTegic.value.DoubleValue
13.428

@<SCITEGIC>MOL_PROPERTY
Idih
SciTegic.value.DoubleValue
0.000

@<SCITEGIC>MOL_PROPERTY
Tether
SciTegic.value.DoubleValue
0.000

@<TRIPOS>MOLECULE
guest-s17_vm2.mol2 : vm2 ligand conformer 39
          25          25           1
SMALL
USER_CHARGES
 
@<TRIPOS>ATOM
       1    C1      21.053849   19.528441   20.987449 C.3        1 MOL1        -0.1684
       2    H1      21.409931   19.680478   19.959503 H          1 MOL1         0.0833
       3    H2      21.876190   19.880992   21.620230 H          1 MOL1         0.0833
       4    C2      20.839534   18.006603   21.180763 C.3        1 MOL1        -0.1684
       5    H3      20.084064   17.652864   20.466267 H          1 MOL1         0.0833
       6    H4      21.774442   17.503633   20.898413 H          1 MOL1         0.0833
       7    C3      20.451850   17.523890   22.602047 C.3        1 MOL1        -0.1684
       8    H5      20.625889   16.439926   22.634767 H          1 MOL1         0.0833
       9    H6      19.373736   17.630253   22.764879 H          1 MOL1         0.0833
      10    C4      21.250117   18.175478   23.765675 C.3        1 MOL1        -0.1760
      11    H7      21.475684   17.386803   24.495252 H          1 MOL1         0.0833
      12    H8      22.229186   18.523422   23.415185 H          1 MOL1         0.0833
      13    C5      20.532024   19.308008   24.547067 C.3        1 MOL1         0.1219
      14    H9      21.213598   19.601301   25.358547 H          1 MOL1         0.0790
      15    C6      20.208925   20.606409   23.760678 C.3        1 MOL1        -0.1760
      16    H10     19.802892   21.326235   24.483157 H          1 MOL1         0.0833
      17    H11     21.137981   21.066732   23.403388 H          1 MOL1         0.0833
      18    C7      19.184634   20.473492   22.599525 C.3        1 MOL1        -0.1684
      19    H12     18.516738   21.344944   22.630985 H          1 MOL1         0.0833
      20    H13     18.521766   19.616301   22.760868 H          1 MOL1         0.0833
      21    C8      19.802812   20.421950   21.178856 C.3        1 MOL1        -0.1684
      22    H14     20.082561   21.446008   20.896335 H          1 MOL1         0.0833
      23    H15     19.026738   20.117629   20.463667 H          1 MOL1         0.0833
      24    O1      19.340254   18.798729   25.137940 O.3        1 MOL1        -0.5508
      25    H16     18.903283   19.553932   25.581364 H          1 MOL1         0.3780
@<TRIPOS>BOND
    1     1     2    1
    2     1     3    1
    3     1     4    1
    4     4     5    1
    5     4     6    1
    6     4     7    1
    7     7     8    1
    8     7     9    1
    9     7    10    1
   10    10    11    1
   11    10    12    1
   12    10    13    1
   13    13    14    1
   14    13    15    1
   15    15    16    1
   16    15    17    1
   17    15    18    1
   18    18    19    1
   19    18    20    1
   20     1    21    1
   21    18    21    1
   22    21    22    1
   23    21    23    1
   24    13    24    1
   25    24    25    1
@<TRIPOS>SUBSTRUCTURE
       1 MOL1            1 RESIDUE      1      MOL     
@<SCITEGIC>MOL_PROPERTY
VM2 Rank
SciTegic.value.IntegerValue
39

@<SCITEGIC>MOL_PROPERTY
Conf_Id
SciTegic.value.IntegerValue
489

@<SCITEGIC>MOL_PROPERTY
Probability
SciTegic.value.DoubleValue
0.61

@<SCITEGIC>MOL_PROPERTY
Sum Probability
SciTegic.value.DoubleValue
89.45

@<SCITEGIC>MOL_PROPERTY
Delta G
SciTegic.value.DoubleValue
1.238

@<SCITEGIC>MOL_PROPERTY
G
SciTegic.value.DoubleValue
63.314

@<SCITEGIC>MOL_PROPERTY
E
SciTegic.value.DoubleValue
30.500

@<SCITEGIC>MOL_PROPERTY
-TS
SciTegic.value.DoubleValue
32.814

@<SCITEGIC>MOL_PROPERTY
U+W
SciTegic.value.DoubleValue
9.932

@<SCITEGIC>MOL_PROPERTY
U
SciTegic.value.DoubleValue
12.093

@<SCITEGIC>MOL_PROPERTY
W
SciTegic.value.DoubleValue
-2.161

@<SCITEGIC>MOL_PROPERTY
W(PB)
SciTegic.value.DoubleValue
-4.282

@<SCITEGIC>MOL_PROPERTY
W(SA)
SciTegic.value.DoubleValue
2.121

@<SCITEGIC>MOL_PROPERTY
Valence
SciTegic.value.DoubleValue
16.788

@<SCITEGIC>MOL_PROPERTY
Coulomb
SciTegic.value.DoubleValue
-7.596

@<SCITEGIC>MOL_PROPERTY
VdW
SciTegic.value.DoubleValue
2.902

@<SCITEGIC>MOL_PROPERTY
VdW6
SciTegic.value.DoubleValue
-13.303

@<SCITEGIC>MOL_PROPERTY
VdW12
SciTegic.value.DoubleValue
16.205

@<SCITEGIC>MOL_PROPERTY
Bond
SciTegic.value.DoubleValue
0.495

@<SCITEGIC>MOL_PROPERTY
Angle
SciTegic.value.DoubleValue
5.823

@<SCITEGIC>MOL_PROPERTY
Pdih
SciTegic.value.DoubleValue
10.470

@<SCITEGIC>MOL_PROPERTY
Idih
SciTegic.value.DoubleValue
0.000

@<SCITEGIC>MOL_PROPERTY
Tether
SciTegic.value.DoubleValue
0.000

@<TRIPOS>MOLECULE
guest-s17_vm2.mol2 : vm2 ligand conformer 40
          25          25           1
SMALL
USER_CHARGES
 
@<TRIPOS>ATOM
       1    C1      21.054064   19.527596   20.987386 C.3        1 MOL1        -0.1684
       2    H1      21.410334   19.679009   19.959413 H          1 MOL1         0.0833
       3    H2      21.875505   19.882355   21.620102 H          1 MOL1         0.0833
       4    C2      20.840253   18.005553   21.181701 C.3        1 MOL1        -0.1684
       5    H3      20.085737   17.650945   20.466610 H          1 MOL1         0.0833
       6    H4      21.775672   17.502606   20.900973 H          1 MOL1         0.0833
       7    C3      20.450750   17.524716   22.603031 C.3        1 MOL1        -0.1684
       8    H5      20.622604   16.440361   22.636830 H          1 MOL1         0.0833
       9    H6      19.372599   17.634763   22.763283 H          1 MOL1         0.0833
      10    C4      21.251615   18.178207   23.763498 C.3        1 MOL1        -0.1760
      11    H7      21.493362   17.389537   24.487753 H          1 MOL1         0.0833
      12    H8      22.225474   18.534119   23.406253 H          1 MOL1         0.0833
      13    C5      20.532068   19.308225   24.547048 C.3        1 MOL1         0.1219
      14    H9      21.213477   19.602079   25.358464 H          1 MOL1         0.0790
      15    C6      20.206022   20.607254   23.762782 C.3        1 MOL1        -0.1760
      16    H10     19.788924   21.315400   24.490608 H          1 MOL1         0.0833
      17    H11     21.132831   21.076845   23.412080 H          1 MOL1         0.0833
      18    C7      19.184752   20.474827   22.598609 C.3        1 MOL1        -0.1684
      19    H12     18.518634   21.347580   22.629036 H          1 MOL1         0.0833
      20    H13     18.519269   19.620205   22.762651 H          1 MOL1         0.0833
      21    C8      19.802861   20.420619   21.177915 C.3        1 MOL1        -0.1684
      22    H14     20.082230   21.444307   20.893719 H          1 MOL1         0.0833
      23    H15     19.026670   20.115011   20.463420 H          1 MOL1         0.0833
      24    O1      19.341615   18.796003   25.138031 O.3        1 MOL1        -0.5508
      25    H16     19.587911   17.959914   25.583221 H          1 MOL1         0.3780
@<TRIPOS>BOND
    1     1     2    1
    2     1     3    1
    3     1     4    1
    4     4     5    1
    5     4     6    1
    6     4     7    1
    7     7     8    1
    8     7     9    1
    9     7    10    1
   10    10    11    1
   11    10    12    1
   12    10    13    1
   13    13    14    1
   14    13    15    1
   15    15    16    1
   16    15    17    1
   17    15    18    1
   18    18    19    1
   19    18    20    1
   20     1    21    1
   21    18    21    1
   22    21    22    1
   23    21    23    1
   24    13    24    1
   25    24    25    1
@<TRIPOS>SUBSTRUCTURE
       1 MOL1            1 RESIDUE      1      MOL     
@<SCITEGIC>MOL_PROPERTY
VM2 Rank
SciTegic.value.IntegerValue
40

@<SCITEGIC>MOL_PROPERTY
Conf_Id
SciTegic.value.IntegerValue
956

@<SCITEGIC>MOL_PROPERTY
Probability
SciTegic.value.DoubleValue
0.59

@<SCITEGIC>MOL_PROPERTY
Sum Probability
SciTegic.value.DoubleValue
90.04

@<SCITEGIC>MOL_PROPERTY
Delta G
SciTegic.value.DoubleValue
1.261

@<SCITEGIC>MOL_PROPERTY
G
SciTegic.value.DoubleValue
63.336

@<SCITEGIC>MOL_PROPERTY
E
SciTegic.value.DoubleValue
30.523

@<SCITEGIC>MOL_PROPERTY
-TS
SciTegic.value.DoubleValue
32.814

@<SCITEGIC>MOL_PROPERTY
U+W
SciTegic.value.DoubleValue
9.955

@<SCITEGIC>MOL_PROPERTY
U
SciTegic.value.DoubleValue
12.093

@<SCITEGIC>MOL_PROPERTY
W
SciTegic.value.DoubleValue
-2.138

@<SCITEGIC>MOL_PROPERTY
W(PB)
SciTegic.value.DoubleValue
-4.252

@<SCITEGIC>MOL_PROPERTY
W(SA)
SciTegic.value.DoubleValue
2.114

@<SCITEGIC>MOL_PROPERTY
Valence
SciTegic.value.DoubleValue
16.788

@<SCITEGIC>MOL_PROPERTY
Coulomb
SciTegic.value.DoubleValue
-7.596

@<SCITEGIC>MOL_PROPERTY
VdW
SciTegic.value.DoubleValue
2.902

@<SCITEGIC>MOL_PROPERTY
VdW6
SciTegic.value.DoubleValue
-13.303

@<SCITEGIC>MOL_PROPERTY
VdW12
SciTegic.value.DoubleValue
16.205

@<SCITEGIC>MOL_PROPERTY
Bond
SciTegic.value.DoubleValue
0.495

@<SCITEGIC>MOL_PROPERTY
Angle
SciTegic.value.DoubleValue
5.823

@<SCITEGIC>MOL_PROPERTY
Pdih
SciTegic.value.DoubleValue
10.470

@<SCITEGIC>MOL_PROPERTY
Idih
SciTegic.value.DoubleValue
0.000

@<SCITEGIC>MOL_PROPERTY
Tether
SciTegic.value.DoubleValue
0.000

@<TRIPOS>MOLECULE
guest-s17_vm2.mol2 : vm2 ligand conformer 41
          25          25           1
SMALL
USER_CHARGES
 
@<TRIPOS>ATOM
       1    C1      20.225403   19.143399   20.616267 C.3        1 MOL1        -0.1684
       2    H1      19.186101   18.799205   20.527439 H          1 MOL1         0.0833
       3    H2      20.568069   19.316452   19.586903 H          1 MOL1         0.0833
       4    C2      21.106937   18.023614   21.215557 C.3        1 MOL1        -0.1684
       5    H3      21.026275   17.152084   20.551517 H          1 MOL1         0.0833
       6    H4      22.164406   18.319123   21.186126 H          1 MOL1         0.0833
       7    C3      20.714935   17.573443   22.642097 C.3        1 MOL1        -0.1684
       8    H5      21.072719   16.542005   22.765289 H          1 MOL1         0.0833
       9    H6      19.624110   17.507794   22.728484 H          1 MOL1         0.0833
      10    C4      21.355157   18.419185   23.782474 C.3        1 MOL1        -0.1760
      11    H7      21.820737   17.719340   24.488767 H          1 MOL1         0.0833
      12    H8      22.185196   19.023656   23.395572 H          1 MOL1         0.0833
      13    C5      20.411723   19.322716   24.614035 C.3        1 MOL1         0.1219
      14    H9      20.956431   19.581871   25.533348 H          1 MOL1         0.0790
      15    C6      20.022330   20.665443   23.954367 C.3        1 MOL1        -0.1760
      16    H10     19.355451   21.188161   24.652954 H          1 MOL1         0.0833
      17    H11     20.912939   21.302157   23.876105 H          1 MOL1         0.0833
      18    C7      19.312476   20.586954   22.578991 C.3        1 MOL1        -0.1684
      19    H12     18.730438   21.511256   22.460676 H          1 MOL1         0.0833
      20    H13     18.570919   19.778291   22.565532 H          1 MOL1         0.0833
      21    C8      20.278603   20.492228   21.369426 C.3        1 MOL1        -0.1684
      22    H14     19.993304   21.277968   20.656400 H          1 MOL1         0.0833
      23    H15     21.311705   20.724531   21.660237 H          1 MOL1         0.0833
      24    O1      19.236436   18.616018   24.986787 O.3        1 MOL1        -0.5508
      25    H16     18.764886   18.435640   24.150232 H          1 MOL1         0.3780
@<TRIPOS>BOND
    1     1     2    1
    2     1     3    1
    3     1     4    1
    4     4     5    1
    5     4     6    1
    6     4     7    1
    7     7     8    1
    8     7     9    1
    9     7    10    1
   10    10    11    1
   11    10    12    1
   12    10    13    1
   13    13    14    1
   14    13    15    1
   15    15    16    1
   16    15    17    1
   17    15    18    1
   18    18    19    1
   19    18    20    1
   20     1    21    1
   21    18    21    1
   22    21    22    1
   23    21    23    1
   24    13    24    1
   25    24    25    1
@<TRIPOS>SUBSTRUCTURE
       1 MOL1            1 RESIDUE      1      MOL     
@<SCITEGIC>MOL_PROPERTY
VM2 Rank
SciTegic.value.IntegerValue
41

@<SCITEGIC>MOL_PROPERTY
Conf_Id
SciTegic.value.IntegerValue
1661

@<SCITEGIC>MOL_PROPERTY
Probability
SciTegic.value.DoubleValue
0.59

@<SCITEGIC>MOL_PROPERTY
Sum Probability
SciTegic.value.DoubleValue
90.63

@<SCITEGIC>MOL_PROPERTY
Delta G
SciTegic.value.DoubleValue
1.263

@<SCITEGIC>MOL_PROPERTY
G
SciTegic.value.DoubleValue
63.338

@<SCITEGIC>MOL_PROPERTY
E
SciTegic.value.DoubleValue
31.413

@<SCITEGIC>MOL_PROPERTY
-TS
SciTegic.value.DoubleValue
31.925

@<SCITEGIC>MOL_PROPERTY
U+W
SciTegic.value.DoubleValue
10.846

@<SCITEGIC>MOL_PROPERTY
U
SciTegic.value.DoubleValue
12.343

@<SCITEGIC>MOL_PROPERTY
W
SciTegic.value.DoubleValue
-1.497

@<SCITEGIC>MOL_PROPERTY
W(PB)
SciTegic.value.DoubleValue
-3.626

@<SCITEGIC>MOL_PROPERTY
W(SA)
SciTegic.value.DoubleValue
2.129

@<SCITEGIC>MOL_PROPERTY
Valence
SciTegic.value.DoubleValue
19.543

@<SCITEGIC>MOL_PROPERTY
Coulomb
SciTegic.value.DoubleValue
-9.330

@<SCITEGIC>MOL_PROPERTY
VdW
SciTegic.value.DoubleValue
2.130

@<SCITEGIC>MOL_PROPERTY
VdW6
SciTegic.value.DoubleValue
-12.583

@<SCITEGIC>MOL_PROPERTY
VdW12
SciTegic.value.DoubleValue
14.713

@<SCITEGIC>MOL_PROPERTY
Bond
SciTegic.value.DoubleValue
0.361

@<SCITEGIC>MOL_PROPERTY
Angle
SciTegic.value.DoubleValue
4.756

@<SCITEGIC>MOL_PROPERTY
Pdih
SciTegic.value.DoubleValue
14.426

@<SCITEGIC>MOL_PROPERTY
Idih
SciTegic.value.DoubleValue
0.000

@<SCITEGIC>MOL_PROPERTY
Tether
SciTegic.value.DoubleValue
0.000

@<TRIPOS>MOLECULE
guest-s17_vm2.mol2 : vm2 ligand conformer 42
          25          25           1
SMALL
USER_CHARGES
 
@<TRIPOS>ATOM
       1    C1      20.518479   19.200478   20.742203 C.3        1 MOL1        -0.1684
       2    H1      19.576174   18.660400   20.579115 H          1 MOL1         0.0833
       3    H2      20.929327   19.373953   19.738042 H          1 MOL1         0.0833
       4    C2      21.539834   18.309841   21.494758 C.3        1 MOL1        -0.1684
       5    H3      22.072032   17.701551   20.750502 H          1 MOL1         0.0833
       6    H4      22.317573   18.935676   21.950875 H          1 MOL1         0.0833
       7    C3      20.943257   17.328408   22.538779 C.3        1 MOL1        -0.1684
       8    H5      21.773235   16.871950   23.095214 H          1 MOL1         0.0833
       9    H6      20.448713   16.503196   22.008399 H          1 MOL1         0.0833
      10    C4      19.934862   17.929311   23.548146 C.3        1 MOL1        -0.1760
      11    H7      18.968924   18.065689   23.050484 H          1 MOL1         0.0833
      12    H8      19.739639   17.181451   24.328259 H          1 MOL1         0.0833
      13    C5      20.410169   19.255718   24.192038 C.3        1 MOL1         0.1219
      14    H9      21.418757   19.499332   23.836558 H          1 MOL1         0.0790
      15    C6      19.492641   20.458869   23.879616 C.3        1 MOL1        -0.1760
      16    H10     18.572131   20.368694   24.471512 H          1 MOL1         0.0833
      17    H11     19.995675   21.365707   24.239636 H          1 MOL1         0.0833
      18    C7      19.099068   20.667172   22.391297 C.3        1 MOL1        -0.1684
      19    H12     18.636369   21.660820   22.316615 H          1 MOL1         0.0833
      20    H13     18.306161   19.966492   22.099863 H          1 MOL1         0.0833
      21    C8      20.262376   20.600556   21.369210 C.3        1 MOL1        -0.1684
      22    H14     21.183364   21.018986   21.796902 H          1 MOL1         0.0833
      23    H15     19.996126   21.273537   20.542475 H          1 MOL1         0.0833
      24    O1      20.463315   19.092649   25.603952 O.3        1 MOL1        -0.5508
      25    H16     21.092024   18.360755   25.776106 H          1 MOL1         0.3780
@<TRIPOS>BOND
    1     1     2    1
    2     1     3    1
    3     1     4    1
    4     4     5    1
    5     4     6    1
    6     4     7    1
    7     7     8    1
    8     7     9    1
    9     7    10    1
   10    10    11    1
   11    10    12    1
   12    10    13    1
   13    13    14    1
   14    13    15    1
   15    15    16    1
   16    15    17    1
   17    15    18    1
   18    18    19    1
   19    18    20    1
   20     1    21    1
   21    18    21    1
   22    21    22    1
   23    21    23    1
   24    13    24    1
   25    24    25    1
@<TRIPOS>SUBSTRUCTURE
       1 MOL1            1 RESIDUE      1      MOL     
@<SCITEGIC>MOL_PROPERTY
VM2 Rank
SciTegic.value.IntegerValue
42

@<SCITEGIC>MOL_PROPERTY
Conf_Id
SciTegic.value.IntegerValue
1206

@<SCITEGIC>MOL_PROPERTY
Probability
SciTegic.value.DoubleValue
0.57

@<SCITEGIC>MOL_PROPERTY
Sum Probability
SciTegic.value.DoubleValue
91.20

@<SCITEGIC>MOL_PROPERTY
Delta G
SciTegic.value.DoubleValue
1.284

@<SCITEGIC>MOL_PROPERTY
G
SciTegic.value.DoubleValue
63.359

@<SCITEGIC>MOL_PROPERTY
E
SciTegic.value.DoubleValue
30.887

@<SCITEGIC>MOL_PROPERTY
-TS
SciTegic.value.DoubleValue
32.472

@<SCITEGIC>MOL_PROPERTY
U+W
SciTegic.value.DoubleValue
10.320

@<SCITEGIC>MOL_PROPERTY
U
SciTegic.value.DoubleValue
12.311

@<SCITEGIC>MOL_PROPERTY
W
SciTegic.value.DoubleValue
-1.992

@<SCITEGIC>MOL_PROPERTY
W(PB)
SciTegic.value.DoubleValue
-4.137

@<SCITEGIC>MOL_PROPERTY
W(SA)
SciTegic.value.DoubleValue
2.145

@<SCITEGIC>MOL_PROPERTY
Valence
SciTegic.value.DoubleValue
17.914

@<SCITEGIC>MOL_PROPERTY
Coulomb
SciTegic.value.DoubleValue
-8.725

@<SCITEGIC>MOL_PROPERTY
VdW
SciTegic.value.DoubleValue
3.122

@<SCITEGIC>MOL_PROPERTY
VdW6
SciTegic.value.DoubleValue
-12.447

@<SCITEGIC>MOL_PROPERTY
VdW12
SciTegic.value.DoubleValue
15.570

@<SCITEGIC>MOL_PROPERTY
Bond
SciTegic.value.DoubleValue
0.452

@<SCITEGIC>MOL_PROPERTY
Angle
SciTegic.value.DoubleValue
4.377

@<SCITEGIC>MOL_PROPERTY
Pdih
SciTegic.value.DoubleValue
13.085

@<SCITEGIC>MOL_PROPERTY
Idih
SciTegic.value.DoubleValue
0.000

@<SCITEGIC>MOL_PROPERTY
Tether
SciTegic.value.DoubleValue
0.000

@<TRIPOS>MOLECULE
guest-s17_vm2.mol2 : vm2 ligand conformer 43
          25          25           1
SMALL
USER_CHARGES
 
@<TRIPOS>ATOM
       1    C1      20.462304   19.350805   20.742061 C.3        1 MOL1        -0.1684
       2    H1      19.422776   19.038932   20.573719 H          1 MOL1         0.0833
       3    H2      20.878800   19.520335   19.739552 H          1 MOL1         0.0833
       4    C2      21.295325   18.205653   21.385212 C.3        1 MOL1        -0.1684
       5    H3      21.605601   17.541843   20.566451 H          1 MOL1         0.0833
       6    H4      22.230043   18.588169   21.816731 H          1 MOL1         0.0833
       7    C3      20.534003   17.325678   22.409133 C.3        1 MOL1        -0.1684
       8    H5      20.935488   16.304966   22.346214 H          1 MOL1         0.0833
       9    H6      19.482062   17.231664   22.110523 H          1 MOL1         0.0833
      10    C4      20.643124   17.767112   23.894601 C.3        1 MOL1        -0.1760
      11    H7      19.938840   17.167409   24.486334 H          1 MOL1         0.0833
      12    H8      21.644100   17.509630   24.264414 H          1 MOL1         0.0833
      13    C5      20.401538   19.263767   24.192430 C.3        1 MOL1         0.1219
      14    H9      21.275902   19.823562   23.838762 H          1 MOL1         0.0790
      15    C6      19.117851   19.828071   23.533965 C.3        1 MOL1        -0.1760
      16    H10     18.554621   19.029979   23.038866 H          1 MOL1         0.0833
      17    H11     18.435599   20.208757   24.305712 H          1 MOL1         0.0833
      18    C7      19.385177   20.964151   22.516798 C.3        1 MOL1        -0.1684
      19    H12     19.622296   21.884866   23.067158 H          1 MOL1         0.0833
      20    H13     18.450479   21.169997   21.977525 H          1 MOL1         0.0833
      21    C8      20.515327   20.711047   21.483455 C.3        1 MOL1        -0.1684
      22    H14     21.501329   20.847096   21.945926 H          1 MOL1         0.0833
      23    H15     20.447111   21.509513   20.731812 H          1 MOL1         0.0833
      24    O1      20.309350   19.426716   25.602346 O.3        1 MOL1        -0.5508
      25    H16     20.211104   20.388117   25.765555 H          1 MOL1         0.3780
@<TRIPOS>BOND
    1     1     2    1
    2     1     3    1
    3     1     4    1
    4     4     5    1
    5     4     6    1
    6     4     7    1
    7     7     8    1
    8     7     9    1
    9     7    10    1
   10    10    11    1
   11    10    12    1
   12    10    13    1
   13    13    14    1
   14    13    15    1
   15    15    16    1
   16    15    17    1
   17    15    18    1
   18    18    19    1
   19    18    20    1
   20     1    21    1
   21    18    21    1
   22    21    22    1
   23    21    23    1
   24    13    24    1
   25    24    25    1
@<TRIPOS>SUBSTRUCTURE
       1 MOL1            1 RESIDUE      1      MOL     
@<SCITEGIC>MOL_PROPERTY
VM2 Rank
SciTegic.value.IntegerValue
43

@<SCITEGIC>MOL_PROPERTY
Conf_Id
SciTegic.value.IntegerValue
849

@<SCITEGIC>MOL_PROPERTY
Probability
SciTegic.value.DoubleValue
0.56

@<SCITEGIC>MOL_PROPERTY
Sum Probability
SciTegic.value.DoubleValue
91.75

@<SCITEGIC>MOL_PROPERTY
Delta G
SciTegic.value.DoubleValue
1.297

@<SCITEGIC>MOL_PROPERTY
G
SciTegic.value.DoubleValue
63.372

@<SCITEGIC>MOL_PROPERTY
E
SciTegic.value.DoubleValue
30.900

@<SCITEGIC>MOL_PROPERTY
-TS
SciTegic.value.DoubleValue
32.472

@<SCITEGIC>MOL_PROPERTY
U+W
SciTegic.value.DoubleValue
10.333

@<SCITEGIC>MOL_PROPERTY
U
SciTegic.value.DoubleValue
12.311

@<SCITEGIC>MOL_PROPERTY
W
SciTegic.value.DoubleValue
-1.978

@<SCITEGIC>MOL_PROPERTY
W(PB)
SciTegic.value.DoubleValue
-4.130

@<SCITEGIC>MOL_PROPERTY
W(SA)
SciTegic.value.DoubleValue
2.152

@<SCITEGIC>MOL_PROPERTY
Valence
SciTegic.value.DoubleValue
17.914

@<SCITEGIC>MOL_PROPERTY
Coulomb
SciTegic.value.DoubleValue
-8.725

@<SCITEGIC>MOL_PROPERTY
VdW
SciTegic.value.DoubleValue
3.122

@<SCITEGIC>MOL_PROPERTY
VdW6
SciTegic.value.DoubleValue
-12.447

@<SCITEGIC>MOL_PROPERTY
VdW12
SciTegic.value.DoubleValue
15.569

@<SCITEGIC>MOL_PROPERTY
Bond
SciTegic.value.DoubleValue
0.452

@<SCITEGIC>MOL_PROPERTY
Angle
SciTegic.value.DoubleValue
4.377

@<SCITEGIC>MOL_PROPERTY
Pdih
SciTegic.value.DoubleValue
13.085

@<SCITEGIC>MOL_PROPERTY
Idih
SciTegic.value.DoubleValue
0.000

@<SCITEGIC>MOL_PROPERTY
Tether
SciTegic.value.DoubleValue
0.000

@<TRIPOS>MOLECULE
guest-s17_vm2.mol2 : vm2 ligand conformer 44
          25          25           1
SMALL
USER_CHARGES
 
@<TRIPOS>ATOM
       1    C1      20.462350   19.349718   20.737585 C.3        1 MOL1        -0.1684
       2    H1      19.422477   19.039587   20.568083 H          1 MOL1         0.0833
       3    H2      20.880310   19.520095   19.735832 H          1 MOL1         0.0833
       4    C2      21.292691   18.203339   21.380705 C.3        1 MOL1        -0.1684
       5    H3      22.230250   18.583340   21.808248 H          1 MOL1         0.0833
       6    H4      21.597428   17.535857   20.562842 H          1 MOL1         0.0833
       7    C3      20.530216   17.330715   22.409294 C.3        1 MOL1        -0.1684
       8    H5      20.924033   16.307082   22.344868 H          1 MOL1         0.0833
       9    H6      19.476055   17.243618   22.116526 H          1 MOL1         0.0833
      10    C4      20.651822   17.772278   23.893406 C.3        1 MOL1        -0.1760
      11    H7      19.955125   17.166515   24.488336 H          1 MOL1         0.0833
      12    H8      21.657885   17.516294   24.250224 H          1 MOL1         0.0833
      13    C5      20.402946   19.267463   24.197479 C.3        1 MOL1         0.1219
      14    H9      21.273782   19.837131   23.850773 H          1 MOL1         0.0790
      15    C6      19.119425   19.831430   23.538276 C.3        1 MOL1        -0.1760
      16    H10     18.547613   19.032174   23.055378 H          1 MOL1         0.0833
      17    H11     18.448164   20.224290   24.313729 H          1 MOL1         0.0833
      18    C7      19.384602   20.960971   22.512659 C.3        1 MOL1        -0.1684
      19    H12     19.619582   21.884332   23.059613 H          1 MOL1         0.0833
      20    H13     18.449554   21.162467   21.972486 H          1 MOL1         0.0833
      21    C8      20.516670   20.707801   21.481751 C.3        1 MOL1        -0.1684
      22    H14     21.501710   20.841058   21.947013 H          1 MOL1         0.0833
      23    H15     20.451648   21.507881   20.731562 H          1 MOL1         0.0833
      24    O1      20.303279   19.419284   25.608847 O.3        1 MOL1        -0.5508
      25    H16     21.146503   19.094771   25.988274 H          1 MOL1         0.3780
@<TRIPOS>BOND
    1     1     2    1
    2     1     3    1
    3     1     4    1
    4     4     5    1
    5     4     6    1
    6     4     7    1
    7     7     8    1
    8     7     9    1
    9     7    10    1
   10    10    11    1
   11    10    12    1
   12    10    13    1
   13    13    14    1
   14    13    15    1
   15    15    16    1
   16    15    17    1
   17    15    18    1
   18    18    19    1
   19    18    20    1
   20     1    21    1
   21    18    21    1
   22    21    22    1
   23    21    23    1
   24    13    24    1
   25    24    25    1
@<TRIPOS>SUBSTRUCTURE
       1 MOL1            1 RESIDUE      1      MOL     
@<SCITEGIC>MOL_PROPERTY
VM2 Rank
SciTegic.value.IntegerValue
44

@<SCITEGIC>MOL_PROPERTY
Conf_Id
SciTegic.value.IntegerValue
1332

@<SCITEGIC>MOL_PROPERTY
Probability
SciTegic.value.DoubleValue
0.49

@<SCITEGIC>MOL_PROPERTY
Sum Probability
SciTegic.value.DoubleValue
92.25

@<SCITEGIC>MOL_PROPERTY
Delta G
SciTegic.value.DoubleValue
1.367

@<SCITEGIC>MOL_PROPERTY
G
SciTegic.value.DoubleValue
63.442

@<SCITEGIC>MOL_PROPERTY
E
SciTegic.value.DoubleValue
31.043

@<SCITEGIC>MOL_PROPERTY
-TS
SciTegic.value.DoubleValue
32.399

@<SCITEGIC>MOL_PROPERTY
U+W
SciTegic.value.DoubleValue
10.476

@<SCITEGIC>MOL_PROPERTY
U
SciTegic.value.DoubleValue
12.694

@<SCITEGIC>MOL_PROPERTY
W
SciTegic.value.DoubleValue
-2.219

@<SCITEGIC>MOL_PROPERTY
W(PB)
SciTegic.value.DoubleValue
-4.362

@<SCITEGIC>MOL_PROPERTY
W(SA)
SciTegic.value.DoubleValue
2.143

@<SCITEGIC>MOL_PROPERTY
Valence
SciTegic.value.DoubleValue
17.937

@<SCITEGIC>MOL_PROPERTY
Coulomb
SciTegic.value.DoubleValue
-8.339

@<SCITEGIC>MOL_PROPERTY
VdW
SciTegic.value.DoubleValue
3.096

@<SCITEGIC>MOL_PROPERTY
VdW6
SciTegic.value.DoubleValue
-12.392

@<SCITEGIC>MOL_PROPERTY
VdW12
SciTegic.value.DoubleValue
15.489

@<SCITEGIC>MOL_PROPERTY
Bond
SciTegic.value.DoubleValue
0.441

@<SCITEGIC>MOL_PROPERTY
Angle
SciTegic.value.DoubleValue
4.414

@<SCITEGIC>MOL_PROPERTY
Pdih
SciTegic.value.DoubleValue
13.082

@<SCITEGIC>MOL_PROPERTY
Idih
SciTegic.value.DoubleValue
0.000

@<SCITEGIC>MOL_PROPERTY
Tether
SciTegic.value.DoubleValue
0.000

@<TRIPOS>MOLECULE
guest-s17_vm2.mol2 : vm2 ligand conformer 45
          25          25           1
SMALL
USER_CHARGES
 
@<TRIPOS>ATOM
       1    C1      20.518340   19.201571   20.737759 C.3        1 MOL1        -0.1684
       2    H1      19.577117   18.660046   20.573131 H          1 MOL1         0.0833
       3    H2      20.931134   19.375705   19.734513 H          1 MOL1         0.0833
       4    C2      21.538785   18.313278   21.493239 C.3        1 MOL1        -0.1684
       5    H3      22.074608   17.706350   20.750494 H          1 MOL1         0.0833
       6    H4      22.313676   18.940301   21.952495 H          1 MOL1         0.0833
       7    C3      20.940609   17.330182   22.534464 C.3        1 MOL1        -0.1684
       8    H5      21.770866   16.870129   23.087632 H          1 MOL1         0.0833
       9    H6      20.442755   16.507857   22.002837 H          1 MOL1         0.0833
      10    C4      19.938206   17.928054   23.552214 C.3        1 MOL1        -0.1760
      11    H7      18.965593   18.059211   23.066632 H          1 MOL1         0.0833
      12    H8      19.759237   17.179675   24.335896 H          1 MOL1         0.0833
      13    C5      20.413462   19.254028   24.197166 C.3        1 MOL1         0.1219
      14    H9      21.426868   19.488406   23.849089 H          1 MOL1         0.0790
      15    C6      19.502124   20.461427   23.878366 C.3        1 MOL1        -0.1760
      16    H10     18.582298   20.380893   24.473102 H          1 MOL1         0.0833
      17    H11     20.009679   21.370724   24.225611 H          1 MOL1         0.0833
      18    C7      19.100224   20.660983   22.391421 C.3        1 MOL1        -0.1684
      19    H12     18.630088   21.651055   22.315291 H          1 MOL1         0.0833
      20    H13     18.310908   19.953990   22.105591 H          1 MOL1         0.0833
      21    C8      20.259275   20.600441   21.364890 C.3        1 MOL1        -0.1684
      22    H14     21.180275   21.022593   21.788874 H          1 MOL1         0.0833
      23    H15     19.986729   21.272068   20.539097 H          1 MOL1         0.0833
      24    O1      20.452975   19.093036   25.610482 O.3        1 MOL1        -0.5508
      25    H16     20.798556   19.931862   25.980946 H          1 MOL1         0.3780
@<TRIPOS>BOND
    1     1     2    1
    2     1     3    1
    3     1     4    1
    4     4     5    1
    5     4     6    1
    6     4     7    1
    7     7     8    1
    8     7     9    1
    9     7    10    1
   10    10    11    1
   11    10    12    1
   12    10    13    1
   13    13    14    1
   14    13    15    1
   15    15    16    1
   16    15    17    1
   17    15    18    1
   18    18    19    1
   19    18    20    1
   20     1    21    1
   21    18    21    1
   22    21    22    1
   23    21    23    1
   24    13    24    1
   25    24    25    1
@<TRIPOS>SUBSTRUCTURE
       1 MOL1            1 RESIDUE      1      MOL     
@<SCITEGIC>MOL_PROPERTY
VM2 Rank
SciTegic.value.IntegerValue
45

@<SCITEGIC>MOL_PROPERTY
Conf_Id
SciTegic.value.IntegerValue
479

@<SCITEGIC>MOL_PROPERTY
Probability
SciTegic.value.DoubleValue
0.49

@<SCITEGIC>MOL_PROPERTY
Sum Probability
SciTegic.value.DoubleValue
92.74

@<SCITEGIC>MOL_PROPERTY
Delta G
SciTegic.value.DoubleValue
1.373

@<SCITEGIC>MOL_PROPERTY
G
SciTegic.value.DoubleValue
63.448

@<SCITEGIC>MOL_PROPERTY
E
SciTegic.value.DoubleValue
31.049

@<SCITEGIC>MOL_PROPERTY
-TS
SciTegic.value.DoubleValue
32.399

@<SCITEGIC>MOL_PROPERTY
U+W
SciTegic.value.DoubleValue
10.482

@<SCITEGIC>MOL_PROPERTY
U
SciTegic.value.DoubleValue
12.694

@<SCITEGIC>MOL_PROPERTY
W
SciTegic.value.DoubleValue
-2.213

@<SCITEGIC>MOL_PROPERTY
W(PB)
SciTegic.value.DoubleValue
-4.351

@<SCITEGIC>MOL_PROPERTY
W(SA)
SciTegic.value.DoubleValue
2.138

@<SCITEGIC>MOL_PROPERTY
Valence
SciTegic.value.DoubleValue
17.937

@<SCITEGIC>MOL_PROPERTY
Coulomb
SciTegic.value.DoubleValue
-8.339

@<SCITEGIC>MOL_PROPERTY
VdW
SciTegic.value.DoubleValue
3.096

@<SCITEGIC>MOL_PROPERTY
VdW6
SciTegic.value.DoubleValue
-12.392

@<SCITEGIC>MOL_PROPERTY
VdW12
SciTegic.value.DoubleValue
15.489

@<SCITEGIC>MOL_PROPERTY
Bond
SciTegic.value.DoubleValue
0.441

@<SCITEGIC>MOL_PROPERTY
Angle
SciTegic.value.DoubleValue
4.414

@<SCITEGIC>MOL_PROPERTY
Pdih
SciTegic.value.DoubleValue
13.082

@<SCITEGIC>MOL_PROPERTY
Idih
SciTegic.value.DoubleValue
0.000

@<SCITEGIC>MOL_PROPERTY
Tether
SciTegic.value.DoubleValue
0.000

@<TRIPOS>MOLECULE
guest-s17_vm2.mol2 : vm2 ligand conformer 46
          25          25           1
SMALL
USER_CHARGES
 
@<TRIPOS>ATOM
       1    C1      20.510074   19.157457   20.719910 C.3        1 MOL1        -0.1684
       2    H1      19.771242   19.155245   19.906834 H          1 MOL1         0.0833
       3    H2      21.488459   19.059711   20.230297 H          1 MOL1         0.0833
       4    C2      20.241571   17.902648   21.586409 C.3        1 MOL1        -0.1684
       5    H3      19.225772   17.934518   21.990645 H          1 MOL1         0.0833
       6    H4      20.232004   17.038080   20.908546 H          1 MOL1         0.0833
       7    C3      21.278146   17.593608   22.697300 C.3        1 MOL1        -0.1684
       8    H5      22.239122   17.360074   22.219239 H          1 MOL1         0.0833
       9    H6      20.969534   16.665056   23.197172 H          1 MOL1         0.0833
      10    C4      21.533829   18.671294   23.790040 C.3        1 MOL1        -0.1760
      11    H7      22.160233   18.200686   24.558914 H          1 MOL1         0.0833
      12    H8      22.163266   19.471740   23.387780 H          1 MOL1         0.0833
      13    C5      20.307553   19.284126   24.517305 C.3        1 MOL1         0.1219
      14    H9      20.634123   19.497869   25.545251 H          1 MOL1         0.0790
      15    C6      19.813309   20.641195   23.953780 C.3        1 MOL1        -0.1760
      16    H10     18.995505   20.984898   24.600782 H          1 MOL1         0.0833
      17    H11     20.612831   21.382358   24.082023 H          1 MOL1         0.0833
      18    C7      19.313733   20.694568   22.483967 C.3        1 MOL1        -0.1684
      19    H12     18.863402   21.686035   22.339080 H          1 MOL1         0.0833
      20    H13     18.491333   19.988372   22.318399 H          1 MOL1         0.0833
      21    C8      20.432522   20.538340   21.420814 C.3        1 MOL1        -0.1684
      22    H14     21.405741   20.804402   21.848890 H          1 MOL1         0.0833
      23    H15     20.267464   21.290024   20.636720 H          1 MOL1         0.0833
      24    O1      19.233263   18.359765   24.590476 O.3        1 MOL1        -0.5508
      25    H16     19.111376   18.048364   23.673635 H          1 MOL1         0.3780
@<TRIPOS>BOND
    1     1     2    1
    2     1     3    1
    3     1     4    1
    4     4     5    1
    5     4     6    1
    6     4     7    1
    7     7     8    1
    8     7     9    1
    9     7    10    1
   10    10    11    1
   11    10    12    1
   12    10    13    1
   13    13    14    1
   14    13    15    1
   15    15    16    1
   16    15    17    1
   17    15    18    1
   18    18    19    1
   19    18    20    1
   20     1    21    1
   21    18    21    1
   22    21    22    1
   23    21    23    1
   24    13    24    1
   25    24    25    1
@<TRIPOS>SUBSTRUCTURE
       1 MOL1            1 RESIDUE      1      MOL     
@<SCITEGIC>MOL_PROPERTY
VM2 Rank
SciTegic.value.IntegerValue
46

@<SCITEGIC>MOL_PROPERTY
Conf_Id
SciTegic.value.IntegerValue
613

@<SCITEGIC>MOL_PROPERTY
Probability
SciTegic.value.DoubleValue
0.49

@<SCITEGIC>MOL_PROPERTY
Sum Probability
SciTegic.value.DoubleValue
93.23

@<SCITEGIC>MOL_PROPERTY
Delta G
SciTegic.value.DoubleValue
1.373

@<SCITEGIC>MOL_PROPERTY
G
SciTegic.value.DoubleValue
63.449

@<SCITEGIC>MOL_PROPERTY
E
SciTegic.value.DoubleValue
30.675

@<SCITEGIC>MOL_PROPERTY
-TS
SciTegic.value.DoubleValue
32.774

@<SCITEGIC>MOL_PROPERTY
U+W
SciTegic.value.DoubleValue
10.108

@<SCITEGIC>MOL_PROPERTY
U
SciTegic.value.DoubleValue
11.292

@<SCITEGIC>MOL_PROPERTY
W
SciTegic.value.DoubleValue
-1.184

@<SCITEGIC>MOL_PROPERTY
W(PB)
SciTegic.value.DoubleValue
-3.298

@<SCITEGIC>MOL_PROPERTY
W(SA)
SciTegic.value.DoubleValue
2.114

@<SCITEGIC>MOL_PROPERTY
Valence
SciTegic.value.DoubleValue
18.277

@<SCITEGIC>MOL_PROPERTY
Coulomb
SciTegic.value.DoubleValue
-9.503

@<SCITEGIC>MOL_PROPERTY
VdW
SciTegic.value.DoubleValue
2.517

@<SCITEGIC>MOL_PROPERTY
VdW6
SciTegic.value.DoubleValue
-13.881

@<SCITEGIC>MOL_PROPERTY
VdW12
SciTegic.value.DoubleValue
16.398

@<SCITEGIC>MOL_PROPERTY
Bond
SciTegic.value.DoubleValue
0.507

@<SCITEGIC>MOL_PROPERTY
Angle
SciTegic.value.DoubleValue
7.441

@<SCITEGIC>MOL_PROPERTY
Pdih
SciTegic.value.DoubleValue
10.329

@<SCITEGIC>MOL_PROPERTY
Idih
SciTegic.value.DoubleValue
0.000

@<SCITEGIC>MOL_PROPERTY
Tether
SciTegic.value.DoubleValue
0.000

@<TRIPOS>MOLECULE
guest-s17_vm2.mol2 : vm2 ligand conformer 47
          25          25           1
SMALL
USER_CHARGES
 
@<TRIPOS>ATOM
       1    C1      20.413711   19.358035   20.717397 C.3        1 MOL1        -0.1684
       2    H1      19.918115   18.799021   19.911880 H          1 MOL1         0.0833
       3    H2      21.001783   20.138957   20.216553 H          1 MOL1         0.0833
       4    C2      21.380107   18.383718   21.439129 C.3        1 MOL1        -0.1684
       5    H3      21.828263   17.742422   20.667784 H          1 MOL1         0.0833
       6    H4      22.230065   18.931924   21.861304 H          1 MOL1         0.0833
       7    C3      20.738452   17.469410   22.515565 C.3        1 MOL1        -0.1684
       8    H5      21.169370   16.466786   22.389660 H          1 MOL1         0.0833
       9    H6      19.663337   17.333419   22.347923 H          1 MOL1         0.0833
      10    C4      21.029161   17.900092   23.979388 C.3        1 MOL1        -0.1760
      11    H7      20.730354   17.075126   24.639459 H          1 MOL1         0.0833
      12    H8      22.114899   17.994927   24.110466 H          1 MOL1         0.0833
      13    C5      20.355734   19.188414   24.518090 C.3        1 MOL1         0.1219
      14    H9      20.729424   19.303814   25.545730 H          1 MOL1         0.0790
      15    C6      20.730681   20.495182   23.769755 C.3        1 MOL1        -0.1760
      16    H10     20.801005   21.288335   24.525390 H          1 MOL1         0.0833
      17    H11     21.747978   20.415228   23.372981 H          1 MOL1         0.0833
      18    C7      19.765974   21.012384   22.663994 C.3        1 MOL1        -0.1684
      19    H12     20.241937   21.871987   22.172975 H          1 MOL1         0.0833
      20    H13     18.869466   21.417552   23.153315 H          1 MOL1         0.0833
      21    C8      19.301422   20.018679   21.568174 C.3        1 MOL1        -0.1684
      22    H14     18.658240   20.581644   20.877919 H          1 MOL1         0.0833
      23    H15     18.639751   19.252926   21.983002 H          1 MOL1         0.0833
      24    O1      18.948758   19.017085   24.588509 O.3        1 MOL1        -0.5508
      25    H16     18.640133   19.120600   23.668477 H          1 MOL1         0.3780
@<TRIPOS>BOND
    1     1     2    1
    2     1     3    1
    3     1     4    1
    4     4     5    1
    5     4     6    1
    6     4     7    1
    7     7     8    1
    8     7     9    1
    9     7    10    1
   10    10    11    1
   11    10    12    1
   12    10    13    1
   13    13    14    1
   14    13    15    1
   15    15    16    1
   16    15    17    1
   17    15    18    1
   18    18    19    1
   19    18    20    1
   20     1    21    1
   21    18    21    1
   22    21    22    1
   23    21    23    1
   24    13    24    1
   25    24    25    1
@<TRIPOS>SUBSTRUCTURE
       1 MOL1            1 RESIDUE      1      MOL     
@<SCITEGIC>MOL_PROPERTY
VM2 Rank
SciTegic.value.IntegerValue
47

@<SCITEGIC>MOL_PROPERTY
Conf_Id
SciTegic.value.IntegerValue
1621

@<SCITEGIC>MOL_PROPERTY
Probability
SciTegic.value.DoubleValue
0.47

@<SCITEGIC>MOL_PROPERTY
Sum Probability
SciTegic.value.DoubleValue
93.70

@<SCITEGIC>MOL_PROPERTY
Delta G
SciTegic.value.DoubleValue
1.398

@<SCITEGIC>MOL_PROPERTY
G
SciTegic.value.DoubleValue
63.473

@<SCITEGIC>MOL_PROPERTY
E
SciTegic.value.DoubleValue
30.700

@<SCITEGIC>MOL_PROPERTY
-TS
SciTegic.value.DoubleValue
32.774

@<SCITEGIC>MOL_PROPERTY
U+W
SciTegic.value.DoubleValue
10.132

@<SCITEGIC>MOL_PROPERTY
U
SciTegic.value.DoubleValue
11.292

@<SCITEGIC>MOL_PROPERTY
W
SciTegic.value.DoubleValue
-1.159

@<SCITEGIC>MOL_PROPERTY
W(PB)
SciTegic.value.DoubleValue
-3.281

@<SCITEGIC>MOL_PROPERTY
W(SA)
SciTegic.value.DoubleValue
2.122

@<SCITEGIC>MOL_PROPERTY
Valence
SciTegic.value.DoubleValue
18.277

@<SCITEGIC>MOL_PROPERTY
Coulomb
SciTegic.value.DoubleValue
-9.503

@<SCITEGIC>MOL_PROPERTY
VdW
SciTegic.value.DoubleValue
2.517

@<SCITEGIC>MOL_PROPERTY
VdW6
SciTegic.value.DoubleValue
-13.881

@<SCITEGIC>MOL_PROPERTY
VdW12
SciTegic.value.DoubleValue
16.398

@<SCITEGIC>MOL_PROPERTY
Bond
SciTegic.value.DoubleValue
0.507

@<SCITEGIC>MOL_PROPERTY
Angle
SciTegic.value.DoubleValue
7.442

@<SCITEGIC>MOL_PROPERTY
Pdih
SciTegic.value.DoubleValue
10.329

@<SCITEGIC>MOL_PROPERTY
Idih
SciTegic.value.DoubleValue
0.000

@<SCITEGIC>MOL_PROPERTY
Tether
SciTegic.value.DoubleValue
0.000

@<TRIPOS>MOLECULE
guest-s17_vm2.mol2 : vm2 ligand conformer 48
          25          25           1
SMALL
USER_CHARGES
 
@<TRIPOS>ATOM
       1    C1      20.461901   19.349722   20.738310 C.3        1 MOL1        -0.1684
       2    H1      19.421816   19.039919   20.569549 H          1 MOL1         0.0833
       3    H2      20.879078   19.520263   19.736259 H          1 MOL1         0.0833
       4    C2      21.292633   18.203158   21.380498 C.3        1 MOL1        -0.1684
       5    H3      21.597263   17.536116   20.562239 H          1 MOL1         0.0833
       6    H4      22.230228   18.583149   21.808052 H          1 MOL1         0.0833
       7    C3      20.530998   17.329975   22.409145 C.3        1 MOL1        -0.1684
       8    H5      20.926426   16.306935   22.345048 H          1 MOL1         0.0833
       9    H6      19.477054   17.241390   22.116018 H          1 MOL1         0.0833
      10    C4      20.651912   17.771876   23.893179 C.3        1 MOL1        -0.1760
      11    H7      19.960704   17.160299   24.487855 H          1 MOL1         0.0833
      12    H8      21.659622   17.522674   24.250760 H          1 MOL1         0.0833
      13    C5      20.400791   19.266694   24.197171 C.3        1 MOL1         0.1219
      14    H9      21.272816   19.835284   23.852195 H          1 MOL1         0.0790
      15    C6      19.117565   19.831958   23.537886 C.3        1 MOL1        -0.1760
      16    H10     18.546890   19.033812   23.051273 H          1 MOL1         0.0833
      17    H11     18.443723   20.227636   24.309511 H          1 MOL1         0.0833
      18    C7      19.385395   20.961689   22.513342 C.3        1 MOL1        -0.1684
      19    H12     19.621771   21.884363   23.060913 H          1 MOL1         0.0833
      20    H13     18.451133   21.165302   21.972548 H          1 MOL1         0.0833
      21    C8      20.517561   20.707472   21.482915 C.3        1 MOL1        -0.1684
      22    H14     21.502498   20.839270   21.948881 H          1 MOL1         0.0833
      23    H15     20.454050   21.507935   20.733005 H          1 MOL1         0.0833
      24    O1      20.305244   19.420458   25.607554 O.3        1 MOL1        -0.5508
      25    H16     19.522298   18.904856   25.890165 H          1 MOL1         0.3780
@<TRIPOS>BOND
    1     1     2    1
    2     1     3    1
    3     1     4    1
    4     4     5    1
    5     4     6    1
    6     4     7    1
    7     7     8    1
    8     7     9    1
    9     7    10    1
   10    10    11    1
   11    10    12    1
   12    10    13    1
   13    13    14    1
   14    13    15    1
   15    15    16    1
   16    15    17    1
   17    15    18    1
   18    18    19    1
   19    18    20    1
   20     1    21    1
   21    18    21    1
   22    21    22    1
   23    21    23    1
   24    13    24    1
   25    24    25    1
@<TRIPOS>SUBSTRUCTURE
       1 MOL1            1 RESIDUE      1      MOL     
@<SCITEGIC>MOL_PROPERTY
VM2 Rank
SciTegic.value.IntegerValue
48

@<SCITEGIC>MOL_PROPERTY
Conf_Id
SciTegic.value.IntegerValue
1343

@<SCITEGIC>MOL_PROPERTY
Probability
SciTegic.value.DoubleValue
0.40

@<SCITEGIC>MOL_PROPERTY
Sum Probability
SciTegic.value.DoubleValue
94.10

@<SCITEGIC>MOL_PROPERTY
Delta G
SciTegic.value.DoubleValue
1.493

@<SCITEGIC>MOL_PROPERTY
G
SciTegic.value.DoubleValue
63.569

@<SCITEGIC>MOL_PROPERTY
E
SciTegic.value.DoubleValue
31.181

@<SCITEGIC>MOL_PROPERTY
-TS
SciTegic.value.DoubleValue
32.388

@<SCITEGIC>MOL_PROPERTY
U+W
SciTegic.value.DoubleValue
10.613

@<SCITEGIC>MOL_PROPERTY
U
SciTegic.value.DoubleValue
12.707

@<SCITEGIC>MOL_PROPERTY
W
SciTegic.value.DoubleValue
-2.094

@<SCITEGIC>MOL_PROPERTY
W(PB)
SciTegic.value.DoubleValue
-4.240

@<SCITEGIC>MOL_PROPERTY
W(SA)
SciTegic.value.DoubleValue
2.146

@<SCITEGIC>MOL_PROPERTY
Valence
SciTegic.value.DoubleValue
18.320

@<SCITEGIC>MOL_PROPERTY
Coulomb
SciTegic.value.DoubleValue
-8.639

@<SCITEGIC>MOL_PROPERTY
VdW
SciTegic.value.DoubleValue
3.026

@<SCITEGIC>MOL_PROPERTY
VdW6
SciTegic.value.DoubleValue
-12.424

@<SCITEGIC>MOL_PROPERTY
VdW12
SciTegic.value.DoubleValue
15.450

@<SCITEGIC>MOL_PROPERTY
Bond
SciTegic.value.DoubleValue
0.436

@<SCITEGIC>MOL_PROPERTY
Angle
SciTegic.value.DoubleValue
4.453

@<SCITEGIC>MOL_PROPERTY
Pdih
SciTegic.value.DoubleValue
13.431

@<SCITEGIC>MOL_PROPERTY
Idih
SciTegic.value.DoubleValue
0.000

@<SCITEGIC>MOL_PROPERTY
Tether
SciTegic.value.DoubleValue
0.000

@<TRIPOS>MOLECULE
guest-s17_vm2.mol2 : vm2 ligand conformer 49
          25          25           1
SMALL
USER_CHARGES
 
@<TRIPOS>ATOM
       1    C1      20.518051   19.201244   20.738494 C.3        1 MOL1        -0.1684
       2    H1      19.576893   18.659401   20.574588 H          1 MOL1         0.0833
       3    H2      20.930445   19.374694   19.734964 H          1 MOL1         0.0833
       4    C2      21.539132   18.314095   21.494390 C.3        1 MOL1        -0.1684
       5    H3      22.076223   17.707963   20.751910 H          1 MOL1         0.0833
       6    H4      22.312941   18.942012   21.954321 H          1 MOL1         0.0833
       7    C3      20.941610   17.330244   22.535163 C.3        1 MOL1        -0.1684
       8    H5      21.772311   16.871683   23.088964 H          1 MOL1         0.0833
       9    H6      20.445825   16.507017   22.002943 H          1 MOL1         0.0833
      10    C4      19.937232   17.926368   23.551811 C.3        1 MOL1        -0.1760
      11    H7      18.966251   18.057609   23.062456 H          1 MOL1         0.0833
      12    H8      19.758429   17.174146   24.331697 H          1 MOL1         0.0833
      13    C5      20.411402   19.252992   24.196859 C.3        1 MOL1         0.1219
      14    H9      21.424846   19.488966   23.850486 H          1 MOL1         0.0790
      15    C6      19.501907   20.461789   23.878145 C.3        1 MOL1        -0.1760
      16    H10     18.581628   20.389219   24.472497 H          1 MOL1         0.0833
      17    H11     20.015504   21.367593   24.226256 H          1 MOL1         0.0833
      18    C7      19.100300   20.662138   22.391260 C.3        1 MOL1        -0.1684
      19    H12     18.631789   21.653012   22.315457 H          1 MOL1         0.0833
      20    H13     18.310007   19.956393   22.105027 H          1 MOL1         0.0833
      21    C8      20.259193   20.600523   21.364703 C.3        1 MOL1        -0.1684
      22    H14     21.180229   21.022650   21.788710 H          1 MOL1         0.0833
      23    H15     19.986943   21.271783   20.538518 H          1 MOL1         0.0833
      24    O1      20.455174   19.093609   25.609174 O.3        1 MOL1        -0.5508
      25    H16     19.541595   18.884957   25.893002 H          1 MOL1         0.3780
@<TRIPOS>BOND
    1     1     2    1
    2     1     3    1
    3     1     4    1
    4     4     5    1
    5     4     6    1
    6     4     7    1
    7     7     8    1
    8     7     9    1
    9     7    10    1
   10    10    11    1
   11    10    12    1
   12    10    13    1
   13    13    14    1
   14    13    15    1
   15    15    16    1
   16    15    17    1
   17    15    18    1
   18    18    19    1
   19    18    20    1
   20     1    21    1
   21    18    21    1
   22    21    22    1
   23    21    23    1
   24    13    24    1
   25    24    25    1
@<TRIPOS>SUBSTRUCTURE
       1 MOL1            1 RESIDUE      1      MOL     
@<SCITEGIC>MOL_PROPERTY
VM2 Rank
SciTegic.value.IntegerValue
49

@<SCITEGIC>MOL_PROPERTY
Conf_Id
SciTegic.value.IntegerValue
1246

@<SCITEGIC>MOL_PROPERTY
Probability
SciTegic.value.DoubleValue
0.40

@<SCITEGIC>MOL_PROPERTY
Sum Probability
SciTegic.value.DoubleValue
94.49

@<SCITEGIC>MOL_PROPERTY
Delta G
SciTegic.value.DoubleValue
1.500

@<SCITEGIC>MOL_PROPERTY
G
SciTegic.value.DoubleValue
63.576

@<SCITEGIC>MOL_PROPERTY
E
SciTegic.value.DoubleValue
31.187

@<SCITEGIC>MOL_PROPERTY
-TS
SciTegic.value.DoubleValue
32.388

@<SCITEGIC>MOL_PROPERTY
U+W
SciTegic.value.DoubleValue
10.620

@<SCITEGIC>MOL_PROPERTY
U
SciTegic.value.DoubleValue
12.707

@<SCITEGIC>MOL_PROPERTY
W
SciTegic.value.DoubleValue
-2.087

@<SCITEGIC>MOL_PROPERTY
W(PB)
SciTegic.value.DoubleValue
-4.226

@<SCITEGIC>MOL_PROPERTY
W(SA)
SciTegic.value.DoubleValue
2.139

@<SCITEGIC>MOL_PROPERTY
Valence
SciTegic.value.DoubleValue
18.320

@<SCITEGIC>MOL_PROPERTY
Coulomb
SciTegic.value.DoubleValue
-8.639

@<SCITEGIC>MOL_PROPERTY
VdW
SciTegic.value.DoubleValue
3.026

@<SCITEGIC>MOL_PROPERTY
VdW6
SciTegic.value.DoubleValue
-12.424

@<SCITEGIC>MOL_PROPERTY
VdW12
SciTegic.value.DoubleValue
15.450

@<SCITEGIC>MOL_PROPERTY
Bond
SciTegic.value.DoubleValue
0.436

@<SCITEGIC>MOL_PROPERTY
Angle
SciTegic.value.DoubleValue
4.453

@<SCITEGIC>MOL_PROPERTY
Pdih
SciTegic.value.DoubleValue
13.431

@<SCITEGIC>MOL_PROPERTY
Idih
SciTegic.value.DoubleValue
0.000

@<SCITEGIC>MOL_PROPERTY
Tether
SciTegic.value.DoubleValue
0.000

@<TRIPOS>MOLECULE
guest-s17_vm2.mol2 : vm2 ligand conformer 50
          25          25           1
SMALL
USER_CHARGES
 
@<TRIPOS>ATOM
       1    C1      20.947088   19.394940   20.768805 C.3        1 MOL1        -0.1684
       2    H1      21.044679   19.427710   19.675010 H          1 MOL1         0.0833
       3    H2      21.868875   19.856049   21.145527 H          1 MOL1         0.0833
       4    C2      20.879612   17.898399   21.173124 C.3        1 MOL1        -0.1684
       5    H3      20.160671   17.386100   20.519325 H          1 MOL1         0.0833
       6    H4      21.855709   17.442105   20.959020 H          1 MOL1         0.0833
       7    C3      20.500517   17.594342   22.642313 C.3        1 MOL1        -0.1684
       8    H5      20.697771   16.530811   22.833945 H          1 MOL1         0.0833
       9    H6      19.417590   17.706866   22.767633 H          1 MOL1         0.0833
      10    C4      21.278664   18.441992   23.684045 C.3        1 MOL1        -0.1760
      11    H7      21.808976   17.764698   24.366778 H          1 MOL1         0.0833
      12    H8      22.073924   19.020650   23.201886 H          1 MOL1         0.0833
      13    C5      20.405161   19.396772   24.530375 C.3        1 MOL1         0.1219
      14    H9      21.081726   20.099744   25.037192 H          1 MOL1         0.0790
      15    C6      19.346066   20.226653   23.761320 C.3        1 MOL1        -0.1760
      16    H10     18.486844   19.604491   23.482720 H          1 MOL1         0.0833
      17    H11     18.945519   20.958832   24.474840 H          1 MOL1         0.0833
      18    C7      19.854723   21.006937   22.521605 C.3        1 MOL1        -0.1684
      19    H12     20.881186   21.364339   22.679473 H          1 MOL1         0.0833
      20    H13     19.240367   21.914479   22.443259 H          1 MOL1         0.0833
      21    C8      19.723726   20.258238   21.166018 C.3        1 MOL1        -0.1684
      22    H14     19.610293   21.026193   20.388490 H          1 MOL1         0.0833
      23    H15     18.799203   19.666726   21.126546 H          1 MOL1         0.0833
      24    O1      19.728443   18.624726   25.512394 O.3        1 MOL1        -0.5508
      25    H16     19.249270   17.926940   25.021176 H          1 MOL1         0.3780
@<TRIPOS>BOND
    1     1     2    1
    2     1     3    1
    3     1     4    1
    4     4     5    1
    5     4     6    1
    6     4     7    1
    7     7     8    1
    8     7     9    1
    9     7    10    1
   10    10    11    1
   11    10    12    1
   12    10    13    1
   13    13    14    1
   14    13    15    1
   15    15    16    1
   16    15    17    1
   17    15    18    1
   18    18    19    1
   19    18    20    1
   20     1    21    1
   21    18    21    1
   22    21    22    1
   23    21    23    1
   24    13    24    1
   25    24    25    1
@<TRIPOS>SUBSTRUCTURE
       1 MOL1            1 RESIDUE      1      MOL     
@<SCITEGIC>MOL_PROPERTY
VM2 Rank
SciTegic.value.IntegerValue
50

@<SCITEGIC>MOL_PROPERTY
Conf_Id
SciTegic.value.IntegerValue
1541

@<SCITEGIC>MOL_PROPERTY
Probability
SciTegic.value.DoubleValue
0.31

@<SCITEGIC>MOL_PROPERTY
Sum Probability
SciTegic.value.DoubleValue
94.80

@<SCITEGIC>MOL_PROPERTY
Delta G
SciTegic.value.DoubleValue
1.650

@<SCITEGIC>MOL_PROPERTY
G
SciTegic.value.DoubleValue
63.726

@<SCITEGIC>MOL_PROPERTY
E
SciTegic.value.DoubleValue
31.413

@<SCITEGIC>MOL_PROPERTY
-TS
SciTegic.value.DoubleValue
32.313

@<SCITEGIC>MOL_PROPERTY
U+W
SciTegic.value.DoubleValue
10.845

@<SCITEGIC>MOL_PROPERTY
U
SciTegic.value.DoubleValue
12.433

@<SCITEGIC>MOL_PROPERTY
W
SciTegic.value.DoubleValue
-1.588

@<SCITEGIC>MOL_PROPERTY
W(PB)
SciTegic.value.DoubleValue
-3.713

@<SCITEGIC>MOL_PROPERTY
W(SA)
SciTegic.value.DoubleValue
2.126

@<SCITEGIC>MOL_PROPERTY
Valence
SciTegic.value.DoubleValue
19.007

@<SCITEGIC>MOL_PROPERTY
Coulomb
SciTegic.value.DoubleValue
-9.373

@<SCITEGIC>MOL_PROPERTY
VdW
SciTegic.value.DoubleValue
2.799

@<SCITEGIC>MOL_PROPERTY
VdW6
SciTegic.value.DoubleValue
-12.597

@<SCITEGIC>MOL_PROPERTY
VdW12
SciTegic.value.DoubleValue
15.396

@<SCITEGIC>MOL_PROPERTY
Bond
SciTegic.value.DoubleValue
0.425

@<SCITEGIC>MOL_PROPERTY
Angle
SciTegic.value.DoubleValue
4.785

@<SCITEGIC>MOL_PROPERTY
Pdih
SciTegic.value.DoubleValue
13.798

@<SCITEGIC>MOL_PROPERTY
Idih
SciTegic.value.DoubleValue
0.000

@<SCITEGIC>MOL_PROPERTY
Tether
SciTegic.value.DoubleValue
0.000

@<TRIPOS>MOLECULE
guest-s17_vm2.mol2 : vm2 ligand conformer 51
          25          25           1
SMALL
USER_CHARGES
 
@<TRIPOS>ATOM
       1    C1      19.891194   19.003314   20.794220 C.3        1 MOL1        -0.1684
       2    H1      18.938951   18.618921   21.181054 H          1 MOL1         0.0833
       3    H2      19.760624   19.028439   19.703668 H          1 MOL1         0.0833
       4    C2      21.043548   18.007511   21.089656 C.3        1 MOL1        -0.1684
       5    H3      20.704283   17.000855   20.809717 H          1 MOL1         0.0833
       6    H4      21.887949   18.233602   20.424342 H          1 MOL1         0.0833
       7    C3      21.569714   17.966477   22.544578 C.3        1 MOL1        -0.1684
       8    H5      22.238034   18.818159   22.717077 H          1 MOL1         0.0833
       9    H6      22.211071   17.080875   22.650207 H          1 MOL1         0.0833
      10    C4      20.454453   17.905257   23.620634 C.3        1 MOL1        -0.1760
      11    H7      19.474523   17.740080   23.159285 H          1 MOL1         0.0833
      12    H8      20.624478   17.019490   24.246497 H          1 MOL1         0.0833
      13    C5      20.399236   19.133965   24.557382 C.3        1 MOL1         0.1219
      14    H9      21.251447   19.063497   25.248465 H          1 MOL1         0.0790
      15    C6      20.475819   20.526431   23.879406 C.3        1 MOL1        -0.1760
      16    H10     20.253452   21.272670   24.654012 H          1 MOL1         0.0833
      17    H11     21.508729   20.741996   23.580839 H          1 MOL1         0.0833
      18    C7      19.520989   20.779250   22.682152 C.3        1 MOL1        -0.1684
      19    H12     19.286060   21.852533   22.686139 H          1 MOL1         0.0833
      20    H13     18.558223   20.272840   22.828577 H          1 MOL1         0.0833
      21    C8      20.113203   20.456155   21.282626 C.3        1 MOL1        -0.1684
      22    H14     21.175814   20.728329   21.228184 H          1 MOL1         0.0833
      23    H15     19.607434   21.114977   20.563373 H          1 MOL1         0.0833
      24    O1      19.195844   19.064640   25.309346 O.3        1 MOL1        -0.5508
      25    H16     18.471897   19.226274   24.671443 H          1 MOL1         0.3780
@<TRIPOS>BOND
    1     1     2    1
    2     1     3    1
    3     1     4    1
    4     4     5    1
    5     4     6    1
    6     4     7    1
    7     7     8    1
    8     7     9    1
    9     7    10    1
   10    10    11    1
   11    10    12    1
   12    10    13    1
   13    13    14    1
   14    13    15    1
   15    15    16    1
   16    15    17    1
   17    15    18    1
   18    18    19    1
   19    18    20    1
   20     1    21    1
   21    18    21    1
   22    21    22    1
   23    21    23    1
   24    13    24    1
   25    24    25    1
@<TRIPOS>SUBSTRUCTURE
       1 MOL1            1 RESIDUE      1      MOL     
@<SCITEGIC>MOL_PROPERTY
VM2 Rank
SciTegic.value.IntegerValue
51

@<SCITEGIC>MOL_PROPERTY
Conf_Id
SciTegic.value.IntegerValue
992

@<SCITEGIC>MOL_PROPERTY
Probability
SciTegic.value.DoubleValue
0.27

@<SCITEGIC>MOL_PROPERTY
Sum Probability
SciTegic.value.DoubleValue
95.07

@<SCITEGIC>MOL_PROPERTY
Delta G
SciTegic.value.DoubleValue
1.717

@<SCITEGIC>MOL_PROPERTY
G
SciTegic.value.DoubleValue
63.793

@<SCITEGIC>MOL_PROPERTY
E
SciTegic.value.DoubleValue
31.518

@<SCITEGIC>MOL_PROPERTY
-TS
SciTegic.value.DoubleValue
32.274

@<SCITEGIC>MOL_PROPERTY
U+W
SciTegic.value.DoubleValue
10.950

@<SCITEGIC>MOL_PROPERTY
U
SciTegic.value.DoubleValue
12.526

@<SCITEGIC>MOL_PROPERTY
W
SciTegic.value.DoubleValue
-1.576

@<SCITEGIC>MOL_PROPERTY
W(PB)
SciTegic.value.DoubleValue
-3.699

@<SCITEGIC>MOL_PROPERTY
W(SA)
SciTegic.value.DoubleValue
2.123

@<SCITEGIC>MOL_PROPERTY
Valence
SciTegic.value.DoubleValue
19.016

@<SCITEGIC>MOL_PROPERTY
Coulomb
SciTegic.value.DoubleValue
-9.226

@<SCITEGIC>MOL_PROPERTY
VdW
SciTegic.value.DoubleValue
2.737

@<SCITEGIC>MOL_PROPERTY
VdW6
SciTegic.value.DoubleValue
-12.612

@<SCITEGIC>MOL_PROPERTY
VdW12
SciTegic.value.DoubleValue
15.349

@<SCITEGIC>MOL_PROPERTY
Bond
SciTegic.value.DoubleValue
0.421

@<SCITEGIC>MOL_PROPERTY
Angle
SciTegic.value.DoubleValue
4.883

@<SCITEGIC>MOL_PROPERTY
Pdih
SciTegic.value.DoubleValue
13.711

@<SCITEGIC>MOL_PROPERTY
Idih
SciTegic.value.DoubleValue
0.000

@<SCITEGIC>MOL_PROPERTY
Tether
SciTegic.value.DoubleValue
0.000

@<TRIPOS>MOLECULE
guest-s17_vm2.mol2 : vm2 ligand conformer 52
          25          25           1
SMALL
USER_CHARGES
 
@<TRIPOS>ATOM
       1    C1      19.851427   19.052456   20.798200 C.3        1 MOL1        -0.1684
       2    H1      18.908750   18.653851   21.193977 H          1 MOL1         0.0833
       3    H2      19.768431   18.937664   19.708743 H          1 MOL1         0.0833
       4    C2      21.038313   18.182758   21.281413 C.3        1 MOL1        -0.1684
       5    H3      21.140030   17.355977   20.564992 H          1 MOL1         0.0833
       6    H4      21.982409   18.740219   21.217336 H          1 MOL1         0.0833
       7    C3      20.857858   17.541939   22.685180 C.3        1 MOL1        -0.1684
       8    H5      21.449538   16.616172   22.688740 H          1 MOL1         0.0833
       9    H6      19.819739   17.221205   22.840906 H          1 MOL1         0.0833
      10    C4      21.364391   18.400508   23.874852 C.3        1 MOL1        -0.1760
      11    H7      21.739854   17.718545   24.649634 H          1 MOL1         0.0833
      12    H8      22.245612   18.976021   23.567044 H          1 MOL1         0.0833
      13    C5      20.331951   19.335266   24.556595 C.3        1 MOL1         0.1219
      14    H9      20.890770   19.990023   25.240586 H          1 MOL1         0.0790
      15    C6      19.496199   20.240076   23.622195 C.3        1 MOL1        -0.1760
      16    H10     18.682286   19.662974   23.169547 H          1 MOL1         0.0833
      17    H11     18.995792   20.990014   24.248599 H          1 MOL1         0.0833
      18    C7      20.320819   20.979613   22.536590 C.3        1 MOL1        -0.1684
      19    H12     21.396742   20.849383   22.701522 H          1 MOL1         0.0833
      20    H13     20.150221   22.060004   22.638758 H          1 MOL1         0.0833
      21    C8      19.966288   20.572573   21.086085 C.3        1 MOL1        -0.1684
      22    H14     20.718749   21.005859   20.413150 H          1 MOL1         0.0833
      23    H15     19.013092   21.044493   20.811255 H          1 MOL1         0.0833
      24    O1      19.436756   18.537810   25.318889 O.3        1 MOL1        -0.5508
      25    H16     19.033659   17.909215   24.686812 H          1 MOL1         0.3780
@<TRIPOS>BOND
    1     1     2    1
    2     1     3    1
    3     1     4    1
    4     4     5    1
    5     4     6    1
    6     4     7    1
    7     7     8    1
    8     7     9    1
    9     7    10    1
   10    10    11    1
   11    10    12    1
   12    10    13    1
   13    13    14    1
   14    13    15    1
   15    15    16    1
   16    15    17    1
   17    15    18    1
   18    18    19    1
   19    18    20    1
   20     1    21    1
   21    18    21    1
   22    21    22    1
   23    21    23    1
   24    13    24    1
   25    24    25    1
@<TRIPOS>SUBSTRUCTURE
       1 MOL1            1 RESIDUE      1      MOL     
@<SCITEGIC>MOL_PROPERTY
VM2 Rank
SciTegic.value.IntegerValue
52

@<SCITEGIC>MOL_PROPERTY
Conf_Id
SciTegic.value.IntegerValue
326

@<SCITEGIC>MOL_PROPERTY
Probability
SciTegic.value.DoubleValue
0.27

@<SCITEGIC>MOL_PROPERTY
Sum Probability
SciTegic.value.DoubleValue
95.35

@<SCITEGIC>MOL_PROPERTY
Delta G
SciTegic.value.DoubleValue
1.725

@<SCITEGIC>MOL_PROPERTY
G
SciTegic.value.DoubleValue
63.800

@<SCITEGIC>MOL_PROPERTY
E
SciTegic.value.DoubleValue
31.526

@<SCITEGIC>MOL_PROPERTY
-TS
SciTegic.value.DoubleValue
32.274

@<SCITEGIC>MOL_PROPERTY
U+W
SciTegic.value.DoubleValue
10.958

@<SCITEGIC>MOL_PROPERTY
U
SciTegic.value.DoubleValue
12.527

@<SCITEGIC>MOL_PROPERTY
W
SciTegic.value.DoubleValue
-1.568

@<SCITEGIC>MOL_PROPERTY
W(PB)
SciTegic.value.DoubleValue
-3.703

@<SCITEGIC>MOL_PROPERTY
W(SA)
SciTegic.value.DoubleValue
2.135

@<SCITEGIC>MOL_PROPERTY
Valence
SciTegic.value.DoubleValue
19.016

@<SCITEGIC>MOL_PROPERTY
Coulomb
SciTegic.value.DoubleValue
-9.226

@<SCITEGIC>MOL_PROPERTY
VdW
SciTegic.value.DoubleValue
2.737

@<SCITEGIC>MOL_PROPERTY
VdW6
SciTegic.value.DoubleValue
-12.612

@<SCITEGIC>MOL_PROPERTY
VdW12
SciTegic.value.DoubleValue
15.349

@<SCITEGIC>MOL_PROPERTY
Bond
SciTegic.value.DoubleValue
0.421

@<SCITEGIC>MOL_PROPERTY
Angle
SciTegic.value.DoubleValue
4.883

@<SCITEGIC>MOL_PROPERTY
Pdih
SciTegic.value.DoubleValue
13.711

@<SCITEGIC>MOL_PROPERTY
Idih
SciTegic.value.DoubleValue
0.000

@<SCITEGIC>MOL_PROPERTY
Tether
SciTegic.value.DoubleValue
0.000

@<TRIPOS>MOLECULE
guest-s17_vm2.mol2 : vm2 ligand conformer 53
          25          25           1
SMALL
USER_CHARGES
 
@<TRIPOS>ATOM
       1    C1      20.924396   19.541805   20.780404 C.3        1 MOL1        -0.1684
       2    H1      21.034200   19.593385   19.688494 H          1 MOL1         0.0833
       3    H2      21.895917   19.865882   21.174554 H          1 MOL1         0.0833
       4    C2      20.663985   18.064185   21.165748 C.3        1 MOL1        -0.1684
       5    H3      19.592851   17.828611   21.107782 H          1 MOL1         0.0833
       6    H4      21.139498   17.445152   20.392536 H          1 MOL1         0.0833
       7    C3      21.264264   17.620524   22.528886 C.3        1 MOL1        -0.1684
       8    H5      22.239941   18.093103   22.704979 H          1 MOL1         0.0833
       9    H6      21.473248   16.544871   22.448284 H          1 MOL1         0.0833
      10    C4      20.332894   17.805842   23.754719 C.3        1 MOL1        -0.1760
      11    H7      19.290091   17.639381   23.458380 H          1 MOL1         0.0833
      12    H8      20.556139   17.001223   24.467728 H          1 MOL1         0.0833
      13    C5      20.482059   19.137553   24.533256 C.3        1 MOL1         0.1219
      14    H9      21.449253   19.116510   25.055620 H          1 MOL1         0.0790
      15    C6      20.437743   20.434742   23.692881 C.3        1 MOL1        -0.1760
      16    H10     20.322487   21.285026   24.378312 H          1 MOL1         0.0833
      17    H11     21.416836   20.590724   23.227257 H          1 MOL1         0.0833
      18    C7      19.305053   20.489006   22.633024 C.3        1 MOL1        -0.1684
      19    H12     18.689190   21.379348   22.819391 H          1 MOL1         0.0833
      20    H13     18.617233   19.642878   22.742887 H          1 MOL1         0.0833
      21    C8      19.811688   20.549830   21.172096 C.3        1 MOL1        -0.1684
      22    H14     20.182219   21.563900   20.969174 H          1 MOL1         0.0833
      23    H15     18.951768   20.406808   20.503618 H          1 MOL1         0.0833
      24    O1      19.441918   19.199514   25.498985 O.3        1 MOL1        -0.5508
      25    H16     18.617625   19.356321   24.995238 H          1 MOL1         0.3780
@<TRIPOS>BOND
    1     1     2    1
    2     1     3    1
    3     1     4    1
    4     4     5    1
    5     4     6    1
    6     4     7    1
    7     7     8    1
    8     7     9    1
    9     7    10    1
   10    10    11    1
   11    10    12    1
   12    10    13    1
   13    13    14    1
   14    13    15    1
   15    15    16    1
   16    15    17    1
   17    15    18    1
   18    18    19    1
   19    18    20    1
   20     1    21    1
   21    18    21    1
   22    21    22    1
   23    21    23    1
   24    13    24    1
   25    24    25    1
@<TRIPOS>SUBSTRUCTURE
       1 MOL1            1 RESIDUE      1      MOL     
@<SCITEGIC>MOL_PROPERTY
VM2 Rank
SciTegic.value.IntegerValue
53

@<SCITEGIC>MOL_PROPERTY
Conf_Id
SciTegic.value.IntegerValue
1373

@<SCITEGIC>MOL_PROPERTY
Probability
SciTegic.value.DoubleValue
0.27

@<SCITEGIC>MOL_PROPERTY
Sum Probability
SciTegic.value.DoubleValue
95.62

@<SCITEGIC>MOL_PROPERTY
Delta G
SciTegic.value.DoubleValue
1.726

@<SCITEGIC>MOL_PROPERTY
G
SciTegic.value.DoubleValue
63.801

@<SCITEGIC>MOL_PROPERTY
E
SciTegic.value.DoubleValue
31.489

@<SCITEGIC>MOL_PROPERTY
-TS
SciTegic.value.DoubleValue
32.312

@<SCITEGIC>MOL_PROPERTY
U+W
SciTegic.value.DoubleValue
10.921

@<SCITEGIC>MOL_PROPERTY
U
SciTegic.value.DoubleValue
12.433

@<SCITEGIC>MOL_PROPERTY
W
SciTegic.value.DoubleValue
-1.511

@<SCITEGIC>MOL_PROPERTY
W(PB)
SciTegic.value.DoubleValue
-3.669

@<SCITEGIC>MOL_PROPERTY
W(SA)
SciTegic.value.DoubleValue
2.157

@<SCITEGIC>MOL_PROPERTY
Valence
SciTegic.value.DoubleValue
19.007

@<SCITEGIC>MOL_PROPERTY
Coulomb
SciTegic.value.DoubleValue
-9.373

@<SCITEGIC>MOL_PROPERTY
VdW
SciTegic.value.DoubleValue
2.799

@<SCITEGIC>MOL_PROPERTY
VdW6
SciTegic.value.DoubleValue
-12.597

@<SCITEGIC>MOL_PROPERTY
VdW12
SciTegic.value.DoubleValue
15.396

@<SCITEGIC>MOL_PROPERTY
Bond
SciTegic.value.DoubleValue
0.425

@<SCITEGIC>MOL_PROPERTY
Angle
SciTegic.value.DoubleValue
4.785

@<SCITEGIC>MOL_PROPERTY
Pdih
SciTegic.value.DoubleValue
13.798

@<SCITEGIC>MOL_PROPERTY
Idih
SciTegic.value.DoubleValue
0.000

@<SCITEGIC>MOL_PROPERTY
Tether
SciTegic.value.DoubleValue
0.000

@<TRIPOS>MOLECULE
guest-s17_vm2.mol2 : vm2 ligand conformer 54
          25          25           1
SMALL
USER_CHARGES
 
@<TRIPOS>ATOM
       1    C1      19.660733   18.881502   21.120242 C.3        1 MOL1        -0.1684
       2    H1      18.877066   18.341642   21.660721 H          1 MOL1         0.0833
       3    H2      19.388381   18.742882   20.064693 H          1 MOL1         0.0833
       4    C2      21.039415   18.208784   21.338554 C.3        1 MOL1        -0.1684
       5    H3      21.138691   17.423700   20.576327 H          1 MOL1         0.0833
       6    H4      21.861469   18.905727   21.132412 H          1 MOL1         0.0833
       7    C3      21.226957   17.516508   22.713535 C.3        1 MOL1        -0.1684
       8    H5      22.124380   16.887822   22.634761 H          1 MOL1         0.0833
       9    H6      20.404406   16.810693   22.891040 H          1 MOL1         0.0833
      10    C4      21.426228   18.433941   23.955254 C.3        1 MOL1        -0.1760
      11    H7      21.755999   17.784369   24.776463 H          1 MOL1         0.0833
      12    H8      22.267240   19.117858   23.787784 H          1 MOL1         0.0833
      13    C5      20.195696   19.218502   24.486128 C.3        1 MOL1         0.1219
      14    H9      20.319843   19.296373   25.575942 H          1 MOL1         0.0790
      15    C6      20.055347   20.674256   23.977697 C.3        1 MOL1        -0.1760
      16    H10     19.024186   21.015884   24.138949 H          1 MOL1         0.0833
      17    H11     20.671940   21.301730   24.634380 H          1 MOL1         0.0833
      18    C7      20.480569   20.990458   22.521028 C.3        1 MOL1        -0.1684
      19    H12     21.533489   20.734592   22.359326 H          1 MOL1         0.0833
      20    H13     20.448057   22.083368   22.414569 H          1 MOL1         0.0833
      21    C8      19.588378   20.406876   21.396603 C.3        1 MOL1        -0.1684
      22    H14     19.878551   20.916898   20.467651 H          1 MOL1         0.0833
      23    H15     18.542477   20.693988   21.570793 H          1 MOL1         0.0833
      24    O1      18.990678   18.512173   24.250959 O.3        1 MOL1        -0.5508
      25    H16     18.930986   18.469052   23.278295 H          1 MOL1         0.3780
@<TRIPOS>BOND
    1     1     2    1
    2     1     3    1
    3     1     4    1
    4     4     5    1
    5     4     6    1
    6     4     7    1
    7     7     8    1
    8     7     9    1
    9     7    10    1
   10    10    11    1
   11    10    12    1
   12    10    13    1
   13    13    14    1
   14    13    15    1
   15    15    16    1
   16    15    17    1
   17    15    18    1
   18    18    19    1
   19    18    20    1
   20     1    21    1
   21    18    21    1
   22    21    22    1
   23    21    23    1
   24    13    24    1
   25    24    25    1
@<TRIPOS>SUBSTRUCTURE
       1 MOL1            1 RESIDUE      1      MOL     
@<SCITEGIC>MOL_PROPERTY
VM2 Rank
SciTegic.value.IntegerValue
54

@<SCITEGIC>MOL_PROPERTY
Conf_Id
SciTegic.value.IntegerValue
1369

@<SCITEGIC>MOL_PROPERTY
Probability
SciTegic.value.DoubleValue
0.20

@<SCITEGIC>MOL_PROPERTY
Sum Probability
SciTegic.value.DoubleValue
95.82

@<SCITEGIC>MOL_PROPERTY
Delta G
SciTegic.value.DoubleValue
1.897

@<SCITEGIC>MOL_PROPERTY
G
SciTegic.value.DoubleValue
63.972

@<SCITEGIC>MOL_PROPERTY
E
SciTegic.value.DoubleValue
31.774

@<SCITEGIC>MOL_PROPERTY
-TS
SciTegic.value.DoubleValue
32.198

@<SCITEGIC>MOL_PROPERTY
U+W
SciTegic.value.DoubleValue
11.207

@<SCITEGIC>MOL_PROPERTY
U
SciTegic.value.DoubleValue
12.093

@<SCITEGIC>MOL_PROPERTY
W
SciTegic.value.DoubleValue
-0.886

@<SCITEGIC>MOL_PROPERTY
W(PB)
SciTegic.value.DoubleValue
-2.996

@<SCITEGIC>MOL_PROPERTY
W(SA)
SciTegic.value.DoubleValue
2.110

@<SCITEGIC>MOL_PROPERTY
Valence
SciTegic.value.DoubleValue
19.646

@<SCITEGIC>MOL_PROPERTY
Coulomb
SciTegic.value.DoubleValue
-9.930

@<SCITEGIC>MOL_PROPERTY
VdW
SciTegic.value.DoubleValue
2.377

@<SCITEGIC>MOL_PROPERTY
VdW6
SciTegic.value.DoubleValue
-13.909

@<SCITEGIC>MOL_PROPERTY
VdW12
SciTegic.value.DoubleValue
16.286

@<SCITEGIC>MOL_PROPERTY
Bond
SciTegic.value.DoubleValue
0.498

@<SCITEGIC>MOL_PROPERTY
Angle
SciTegic.value.DoubleValue
8.148

@<SCITEGIC>MOL_PROPERTY
Pdih
SciTegic.value.DoubleValue
11.000

@<SCITEGIC>MOL_PROPERTY
Idih
SciTegic.value.DoubleValue
0.000

@<SCITEGIC>MOL_PROPERTY
Tether
SciTegic.value.DoubleValue
0.000

@<TRIPOS>MOLECULE
guest-s17_vm2.mol2 : vm2 ligand conformer 55
          25          25           1
SMALL
USER_CHARGES
 
@<TRIPOS>ATOM
       1    C1      20.869101   19.438351   20.600465 C.3        1 MOL1        -0.1684
       2    H1      21.668426   20.126226   20.292764 H          1 MOL1         0.0833
       3    H2      20.554373   18.920368   19.684225 H          1 MOL1         0.0833
       4    C2      21.474578   18.394790   21.571268 C.3        1 MOL1        -0.1684
       5    H3      22.130153   17.732236   20.989792 H          1 MOL1         0.0833
       6    H4      22.145101   18.895833   22.279018 H          1 MOL1         0.0833
       7    C3      20.426970   17.526941   22.313666 C.3        1 MOL1        -0.1684
       8    H5      20.646596   16.467838   22.121958 H          1 MOL1         0.0833
       9    H6      19.423269   17.683363   21.901653 H          1 MOL1         0.0833
      10    C4      20.401146   17.741888   23.848165 C.3        1 MOL1        -0.1760
      11    H7      19.515270   17.235851   24.254256 H          1 MOL1         0.0833
      12    H8      21.267867   17.229162   24.285284 H          1 MOL1         0.0833
      13    C5      20.420161   19.207508   24.349935 C.3        1 MOL1         0.1219
      14    H9      21.413803   19.638690   24.168984 H          1 MOL1         0.0790
      15    C6      19.355408   20.134146   23.713585 C.3        1 MOL1        -0.1760
      16    H10     18.453573   19.561859   23.461133 H          1 MOL1         0.0833
      17    H11     19.035452   20.858972   24.474014 H          1 MOL1         0.0833
      18    C7      19.849665   20.957819   22.490872 C.3        1 MOL1        -0.1684
      19    H12     20.889639   21.284565   22.625459 H          1 MOL1         0.0833
      20    H13     19.254979   21.881413   22.467182 H          1 MOL1         0.0833
      21    C8      19.663669   20.268576   21.116407 C.3        1 MOL1        -0.1684
      22    H14     19.472193   21.051494   20.369786 H          1 MOL1         0.0833
      23    H15     18.750287   19.660281   21.122746 H          1 MOL1         0.0833
      24    O1      20.203302   19.172979   25.755637 O.3        1 MOL1        -0.5508
      25    H16     20.296182   20.093687   26.078325 H          1 MOL1         0.3780
@<TRIPOS>BOND
    1     1     2    1
    2     1     3    1
    3     1     4    1
    4     4     5    1
    5     4     6    1
    6     4     7    1
    7     7     8    1
    8     7     9    1
    9     7    10    1
   10    10    11    1
   11    10    12    1
   12    10    13    1
   13    13    14    1
   14    13    15    1
   15    15    16    1
   16    15    17    1
   17    15    18    1
   18    18    19    1
   19    18    20    1
   20     1    21    1
   21    18    21    1
   22    21    22    1
   23    21    23    1
   24    13    24    1
   25    24    25    1
@<TRIPOS>SUBSTRUCTURE
       1 MOL1            1 RESIDUE      1      MOL     
@<SCITEGIC>MOL_PROPERTY
VM2 Rank
SciTegic.value.IntegerValue
55

@<SCITEGIC>MOL_PROPERTY
Conf_Id
SciTegic.value.IntegerValue
1567

@<SCITEGIC>MOL_PROPERTY
Probability
SciTegic.value.DoubleValue
0.20

@<SCITEGIC>MOL_PROPERTY
Sum Probability
SciTegic.value.DoubleValue
96.02

@<SCITEGIC>MOL_PROPERTY
Delta G
SciTegic.value.DoubleValue
1.907

@<SCITEGIC>MOL_PROPERTY
G
SciTegic.value.DoubleValue
63.982

@<SCITEGIC>MOL_PROPERTY
E
SciTegic.value.DoubleValue
31.698

@<SCITEGIC>MOL_PROPERTY
-TS
SciTegic.value.DoubleValue
32.284

@<SCITEGIC>MOL_PROPERTY
U+W
SciTegic.value.DoubleValue
11.131

@<SCITEGIC>MOL_PROPERTY
U
SciTegic.value.DoubleValue
13.296

@<SCITEGIC>MOL_PROPERTY
W
SciTegic.value.DoubleValue
-2.166

@<SCITEGIC>MOL_PROPERTY
W(PB)
SciTegic.value.DoubleValue
-4.311

@<SCITEGIC>MOL_PROPERTY
W(SA)
SciTegic.value.DoubleValue
2.146

@<SCITEGIC>MOL_PROPERTY
Valence
SciTegic.value.DoubleValue
18.607

@<SCITEGIC>MOL_PROPERTY
Coulomb
SciTegic.value.DoubleValue
-8.339

@<SCITEGIC>MOL_PROPERTY
VdW
SciTegic.value.DoubleValue
3.028

@<SCITEGIC>MOL_PROPERTY
VdW6
SciTegic.value.DoubleValue
-12.271

@<SCITEGIC>MOL_PROPERTY
VdW12
SciTegic.value.DoubleValue
15.299

@<SCITEGIC>MOL_PROPERTY
Bond
SciTegic.value.DoubleValue
0.424

@<SCITEGIC>MOL_PROPERTY
Angle
SciTegic.value.DoubleValue
4.488

@<SCITEGIC>MOL_PROPERTY
Pdih
SciTegic.value.DoubleValue
13.696

@<SCITEGIC>MOL_PROPERTY
Idih
SciTegic.value.DoubleValue
0.000

@<SCITEGIC>MOL_PROPERTY
Tether
SciTegic.value.DoubleValue
0.000

@<TRIPOS>MOLECULE
guest-s17_vm2.mol2 : vm2 ligand conformer 56
          25          25           1
SMALL
USER_CHARGES
 
@<TRIPOS>ATOM
       1    C1      20.865421   19.436342   20.597464 C.3        1 MOL1        -0.1684
       2    H1      20.547561   18.914915   19.684267 H          1 MOL1         0.0833
       3    H2      21.663840   20.123014   20.284760 H          1 MOL1         0.0833
       4    C2      21.473529   18.397168   21.571036 C.3        1 MOL1        -0.1684
       5    H3      22.131677   17.734919   20.992119 H          1 MOL1         0.0833
       6    H4      22.141439   18.902685   22.278093 H          1 MOL1         0.0833
       7    C3      20.426953   17.529012   22.314354 C.3        1 MOL1        -0.1684
       8    H5      20.644561   16.470059   22.119389 H          1 MOL1         0.0833
       9    H6      19.422179   17.687502   21.905736 H          1 MOL1         0.0833
      10    C4      20.405583   17.741118   23.848973 C.3        1 MOL1        -0.1760
      11    H7      19.520701   17.232195   24.254183 H          1 MOL1         0.0833
      12    H8      21.274908   17.226715   24.278836 H          1 MOL1         0.0833
      13    C5      20.421551   19.206876   24.352226 C.3        1 MOL1         0.1219
      14    H9      21.414319   19.642258   24.176305 H          1 MOL1         0.0790
      15    C6      19.359558   20.135257   23.714241 C.3        1 MOL1        -0.1760
      16    H10     18.453293   19.567720   23.467830 H          1 MOL1         0.0833
      17    H11     19.050156   20.861375   24.478278 H          1 MOL1         0.0833
      18    C7      19.852704   20.957137   22.489549 C.3        1 MOL1        -0.1684
      19    H12     20.893578   21.281605   22.622440 H          1 MOL1         0.0833
      20    H13     19.260091   21.882053   22.467510 H          1 MOL1         0.0833
      21    C8      19.662256   20.268536   21.115382 C.3        1 MOL1        -0.1684
      22    H14     19.470299   21.051651   20.369101 H          1 MOL1         0.0833
      23    H15     18.747951   19.661661   21.124201 H          1 MOL1         0.0833
      24    O1      20.196447   19.171553   25.756776 O.3        1 MOL1        -0.5508
      25    H16     20.908585   18.620481   26.143549 H          1 MOL1         0.3780
@<TRIPOS>BOND
    1     1     2    1
    2     1     3    1
    3     1     4    1
    4     4     5    1
    5     4     6    1
    6     4     7    1
    7     7     8    1
    8     7     9    1
    9     7    10    1
   10    10    11    1
   11    10    12    1
   12    10    13    1
   13    13    14    1
   14    13    15    1
   15    15    16    1
   16    15    17    1
   17    15    18    1
   18    18    19    1
   19    18    20    1
   20     1    21    1
   21    18    21    1
   22    21    22    1
   23    21    23    1
   24    13    24    1
   25    24    25    1
@<TRIPOS>SUBSTRUCTURE
       1 MOL1            1 RESIDUE      1      MOL     
@<SCITEGIC>MOL_PROPERTY
VM2 Rank
SciTegic.value.IntegerValue
56

@<SCITEGIC>MOL_PROPERTY
Conf_Id
SciTegic.value.IntegerValue
1517

@<SCITEGIC>MOL_PROPERTY
Probability
SciTegic.value.DoubleValue
0.20

@<SCITEGIC>MOL_PROPERTY
Sum Probability
SciTegic.value.DoubleValue
96.22

@<SCITEGIC>MOL_PROPERTY
Delta G
SciTegic.value.DoubleValue
1.921

@<SCITEGIC>MOL_PROPERTY
G
SciTegic.value.DoubleValue
63.996

@<SCITEGIC>MOL_PROPERTY
E
SciTegic.value.DoubleValue
31.721

@<SCITEGIC>MOL_PROPERTY
-TS
SciTegic.value.DoubleValue
32.275

@<SCITEGIC>MOL_PROPERTY
U+W
SciTegic.value.DoubleValue
11.153

@<SCITEGIC>MOL_PROPERTY
U
SciTegic.value.DoubleValue
13.313

@<SCITEGIC>MOL_PROPERTY
W
SciTegic.value.DoubleValue
-2.160

@<SCITEGIC>MOL_PROPERTY
W(PB)
SciTegic.value.DoubleValue
-4.301

@<SCITEGIC>MOL_PROPERTY
W(SA)
SciTegic.value.DoubleValue
2.141

@<SCITEGIC>MOL_PROPERTY
Valence
SciTegic.value.DoubleValue
18.589

@<SCITEGIC>MOL_PROPERTY
Coulomb
SciTegic.value.DoubleValue
-8.331

@<SCITEGIC>MOL_PROPERTY
VdW
SciTegic.value.DoubleValue
3.055

@<SCITEGIC>MOL_PROPERTY
VdW6
SciTegic.value.DoubleValue
-12.273

@<SCITEGIC>MOL_PROPERTY
VdW12
SciTegic.value.DoubleValue
15.328

@<SCITEGIC>MOL_PROPERTY
Bond
SciTegic.value.DoubleValue
0.425

@<SCITEGIC>MOL_PROPERTY
Angle
SciTegic.value.DoubleValue
4.506

@<SCITEGIC>MOL_PROPERTY
Pdih
SciTegic.value.DoubleValue
13.659

@<SCITEGIC>MOL_PROPERTY
Idih
SciTegic.value.DoubleValue
0.000

@<SCITEGIC>MOL_PROPERTY
Tether
SciTegic.value.DoubleValue
0.000

@<TRIPOS>MOLECULE
guest-s17_vm2.mol2 : vm2 ligand conformer 57
          25          25           1
SMALL
USER_CHARGES
 
@<TRIPOS>ATOM
       1    C1      20.862447   19.421112   20.595204 C.3        1 MOL1        -0.1684
       2    H1      20.269465   19.563197   19.681401 H          1 MOL1         0.0833
       3    H2      21.912942   19.488450   20.281038 H          1 MOL1         0.0833
       4    C2      20.587934   17.988315   21.124482 C.3        1 MOL1        -0.1684
       5    H3      19.510437   17.780478   21.135836 H          1 MOL1         0.0833
       6    H4      20.999224   17.289421   20.383241 H          1 MOL1         0.0833
       7    C3      21.207571   17.641261   22.500848 C.3        1 MOL1        -0.1684
       8    H5      22.177564   18.140300   22.629031 H          1 MOL1         0.0833
       9    H6      21.433042   16.566034   22.486954 H          1 MOL1         0.0833
      10    C4      20.280855   17.891409   23.724440 C.3        1 MOL1        -0.1760
      11    H7      19.236425   17.659259   23.480710 H          1 MOL1         0.0833
      12    H8      20.569661   17.162523   24.493886 H          1 MOL1         0.0833
      13    C5      20.388369   19.302813   24.351438 C.3        1 MOL1         0.1219
      14    H9      21.401520   19.686600   24.171646 H          1 MOL1         0.0790
      15    C6      19.349320   20.333304   23.841120 C.3        1 MOL1        -0.1760
      16    H10     18.361810   20.079425   24.249264 H          1 MOL1         0.0833
      17    H11     19.609405   21.312800   24.263096 H          1 MOL1         0.0833
      18    C7      19.214471   20.487587   22.305378 C.3        1 MOL1        -0.1684
      19    H12     18.627297   21.393881   22.103873 H          1 MOL1         0.0833
      20    H13     18.608504   19.667143   21.903717 H          1 MOL1         0.0833
      21    C8      20.568766   20.596068   21.559958 C.3        1 MOL1        -0.1684
      22    H14     21.400124   20.709068   22.265407 H          1 MOL1         0.0833
      23    H15     20.573546   21.525205   20.973817 H          1 MOL1         0.0833
      24    O1      20.204268   19.181131   25.757132 O.3        1 MOL1        -0.5508
      25    H16     20.326142   20.076327   26.136845 H          1 MOL1         0.3780
@<TRIPOS>BOND
    1     1     2    1
    2     1     3    1
    3     1     4    1
    4     4     5    1
    5     4     6    1
    6     4     7    1
    7     7     8    1
    8     7     9    1
    9     7    10    1
   10    10    11    1
   11    10    12    1
   12    10    13    1
   13    13    14    1
   14    13    15    1
   15    15    16    1
   16    15    17    1
   17    15    18    1
   18    18    19    1
   19    18    20    1
   20     1    21    1
   21    18    21    1
   22    21    22    1
   23    21    23    1
   24    13    24    1
   25    24    25    1
@<TRIPOS>SUBSTRUCTURE
       1 MOL1            1 RESIDUE      1      MOL     
@<SCITEGIC>MOL_PROPERTY
VM2 Rank
SciTegic.value.IntegerValue
57

@<SCITEGIC>MOL_PROPERTY
Conf_Id
SciTegic.value.IntegerValue
206

@<SCITEGIC>MOL_PROPERTY
Probability
SciTegic.value.DoubleValue
0.19

@<SCITEGIC>MOL_PROPERTY
Sum Probability
SciTegic.value.DoubleValue
96.40

@<SCITEGIC>MOL_PROPERTY
Delta G
SciTegic.value.DoubleValue
1.940

@<SCITEGIC>MOL_PROPERTY
G
SciTegic.value.DoubleValue
64.015

@<SCITEGIC>MOL_PROPERTY
E
SciTegic.value.DoubleValue
31.739

@<SCITEGIC>MOL_PROPERTY
-TS
SciTegic.value.DoubleValue
32.276

@<SCITEGIC>MOL_PROPERTY
U+W
SciTegic.value.DoubleValue
11.172

@<SCITEGIC>MOL_PROPERTY
U
SciTegic.value.DoubleValue
13.313

@<SCITEGIC>MOL_PROPERTY
W
SciTegic.value.DoubleValue
-2.141

@<SCITEGIC>MOL_PROPERTY
W(PB)
SciTegic.value.DoubleValue
-4.307

@<SCITEGIC>MOL_PROPERTY
W(SA)
SciTegic.value.DoubleValue
2.165

@<SCITEGIC>MOL_PROPERTY
Valence
SciTegic.value.DoubleValue
18.589

@<SCITEGIC>MOL_PROPERTY
Coulomb
SciTegic.value.DoubleValue
-8.331

@<SCITEGIC>MOL_PROPERTY
VdW
SciTegic.value.DoubleValue
3.055

@<SCITEGIC>MOL_PROPERTY
VdW6
SciTegic.value.DoubleValue
-12.273

@<SCITEGIC>MOL_PROPERTY
VdW12
SciTegic.value.DoubleValue
15.328

@<SCITEGIC>MOL_PROPERTY
Bond
SciTegic.value.DoubleValue
0.425

@<SCITEGIC>MOL_PROPERTY
Angle
SciTegic.value.DoubleValue
4.505

@<SCITEGIC>MOL_PROPERTY
Pdih
SciTegic.value.DoubleValue
13.659

@<SCITEGIC>MOL_PROPERTY
Idih
SciTegic.value.DoubleValue
0.000

@<SCITEGIC>MOL_PROPERTY
Tether
SciTegic.value.DoubleValue
0.000

@<TRIPOS>MOLECULE
guest-s17_vm2.mol2 : vm2 ligand conformer 58
          25          25           1
SMALL
USER_CHARGES
 
@<TRIPOS>ATOM
       1    C1      19.985520   19.156476   20.853437 C.3        1 MOL1        -0.1684
       2    H1      18.982346   18.967847   21.253034 H          1 MOL1         0.0833
       3    H2      19.837757   19.266991   19.770524 H          1 MOL1         0.0833
       4    C2      20.880647   17.915701   21.091261 C.3        1 MOL1        -0.1684
       5    H3      20.301246   17.019661   20.830040 H          1 MOL1         0.0833
       6    H4      21.718505   17.945758   20.381356 H          1 MOL1         0.0833
       7    C3      21.464990   17.736321   22.517560 C.3        1 MOL1        -0.1684
       8    H5      22.306509   18.422504   22.677772 H          1 MOL1         0.0833
       9    H6      21.910099   16.732669   22.558383 H          1 MOL1         0.0833
      10    C4      20.451697   17.859799   23.684559 C.3        1 MOL1        -0.1760
      11    H7      19.466483   17.484464   23.379781 H          1 MOL1         0.0833
      12    H8      20.792646   17.172922   24.470640 H          1 MOL1         0.0833
      13    C5      20.336167   19.279836   24.306241 C.3        1 MOL1         0.1219
      14    H9      21.304544   19.794742   24.232338 H          1 MOL1         0.0790
      15    C6      19.240888   20.172460   23.672241 C.3        1 MOL1        -0.1760
      16    H10     18.409746   19.547240   23.325387 H          1 MOL1         0.0833
      17    H11     18.806094   20.807453   24.456031 H          1 MOL1         0.0833
      18    C7      19.717123   21.119256   22.537098 C.3        1 MOL1        -0.1684
      19    H12     20.294775   21.942080   22.979994 H          1 MOL1         0.0833
      20    H13     18.830246   21.585458   22.086652 H          1 MOL1         0.0833
      21    C8      20.567260   20.479514   21.412249 C.3        1 MOL1        -0.1684
      22    H14     21.597126   20.340007   21.761098 H          1 MOL1         0.0833
      23    H15     20.646131   21.204212   20.590417 H          1 MOL1         0.0833
      24    O1      20.019708   19.123638   25.685355 O.3        1 MOL1        -0.5508
      25    H16     20.760532   18.626282   26.090576 H          1 MOL1         0.3780
@<TRIPOS>BOND
    1     1     2    1
    2     1     3    1
    3     1     4    1
    4     4     5    1
    5     4     6    1
    6     4     7    1
    7     7     8    1
    8     7     9    1
    9     7    10    1
   10    10    11    1
   11    10    12    1
   12    10    13    1
   13    13    14    1
   14    13    15    1
   15    15    16    1
   16    15    17    1
   17    15    18    1
   18    18    19    1
   19    18    20    1
   20     1    21    1
   21    18    21    1
   22    21    22    1
   23    21    23    1
   24    13    24    1
   25    24    25    1
@<TRIPOS>SUBSTRUCTURE
       1 MOL1            1 RESIDUE      1      MOL     
@<SCITEGIC>MOL_PROPERTY
VM2 Rank
SciTegic.value.IntegerValue
58

@<SCITEGIC>MOL_PROPERTY
Conf_Id
SciTegic.value.IntegerValue
137

@<SCITEGIC>MOL_PROPERTY
Probability
SciTegic.value.DoubleValue
0.19

@<SCITEGIC>MOL_PROPERTY
Sum Probability
SciTegic.value.DoubleValue
96.59

@<SCITEGIC>MOL_PROPERTY
Delta G
SciTegic.value.DoubleValue
1.947

@<SCITEGIC>MOL_PROPERTY
G
SciTegic.value.DoubleValue
64.022

@<SCITEGIC>MOL_PROPERTY
E
SciTegic.value.DoubleValue
31.664

@<SCITEGIC>MOL_PROPERTY
-TS
SciTegic.value.DoubleValue
32.358

@<SCITEGIC>MOL_PROPERTY
U+W
SciTegic.value.DoubleValue
11.096

@<SCITEGIC>MOL_PROPERTY
U
SciTegic.value.DoubleValue
13.320

@<SCITEGIC>MOL_PROPERTY
W
SciTegic.value.DoubleValue
-2.223

@<SCITEGIC>MOL_PROPERTY
W(PB)
SciTegic.value.DoubleValue
-4.382

@<SCITEGIC>MOL_PROPERTY
W(SA)
SciTegic.value.DoubleValue
2.158

@<SCITEGIC>MOL_PROPERTY
Valence
SciTegic.value.DoubleValue
18.430

@<SCITEGIC>MOL_PROPERTY
Coulomb
SciTegic.value.DoubleValue
-8.418

@<SCITEGIC>MOL_PROPERTY
VdW
SciTegic.value.DoubleValue
3.308

@<SCITEGIC>MOL_PROPERTY
VdW6
SciTegic.value.DoubleValue
-12.374

@<SCITEGIC>MOL_PROPERTY
VdW12
SciTegic.value.DoubleValue
15.682

@<SCITEGIC>MOL_PROPERTY
Bond
SciTegic.value.DoubleValue
0.451

@<SCITEGIC>MOL_PROPERTY
Angle
SciTegic.value.DoubleValue
4.194

@<SCITEGIC>MOL_PROPERTY
Pdih
SciTegic.value.DoubleValue
13.785

@<SCITEGIC>MOL_PROPERTY
Idih
SciTegic.value.DoubleValue
0.000

@<SCITEGIC>MOL_PROPERTY
Tether
SciTegic.value.DoubleValue
0.000

@<TRIPOS>MOLECULE
guest-s17_vm2.mol2 : vm2 ligand conformer 59
          25          25           1
SMALL
USER_CHARGES
 
@<TRIPOS>ATOM
       1    C1      20.045316   19.015631   20.851861 C.3        1 MOL1        -0.1684
       2    H1      19.195092   18.447840   21.247129 H          1 MOL1         0.0833
       3    H2      20.022715   18.832348   19.768970 H          1 MOL1         0.0833
       4    C2      21.384465   18.478882   21.417577 C.3        1 MOL1        -0.1684
       5    H3      21.950914   18.013801   20.599245 H          1 MOL1         0.0833
       6    H4      22.021468   19.300054   21.766397 H          1 MOL1         0.0833
       7    C3      21.219804   17.429922   22.544491 C.3        1 MOL1        -0.1684
       8    H5      22.206546   17.245575   22.990849 H          1 MOL1         0.0833
       9    H6      20.912349   16.475862   22.094898 H          1 MOL1         0.0833
      10    C4      20.212986   17.777901   23.674202 C.3        1 MOL1        -0.1760
      11    H7      19.183255   17.650714   23.319562 H          1 MOL1         0.0833
      12    H8      20.334892   17.015371   24.454976 H          1 MOL1         0.0833
      13    C5      20.375587   19.182817   24.305935 C.3        1 MOL1         0.1219
      14    H9      21.427300   19.493629   24.230878 H          1 MOL1         0.0790
      15    C6      19.468114   20.279610   23.682809 C.3        1 MOL1        -0.1760
      16    H10     18.496671   19.864385   23.386348 H          1 MOL1         0.0833
      17    H11     19.243818   21.010195   24.471883 H          1 MOL1         0.0833
      18    C7      20.104443   21.071064   22.511004 C.3        1 MOL1        -0.1684
      19    H12     21.185618   21.171210   22.671123 H          1 MOL1         0.0833
      20    H13     19.719542   22.099417   22.547846 H          1 MOL1         0.0833
      21    C8      19.812988   20.528377   21.086677 C.3        1 MOL1        -0.1684
      22    H14     20.430885   21.092757   20.374958 H          1 MOL1         0.0833
      23    H15     18.771459   20.760029   20.825199 H          1 MOL1         0.0833
      24    O1      20.040298   19.078795   25.685444 O.3        1 MOL1        -0.5508
      25    H16     20.670661   18.441415   26.081464 H          1 MOL1         0.3780
@<TRIPOS>BOND
    1     1     2    1
    2     1     3    1
    3     1     4    1
    4     4     5    1
    5     4     6    1
    6     4     7    1
    7     7     8    1
    8     7     9    1
    9     7    10    1
   10    10    11    1
   11    10    12    1
   12    10    13    1
   13    13    14    1
   14    13    15    1
   15    15    16    1
   16    15    17    1
   17    15    18    1
   18    18    19    1
   19    18    20    1
   20     1    21    1
   21    18    21    1
   22    21    22    1
   23    21    23    1
   24    13    24    1
   25    24    25    1
@<TRIPOS>SUBSTRUCTURE
       1 MOL1            1 RESIDUE      1      MOL     
@<SCITEGIC>MOL_PROPERTY
VM2 Rank
SciTegic.value.IntegerValue
59

@<SCITEGIC>MOL_PROPERTY
Conf_Id
SciTegic.value.IntegerValue
1522

@<SCITEGIC>MOL_PROPERTY
Probability
SciTegic.value.DoubleValue
0.19

@<SCITEGIC>MOL_PROPERTY
Sum Probability
SciTegic.value.DoubleValue
96.78

@<SCITEGIC>MOL_PROPERTY
Delta G
SciTegic.value.DoubleValue
1.950

@<SCITEGIC>MOL_PROPERTY
G
SciTegic.value.DoubleValue
64.025

@<SCITEGIC>MOL_PROPERTY
E
SciTegic.value.DoubleValue
31.663

@<SCITEGIC>MOL_PROPERTY
-TS
SciTegic.value.DoubleValue
32.362

@<SCITEGIC>MOL_PROPERTY
U+W
SciTegic.value.DoubleValue
11.096

@<SCITEGIC>MOL_PROPERTY
U
SciTegic.value.DoubleValue
13.287

@<SCITEGIC>MOL_PROPERTY
W
SciTegic.value.DoubleValue
-2.191

@<SCITEGIC>MOL_PROPERTY
W(PB)
SciTegic.value.DoubleValue
-4.342

@<SCITEGIC>MOL_PROPERTY
W(SA)
SciTegic.value.DoubleValue
2.151

@<SCITEGIC>MOL_PROPERTY
Valence
SciTegic.value.DoubleValue
18.429

@<SCITEGIC>MOL_PROPERTY
Coulomb
SciTegic.value.DoubleValue
-8.446

@<SCITEGIC>MOL_PROPERTY
VdW
SciTegic.value.DoubleValue
3.304

@<SCITEGIC>MOL_PROPERTY
VdW6
SciTegic.value.DoubleValue
-12.366

@<SCITEGIC>MOL_PROPERTY
VdW12
SciTegic.value.DoubleValue
15.670

@<SCITEGIC>MOL_PROPERTY
Bond
SciTegic.value.DoubleValue
0.449

@<SCITEGIC>MOL_PROPERTY
Angle
SciTegic.value.DoubleValue
4.240

@<SCITEGIC>MOL_PROPERTY
Pdih
SciTegic.value.DoubleValue
13.740

@<SCITEGIC>MOL_PROPERTY
Idih
SciTegic.value.DoubleValue
0.000

@<SCITEGIC>MOL_PROPERTY
Tether
SciTegic.value.DoubleValue
0.000

@<TRIPOS>MOLECULE
guest-s17_vm2.mol2 : vm2 ligand conformer 60
          25          25           1
SMALL
USER_CHARGES
 
@<TRIPOS>ATOM
       1    C1      19.987614   19.158919   20.851518 C.3        1 MOL1        -0.1684
       2    H1      18.982054   18.972126   21.245805 H          1 MOL1         0.0833
       3    H2      19.845033   19.271012   19.768069 H          1 MOL1         0.0833
       4    C2      20.878149   17.915167   21.091403 C.3        1 MOL1        -0.1684
       5    H3      20.295397   17.020879   20.831664 H          1 MOL1         0.0833
       6    H4      21.715637   17.941128   20.380907 H          1 MOL1         0.0833
       7    C3      21.463639   17.734856   22.517184 C.3        1 MOL1        -0.1684
       8    H5      22.306783   18.419186   22.676579 H          1 MOL1         0.0833
       9    H6      21.906826   16.730386   22.557698 H          1 MOL1         0.0833
      10    C4      20.453579   17.859851   23.687054 C.3        1 MOL1        -0.1760
      11    H7      19.468978   17.477176   23.390201 H          1 MOL1         0.0833
      12    H8      20.802420   17.182850   24.478686 H          1 MOL1         0.0833
      13    C5      20.335354   19.280398   24.305779 C.3        1 MOL1         0.1219
      14    H9      21.304989   19.792753   24.230704 H          1 MOL1         0.0790
      15    C6      19.238295   20.169891   23.669707 C.3        1 MOL1        -0.1760
      16    H10     18.413347   19.540271   23.315687 H          1 MOL1         0.0833
      17    H11     18.791482   20.802876   24.447914 H          1 MOL1         0.0833
      18    C7      19.717079   21.118979   22.537887 C.3        1 MOL1        -0.1684
      19    H12     20.293406   21.941714   22.982672 H          1 MOL1         0.0833
      20    H13     18.831154   21.585239   22.085524 H          1 MOL1         0.0833
      21    C8      20.569610   20.480328   21.414197 C.3        1 MOL1        -0.1684
      22    H14     20.651092   21.206396   20.593821 H          1 MOL1         0.0833
      23    H15     21.598557   20.339084   21.765041 H          1 MOL1         0.0833
      24    O1      20.020681   19.124611   25.685271 O.3        1 MOL1        -0.5508
      25    H16     20.025580   20.022210   26.078633 H          1 MOL1         0.3780
@<TRIPOS>BOND
    1     1     2    1
    2     1     3    1
    3     1     4    1
    4     4     5    1
    5     4     6    1
    6     4     7    1
    7     7     8    1
    8     7     9    1
    9     7    10    1
   10    10    11    1
   11    10    12    1
   12    10    13    1
   13    13    14    1
   14    13    15    1
   15    15    16    1
   16    15    17    1
   17    15    18    1
   18    18    19    1
   19    18    20    1
   20     1    21    1
   21    18    21    1
   22    21    22    1
   23    21    23    1
   24    13    24    1
   25    24    25    1
@<TRIPOS>SUBSTRUCTURE
       1 MOL1            1 RESIDUE      1      MOL     
@<SCITEGIC>MOL_PROPERTY
VM2 Rank
SciTegic.value.IntegerValue
60

@<SCITEGIC>MOL_PROPERTY
Conf_Id
SciTegic.value.IntegerValue
333

@<SCITEGIC>MOL_PROPERTY
Probability
SciTegic.value.DoubleValue
0.18

@<SCITEGIC>MOL_PROPERTY
Sum Probability
SciTegic.value.DoubleValue
96.96

@<SCITEGIC>MOL_PROPERTY
Delta G
SciTegic.value.DoubleValue
1.963

@<SCITEGIC>MOL_PROPERTY
G
SciTegic.value.DoubleValue
64.039

@<SCITEGIC>MOL_PROPERTY
E
SciTegic.value.DoubleValue
31.677

@<SCITEGIC>MOL_PROPERTY
-TS
SciTegic.value.DoubleValue
32.362

@<SCITEGIC>MOL_PROPERTY
U+W
SciTegic.value.DoubleValue
11.109

@<SCITEGIC>MOL_PROPERTY
U
SciTegic.value.DoubleValue
13.287

@<SCITEGIC>MOL_PROPERTY
W
SciTegic.value.DoubleValue
-2.178

@<SCITEGIC>MOL_PROPERTY
W(PB)
SciTegic.value.DoubleValue
-4.334

@<SCITEGIC>MOL_PROPERTY
W(SA)
SciTegic.value.DoubleValue
2.156

@<SCITEGIC>MOL_PROPERTY
Valence
SciTegic.value.DoubleValue
18.430

@<SCITEGIC>MOL_PROPERTY
Coulomb
SciTegic.value.DoubleValue
-8.446

@<SCITEGIC>MOL_PROPERTY
VdW
SciTegic.value.DoubleValue
3.304

@<SCITEGIC>MOL_PROPERTY
VdW6
SciTegic.value.DoubleValue
-12.366

@<SCITEGIC>MOL_PROPERTY
VdW12
SciTegic.value.DoubleValue
15.670

@<SCITEGIC>MOL_PROPERTY
Bond
SciTegic.value.DoubleValue
0.449

@<SCITEGIC>MOL_PROPERTY
Angle
SciTegic.value.DoubleValue
4.241

@<SCITEGIC>MOL_PROPERTY
Pdih
SciTegic.value.DoubleValue
13.740

@<SCITEGIC>MOL_PROPERTY
Idih
SciTegic.value.DoubleValue
0.000

@<SCITEGIC>MOL_PROPERTY
Tether
SciTegic.value.DoubleValue
0.000

@<TRIPOS>MOLECULE
guest-s17_vm2.mol2 : vm2 ligand conformer 61
          25          25           1
SMALL
USER_CHARGES
 
@<TRIPOS>ATOM
       1    C1      20.866451   19.422254   20.598220 C.3        1 MOL1        -0.1684
       2    H1      20.278191   19.563983   19.681313 H          1 MOL1         0.0833
       3    H2      21.918464   19.489449   20.289147 H          1 MOL1         0.0833
       4    C2      20.588960   17.989263   21.125549 C.3        1 MOL1        -0.1684
       5    H3      19.511125   17.783055   21.134449 H          1 MOL1         0.0833
       6    H4      21.000434   17.290843   20.383952 H          1 MOL1         0.0833
       7    C3      21.205933   17.638644   22.502215 C.3        1 MOL1        -0.1684
       8    H5      22.176888   18.135443   22.632060 H          1 MOL1         0.0833
       9    H6      21.428995   16.562892   22.486680 H          1 MOL1         0.0833
      10    C4      20.277231   17.889296   23.723867 C.3        1 MOL1        -0.1760
      11    H7      19.232625   17.663510   23.474124 H          1 MOL1         0.0833
      12    H8      20.557691   17.153979   24.489796 H          1 MOL1         0.0833
      13    C5      20.387883   19.301427   24.349111 C.3        1 MOL1         0.1219
      14    H9      21.398658   19.688858   24.164127 H          1 MOL1         0.0790
      15    C6      19.346604   20.329553   23.840324 C.3        1 MOL1        -0.1760
      16    H10     18.360453   20.072786   24.249393 H          1 MOL1         0.0833
      17    H11     19.605885   21.306115   24.269585 H          1 MOL1         0.0833
      18    C7      19.212882   20.488997   22.304663 C.3        1 MOL1        -0.1684
      19    H12     18.627001   21.396818   22.106445 H          1 MOL1         0.0833
      20    H13     18.606247   19.670741   21.899588 H          1 MOL1         0.0833
      21    C8      20.567668   20.598516   21.560109 C.3        1 MOL1        -0.1684
      22    H14     21.397753   20.716734   22.266183 H          1 MOL1         0.0833
      23    H15     20.570258   21.525989   20.971332 H          1 MOL1         0.0833
      24    O1      20.210388   19.185051   25.755941 O.3        1 MOL1        -0.5508
      25    H16     20.922283   18.595994   26.082552 H          1 MOL1         0.3780
@<TRIPOS>BOND
    1     1     2    1
    2     1     3    1
    3     1     4    1
    4     4     5    1
    5     4     6    1
    6     4     7    1
    7     7     8    1
    8     7     9    1
    9     7    10    1
   10    10    11    1
   11    10    12    1
   12    10    13    1
   13    13    14    1
   14    13    15    1
   15    15    16    1
   16    15    17    1
   17    15    18    1
   18    18    19    1
   19    18    20    1
   20     1    21    1
   21    18    21    1
   22    21    22    1
   23    21    23    1
   24    13    24    1
   25    24    25    1
@<TRIPOS>SUBSTRUCTURE
       1 MOL1            1 RESIDUE      1      MOL     
@<SCITEGIC>MOL_PROPERTY
VM2 Rank
SciTegic.value.IntegerValue
61

@<SCITEGIC>MOL_PROPERTY
Conf_Id
SciTegic.value.IntegerValue
953

@<SCITEGIC>MOL_PROPERTY
Probability
SciTegic.value.DoubleValue
0.18

@<SCITEGIC>MOL_PROPERTY
Sum Probability
SciTegic.value.DoubleValue
97.14

@<SCITEGIC>MOL_PROPERTY
Delta G
SciTegic.value.DoubleValue
1.966

@<SCITEGIC>MOL_PROPERTY
G
SciTegic.value.DoubleValue
64.042

@<SCITEGIC>MOL_PROPERTY
E
SciTegic.value.DoubleValue
31.758

@<SCITEGIC>MOL_PROPERTY
-TS
SciTegic.value.DoubleValue
32.284

@<SCITEGIC>MOL_PROPERTY
U+W
SciTegic.value.DoubleValue
11.190

@<SCITEGIC>MOL_PROPERTY
U
SciTegic.value.DoubleValue
13.296

@<SCITEGIC>MOL_PROPERTY
W
SciTegic.value.DoubleValue
-2.106

@<SCITEGIC>MOL_PROPERTY
W(PB)
SciTegic.value.DoubleValue
-4.268

@<SCITEGIC>MOL_PROPERTY
W(SA)
SciTegic.value.DoubleValue
2.162

@<SCITEGIC>MOL_PROPERTY
Valence
SciTegic.value.DoubleValue
18.607

@<SCITEGIC>MOL_PROPERTY
Coulomb
SciTegic.value.DoubleValue
-8.339

@<SCITEGIC>MOL_PROPERTY
VdW
SciTegic.value.DoubleValue
3.028

@<SCITEGIC>MOL_PROPERTY
VdW6
SciTegic.value.DoubleValue
-12.271

@<SCITEGIC>MOL_PROPERTY
VdW12
SciTegic.value.DoubleValue
15.299

@<SCITEGIC>MOL_PROPERTY
Bond
SciTegic.value.DoubleValue
0.423

@<SCITEGIC>MOL_PROPERTY
Angle
SciTegic.value.DoubleValue
4.488

@<SCITEGIC>MOL_PROPERTY
Pdih
SciTegic.value.DoubleValue
13.696

@<SCITEGIC>MOL_PROPERTY
Idih
SciTegic.value.DoubleValue
0.000

@<SCITEGIC>MOL_PROPERTY
Tether
SciTegic.value.DoubleValue
0.000

@<TRIPOS>MOLECULE
guest-s17_vm2.mol2 : vm2 ligand conformer 62
          25          25           1
SMALL
USER_CHARGES
 
@<TRIPOS>ATOM
       1    C1      20.042275   19.016074   20.853776 C.3        1 MOL1        -0.1684
       2    H1      19.192380   18.451357   21.254263 H          1 MOL1         0.0833
       3    H2      20.014942   18.830322   19.771420 H          1 MOL1         0.0833
       4    C2      21.382281   18.477835   21.415740 C.3        1 MOL1        -0.1684
       5    H3      21.946001   18.011984   20.595973 H          1 MOL1         0.0833
       6    H4      22.021141   19.298329   21.762773 H          1 MOL1         0.0833
       7    C3      21.219871   17.429646   22.543662 C.3        1 MOL1        -0.1684
       8    H5      22.207568   17.245966   22.988177 H          1 MOL1         0.0833
       9    H6      20.911590   16.475066   22.095849 H          1 MOL1         0.0833
      10    C4      20.216448   17.777805   23.676665 C.3        1 MOL1        -0.1760
      11    H7      19.185363   17.643245   23.329158 H          1 MOL1         0.0833
      12    H8      20.348264   17.022227   24.462995 H          1 MOL1         0.0833
      13    C5      20.375666   19.183693   24.306349 C.3        1 MOL1         0.1219
      14    H9      21.428278   19.491740   24.232473 H          1 MOL1         0.0790
      15    C6      19.466689   20.278295   23.680286 C.3        1 MOL1        -0.1760
      16    H10     18.499968   19.857406   23.375797 H          1 MOL1         0.0833
      17    H11     19.229784   21.010341   24.463837 H          1 MOL1         0.0833
      18    C7      20.106506   21.071034   22.511484 C.3        1 MOL1        -0.1684
      19    H12     21.187789   21.168741   22.672574 H          1 MOL1         0.0833
      20    H13     19.723516   22.100132   22.548657 H          1 MOL1         0.0833
      21    C8      19.815435   20.529907   21.086553 C.3        1 MOL1        -0.1684
      22    H14     20.436654   21.091583   20.375581 H          1 MOL1         0.0833
      23    H15     18.775156   20.765272   20.823395 H          1 MOL1         0.0833
      24    O1      20.038828   19.078711   25.685484 O.3        1 MOL1        -0.5508
      25    H16     20.221018   19.953403   26.088112 H          1 MOL1         0.3780
@<TRIPOS>BOND
    1     1     2    1
    2     1     3    1
    3     1     4    1
    4     4     5    1
    5     4     6    1
    6     4     7    1
    7     7     8    1
    8     7     9    1
    9     7    10    1
   10    10    11    1
   11    10    12    1
   12    10    13    1
   13    13    14    1
   14    13    15    1
   15    15    16    1
   16    15    17    1
   17    15    18    1
   18    18    19    1
   19    18    20    1
   20     1    21    1
   21    18    21    1
   22    21    22    1
   23    21    23    1
   24    13    24    1
   25    24    25    1
@<TRIPOS>SUBSTRUCTURE
       1 MOL1            1 RESIDUE      1      MOL     
@<SCITEGIC>MOL_PROPERTY
VM2 Rank
SciTegic.value.IntegerValue
62

@<SCITEGIC>MOL_PROPERTY
Conf_Id
SciTegic.value.IntegerValue
72

@<SCITEGIC>MOL_PROPERTY
Probability
SciTegic.value.DoubleValue
0.18

@<SCITEGIC>MOL_PROPERTY
Sum Probability
SciTegic.value.DoubleValue
97.32

@<SCITEGIC>MOL_PROPERTY
Delta G
SciTegic.value.DoubleValue
1.969

@<SCITEGIC>MOL_PROPERTY
G
SciTegic.value.DoubleValue
64.044

@<SCITEGIC>MOL_PROPERTY
E
SciTegic.value.DoubleValue
31.686

@<SCITEGIC>MOL_PROPERTY
-TS
SciTegic.value.DoubleValue
32.358

@<SCITEGIC>MOL_PROPERTY
U+W
SciTegic.value.DoubleValue
11.119

@<SCITEGIC>MOL_PROPERTY
U
SciTegic.value.DoubleValue
13.320

@<SCITEGIC>MOL_PROPERTY
W
SciTegic.value.DoubleValue
-2.201

@<SCITEGIC>MOL_PROPERTY
W(PB)
SciTegic.value.DoubleValue
-4.348

@<SCITEGIC>MOL_PROPERTY
W(SA)
SciTegic.value.DoubleValue
2.147

@<SCITEGIC>MOL_PROPERTY
Valence
SciTegic.value.DoubleValue
18.429

@<SCITEGIC>MOL_PROPERTY
Coulomb
SciTegic.value.DoubleValue
-8.418

@<SCITEGIC>MOL_PROPERTY
VdW
SciTegic.value.DoubleValue
3.308

@<SCITEGIC>MOL_PROPERTY
VdW6
SciTegic.value.DoubleValue
-12.374

@<SCITEGIC>MOL_PROPERTY
VdW12
SciTegic.value.DoubleValue
15.683

@<SCITEGIC>MOL_PROPERTY
Bond
SciTegic.value.DoubleValue
0.451

@<SCITEGIC>MOL_PROPERTY
Angle
SciTegic.value.DoubleValue
4.193

@<SCITEGIC>MOL_PROPERTY
Pdih
SciTegic.value.DoubleValue
13.785

@<SCITEGIC>MOL_PROPERTY
Idih
SciTegic.value.DoubleValue
0.000

@<SCITEGIC>MOL_PROPERTY
Tether
SciTegic.value.DoubleValue
0.000

@<TRIPOS>MOLECULE
guest-s17_vm2.mol2 : vm2 ligand conformer 63
          25          25           1
SMALL
USER_CHARGES
 
@<TRIPOS>ATOM
       1    C1      20.041036   19.014805   20.853133 C.3        1 MOL1        -0.1684
       2    H1      19.191795   18.448423   21.252457 H          1 MOL1         0.0833
       3    H2      20.013982   18.830506   19.770513 H          1 MOL1         0.0833
       4    C2      21.381923   18.477666   21.414065 C.3        1 MOL1        -0.1684
       5    H3      21.944203   18.010165   20.594243 H          1 MOL1         0.0833
       6    H4      22.021628   19.298729   21.758141 H          1 MOL1         0.0833
       7    C3      21.222081   17.431617   22.544212 C.3        1 MOL1        -0.1684
       8    H5      22.210163   17.251894   22.989561 H          1 MOL1         0.0833
       9    H6      20.917316   16.475211   22.097827 H          1 MOL1         0.0833
      10    C4      20.216767   17.778032   23.675809 C.3        1 MOL1        -0.1760
      11    H7      19.187059   17.642986   23.323989 H          1 MOL1         0.0833
      12    H8      20.350010   17.019800   24.459493 H          1 MOL1         0.0833
      13    C5      20.375393   19.183348   24.307219 C.3        1 MOL1         0.1219
      14    H9      21.428022   19.492241   24.239906 H          1 MOL1         0.0790
      15    C6      19.470353   20.281719   23.683006 C.3        1 MOL1        -0.1760
      16    H10     18.498432   19.869459   23.383371 H          1 MOL1         0.0833
      17    H11     19.248352   21.016170   24.469323 H          1 MOL1         0.0833
      18    C7      20.109135   21.070002   22.510805 C.3        1 MOL1        -0.1684
      19    H12     21.190995   21.165012   22.669563 H          1 MOL1         0.0833
      20    H13     19.729305   22.100266   22.547692 H          1 MOL1         0.0833
      21    C8      19.812420   20.528094   21.087376 C.3        1 MOL1        -0.1684
      22    H14     20.429901   21.090715   20.373896 H          1 MOL1         0.0833
      23    H15     18.770770   20.762064   20.828445 H          1 MOL1         0.0833
      24    O1      20.034891   19.077718   25.684375 O.3        1 MOL1        -0.5508
      25    H16     19.095116   18.803845   25.716177 H          1 MOL1         0.3780
@<TRIPOS>BOND
    1     1     2    1
    2     1     3    1
    3     1     4    1
    4     4     5    1
    5     4     6    1
    6     4     7    1
    7     7     8    1
    8     7     9    1
    9     7    10    1
   10    10    11    1
   11    10    12    1
   12    10    13    1
   13    13    14    1
   14    13    15    1
   15    15    16    1
   16    15    17    1
   17    15    18    1
   18    18    19    1
   19    18    20    1
   20     1    21    1
   21    18    21    1
   22    21    22    1
   23    21    23    1
   24    13    24    1
   25    24    25    1
@<TRIPOS>SUBSTRUCTURE
       1 MOL1            1 RESIDUE      1      MOL     
@<SCITEGIC>MOL_PROPERTY
VM2 Rank
SciTegic.value.IntegerValue
63

@<SCITEGIC>MOL_PROPERTY
Conf_Id
SciTegic.value.IntegerValue
132

@<SCITEGIC>MOL_PROPERTY
Probability
SciTegic.value.DoubleValue
0.18

@<SCITEGIC>MOL_PROPERTY
Sum Probability
SciTegic.value.DoubleValue
97.50

@<SCITEGIC>MOL_PROPERTY
Delta G
SciTegic.value.DoubleValue
1.983

@<SCITEGIC>MOL_PROPERTY
G
SciTegic.value.DoubleValue
64.059

@<SCITEGIC>MOL_PROPERTY
E
SciTegic.value.DoubleValue
31.724

@<SCITEGIC>MOL_PROPERTY
-TS
SciTegic.value.DoubleValue
32.335

@<SCITEGIC>MOL_PROPERTY
U+W
SciTegic.value.DoubleValue
11.156

@<SCITEGIC>MOL_PROPERTY
U
SciTegic.value.DoubleValue
13.141

@<SCITEGIC>MOL_PROPERTY
W
SciTegic.value.DoubleValue
-1.984

@<SCITEGIC>MOL_PROPERTY
W(PB)
SciTegic.value.DoubleValue
-4.127

@<SCITEGIC>MOL_PROPERTY
W(SA)
SciTegic.value.DoubleValue
2.143

@<SCITEGIC>MOL_PROPERTY
Valence
SciTegic.value.DoubleValue
18.807

@<SCITEGIC>MOL_PROPERTY
Coulomb
SciTegic.value.DoubleValue
-8.930

@<SCITEGIC>MOL_PROPERTY
VdW
SciTegic.value.DoubleValue
3.263

@<SCITEGIC>MOL_PROPERTY
VdW6
SciTegic.value.DoubleValue
-12.382

@<SCITEGIC>MOL_PROPERTY
VdW12
SciTegic.value.DoubleValue
15.645

@<SCITEGIC>MOL_PROPERTY
Bond
SciTegic.value.DoubleValue
0.441

@<SCITEGIC>MOL_PROPERTY
Angle
SciTegic.value.DoubleValue
4.299

@<SCITEGIC>MOL_PROPERTY
Pdih
SciTegic.value.DoubleValue
14.066

@<SCITEGIC>MOL_PROPERTY
Idih
SciTegic.value.DoubleValue
0.000

@<SCITEGIC>MOL_PROPERTY
Tether
SciTegic.value.DoubleValue
0.000

@<TRIPOS>MOLECULE
guest-s17_vm2.mol2 : vm2 ligand conformer 64
          25          25           1
SMALL
USER_CHARGES
 
@<TRIPOS>ATOM
       1    C1      19.984043   19.156761   20.852781 C.3        1 MOL1        -0.1684
       2    H1      18.980092   18.969937   21.251079 H          1 MOL1         0.0833
       3    H2      19.837636   19.266590   19.769608 H          1 MOL1         0.0833
       4    C2      20.877223   17.914921   21.092033 C.3        1 MOL1        -0.1684
       5    H3      20.295743   17.019093   20.834748 H          1 MOL1         0.0833
       6    H4      21.713234   17.941646   20.379818 H          1 MOL1         0.0833
       7    C3      21.465799   17.738547   22.516927 C.3        1 MOL1        -0.1684
       8    H5      22.306046   18.426759   22.675043 H          1 MOL1         0.0833
       9    H6      21.913641   16.736115   22.557443 H          1 MOL1         0.0833
      10    C4      20.456162   17.859792   23.687150 C.3        1 MOL1        -0.1760
      11    H7      19.473184   17.475018   23.387029 H          1 MOL1         0.0833
      12    H8      20.809058   17.181429   24.476001 H          1 MOL1         0.0833
      13    C5      20.335545   19.279765   24.307061 C.3        1 MOL1         0.1219
      14    H9      21.304655   19.793837   24.239772 H          1 MOL1         0.0790
      15    C6      19.241358   20.172720   23.671340 C.3        1 MOL1        -0.1760
      16    H10     18.410746   19.549040   23.320026 H          1 MOL1         0.0833
      17    H11     18.805819   20.810635   24.452493 H          1 MOL1         0.0833
      18    C7      19.720514   21.119567   22.537734 C.3        1 MOL1        -0.1684
      19    H12     20.301286   21.939699   22.981615 H          1 MOL1         0.0833
      20    H13     18.835042   21.589723   22.088574 H          1 MOL1         0.0833
      21    C8      20.567404   20.479432   21.410789 C.3        1 MOL1        -0.1684
      22    H14     21.598159   20.339795   21.756911 H          1 MOL1         0.0833
      23    H15     20.644470   21.204347   20.588971 H          1 MOL1         0.0833
      24    O1      20.015953   19.121497   25.684185 O.3        1 MOL1        -0.5508
      25    H16     19.152046   18.661228   25.715975 H          1 MOL1         0.3780
@<TRIPOS>BOND
    1     1     2    1
    2     1     3    1
    3     1     4    1
    4     4     5    1
    5     4     6    1
    6     4     7    1
    7     7     8    1
    8     7     9    1
    9     7    10    1
   10    10    11    1
   11    10    12    1
   12    10    13    1
   13    13    14    1
   14    13    15    1
   15    15    16    1
   16    15    17    1
   17    15    18    1
   18    18    19    1
   19    18    20    1
   20     1    21    1
   21    18    21    1
   22    21    22    1
   23    21    23    1
   24    13    24    1
   25    24    25    1
@<TRIPOS>SUBSTRUCTURE
       1 MOL1            1 RESIDUE      1      MOL     
@<SCITEGIC>MOL_PROPERTY
VM2 Rank
SciTegic.value.IntegerValue
64

@<SCITEGIC>MOL_PROPERTY
Conf_Id
SciTegic.value.IntegerValue
1443

@<SCITEGIC>MOL_PROPERTY
Probability
SciTegic.value.DoubleValue
0.17

@<SCITEGIC>MOL_PROPERTY
Sum Probability
SciTegic.value.DoubleValue
97.67

@<SCITEGIC>MOL_PROPERTY
Delta G
SciTegic.value.DoubleValue
2.001

@<SCITEGIC>MOL_PROPERTY
G
SciTegic.value.DoubleValue
64.076

@<SCITEGIC>MOL_PROPERTY
E
SciTegic.value.DoubleValue
31.742

@<SCITEGIC>MOL_PROPERTY
-TS
SciTegic.value.DoubleValue
32.335

@<SCITEGIC>MOL_PROPERTY
U+W
SciTegic.value.DoubleValue
11.174

@<SCITEGIC>MOL_PROPERTY
U
SciTegic.value.DoubleValue
13.140

@<SCITEGIC>MOL_PROPERTY
W
SciTegic.value.DoubleValue
-1.967

@<SCITEGIC>MOL_PROPERTY
W(PB)
SciTegic.value.DoubleValue
-4.109

@<SCITEGIC>MOL_PROPERTY
W(SA)
SciTegic.value.DoubleValue
2.143

@<SCITEGIC>MOL_PROPERTY
Valence
SciTegic.value.DoubleValue
18.807

@<SCITEGIC>MOL_PROPERTY
Coulomb
SciTegic.value.DoubleValue
-8.930

@<SCITEGIC>MOL_PROPERTY
VdW
SciTegic.value.DoubleValue
3.263

@<SCITEGIC>MOL_PROPERTY
VdW6
SciTegic.value.DoubleValue
-12.382

@<SCITEGIC>MOL_PROPERTY
VdW12
SciTegic.value.DoubleValue
15.645

@<SCITEGIC>MOL_PROPERTY
Bond
SciTegic.value.DoubleValue
0.441

@<SCITEGIC>MOL_PROPERTY
Angle
SciTegic.value.DoubleValue
4.299

@<SCITEGIC>MOL_PROPERTY
Pdih
SciTegic.value.DoubleValue
14.067

@<SCITEGIC>MOL_PROPERTY
Idih
SciTegic.value.DoubleValue
0.000

@<SCITEGIC>MOL_PROPERTY
Tether
SciTegic.value.DoubleValue
0.000

@<TRIPOS>MOLECULE
guest-s17_vm2.mol2 : vm2 ligand conformer 65
          25          25           1
SMALL
USER_CHARGES
 
@<TRIPOS>ATOM
       1    C1      20.866140   19.436599   20.598563 C.3        1 MOL1        -0.1684
       2    H1      20.549179   18.915532   19.684847 H          1 MOL1         0.0833
       3    H2      21.664013   20.124292   20.286706 H          1 MOL1         0.0833
       4    C2      21.474772   18.397228   21.571590 C.3        1 MOL1        -0.1684
       5    H3      22.133636   17.736069   20.992247 H          1 MOL1         0.0833
       6    H4      22.142091   18.902322   22.279559 H          1 MOL1         0.0833
       7    C3      20.428672   17.527427   22.313531 C.3        1 MOL1        -0.1684
       8    H5      20.649929   16.468866   22.120518 H          1 MOL1         0.0833
       9    H6      19.424686   17.682533   21.901651 H          1 MOL1         0.0833
      10    C4      20.402704   17.740718   23.847964 C.3        1 MOL1        -0.1760
      11    H7      19.519596   17.227250   24.250260 H          1 MOL1         0.0833
      12    H8      21.272505   17.230565   24.282490 H          1 MOL1         0.0833
      13    C5      20.418978   19.206492   24.351007 C.3        1 MOL1         0.1219
      14    H9      21.412830   19.639186   24.175775 H          1 MOL1         0.0790
      15    C6      19.358042   20.137849   23.715353 C.3        1 MOL1        -0.1760
      16    H10     18.449692   19.574120   23.467183 H          1 MOL1         0.0833
      17    H11     19.052582   20.867790   24.477477 H          1 MOL1         0.0833
      18    C7      19.852759   20.957245   22.489889 C.3        1 MOL1        -0.1684
      19    H12     20.894127   21.280279   22.622773 H          1 MOL1         0.0833
      20    H13     19.261717   21.883154   22.466155 H          1 MOL1         0.0833
      21    C8      19.661928   20.267087   21.116603 C.3        1 MOL1        -0.1684
      22    H14     19.468338   21.049314   20.369803 H          1 MOL1         0.0833
      23    H15     18.748555   19.658853   21.126340 H          1 MOL1         0.0833
      24    O1      20.200005   19.172355   25.755499 O.3        1 MOL1        -0.5508
      25    H16     19.302490   18.803402   25.887065 H          1 MOL1         0.3780
@<TRIPOS>BOND
    1     1     2    1
    2     1     3    1
    3     1     4    1
    4     4     5    1
    5     4     6    1
    6     4     7    1
    7     7     8    1
    8     7     9    1
    9     7    10    1
   10    10    11    1
   11    10    12    1
   12    10    13    1
   13    13    14    1
   14    13    15    1
   15    15    16    1
   16    15    17    1
   17    15    18    1
   18    18    19    1
   19    18    20    1
   20     1    21    1
   21    18    21    1
   22    21    22    1
   23    21    23    1
   24    13    24    1
   25    24    25    1
@<TRIPOS>SUBSTRUCTURE
       1 MOL1            1 RESIDUE      1      MOL     
@<SCITEGIC>MOL_PROPERTY
VM2 Rank
SciTegic.value.IntegerValue
65

@<SCITEGIC>MOL_PROPERTY
Conf_Id
SciTegic.value.IntegerValue
289

@<SCITEGIC>MOL_PROPERTY
Probability
SciTegic.value.DoubleValue
0.17

@<SCITEGIC>MOL_PROPERTY
Sum Probability
SciTegic.value.DoubleValue
97.84

@<SCITEGIC>MOL_PROPERTY
Delta G
SciTegic.value.DoubleValue
2.011

@<SCITEGIC>MOL_PROPERTY
G
SciTegic.value.DoubleValue
64.086

@<SCITEGIC>MOL_PROPERTY
E
SciTegic.value.DoubleValue
31.829

@<SCITEGIC>MOL_PROPERTY
-TS
SciTegic.value.DoubleValue
32.257

@<SCITEGIC>MOL_PROPERTY
U+W
SciTegic.value.DoubleValue
11.262

@<SCITEGIC>MOL_PROPERTY
U
SciTegic.value.DoubleValue
13.202

@<SCITEGIC>MOL_PROPERTY
W
SciTegic.value.DoubleValue
-1.941

@<SCITEGIC>MOL_PROPERTY
W(PB)
SciTegic.value.DoubleValue
-4.073

@<SCITEGIC>MOL_PROPERTY
W(SA)
SciTegic.value.DoubleValue
2.132

@<SCITEGIC>MOL_PROPERTY
Valence
SciTegic.value.DoubleValue
18.957

@<SCITEGIC>MOL_PROPERTY
Coulomb
SciTegic.value.DoubleValue
-8.753

@<SCITEGIC>MOL_PROPERTY
VdW
SciTegic.value.DoubleValue
2.998

@<SCITEGIC>MOL_PROPERTY
VdW6
SciTegic.value.DoubleValue
-12.294

@<SCITEGIC>MOL_PROPERTY
VdW12
SciTegic.value.DoubleValue
15.292

@<SCITEGIC>MOL_PROPERTY
Bond
SciTegic.value.DoubleValue
0.419

@<SCITEGIC>MOL_PROPERTY
Angle
SciTegic.value.DoubleValue
4.543

@<SCITEGIC>MOL_PROPERTY
Pdih
SciTegic.value.DoubleValue
13.996

@<SCITEGIC>MOL_PROPERTY
Idih
SciTegic.value.DoubleValue
0.000

@<SCITEGIC>MOL_PROPERTY
Tether
SciTegic.value.DoubleValue
0.000

@<TRIPOS>MOLECULE
guest-s17_vm2.mol2 : vm2 ligand conformer 66
          25          25           1
SMALL
USER_CHARGES
 
@<TRIPOS>ATOM
       1    C1      20.941084   19.392315   20.764008 C.3        1 MOL1        -0.1684
       2    H1      21.030767   19.421778   19.669451 H          1 MOL1         0.0833
       3    H2      21.866184   19.853322   21.132598 H          1 MOL1         0.0833
       4    C2      20.874724   17.896846   21.172990 C.3        1 MOL1        -0.1684
       5    H3      20.149999   17.383802   20.526250 H          1 MOL1         0.0833
       6    H4      21.848515   17.438940   20.952103 H          1 MOL1         0.0833
       7    C3      20.507201   17.595159   22.645978 C.3        1 MOL1        -0.1684
       8    H5      20.709140   16.533172   22.840309 H          1 MOL1         0.0833
       9    H6      19.424784   17.702904   22.783367 H          1 MOL1         0.0833
      10    C4      21.284899   18.448681   23.682396 C.3        1 MOL1        -0.1760
      11    H7      21.828009   17.774873   24.357684 H          1 MOL1         0.0833
      12    H8      22.069948   19.036149   23.194381 H          1 MOL1         0.0833
      13    C5      20.405035   19.395015   24.533483 C.3        1 MOL1         0.1219
      14    H9      21.079855   20.095819   25.045911 H          1 MOL1         0.0790
      15    C6      19.350703   20.229424   23.763113 C.3        1 MOL1        -0.1760
      16    H10     18.492026   19.605277   23.486688 H          1 MOL1         0.0833
      17    H11     18.949870   20.961579   24.476201 H          1 MOL1         0.0833
      18    C7      19.860853   21.007184   22.522138 C.3        1 MOL1        -0.1684
      19    H12     20.889569   21.359075   22.677327 H          1 MOL1         0.0833
      20    H13     19.251061   21.917891   22.445335 H          1 MOL1         0.0833
      21    C8      19.721739   20.258504   21.167263 C.3        1 MOL1        -0.1684
      22    H14     19.605615   21.026325   20.390022 H          1 MOL1         0.0833
      23    H15     18.796054   19.668437   21.133173 H          1 MOL1         0.0833
      24    O1      19.717763   18.619871   25.508629 O.3        1 MOL1        -0.5508
      25    H16     20.396955   18.098124   25.983598 H          1 MOL1         0.3780
@<TRIPOS>BOND
    1     1     2    1
    2     1     3    1
    3     1     4    1
    4     4     5    1
    5     4     6    1
    6     4     7    1
    7     7     8    1
    8     7     9    1
    9     7    10    1
   10    10    11    1
   11    10    12    1
   12    10    13    1
   13    13    14    1
   14    13    15    1
   15    15    16    1
   16    15    17    1
   17    15    18    1
   18    18    19    1
   19    18    20    1
   20     1    21    1
   21    18    21    1
   22    21    22    1
   23    21    23    1
   24    13    24    1
   25    24    25    1
@<TRIPOS>SUBSTRUCTURE
       1 MOL1            1 RESIDUE      1      MOL     
@<SCITEGIC>MOL_PROPERTY
VM2 Rank
SciTegic.value.IntegerValue
66

@<SCITEGIC>MOL_PROPERTY
Conf_Id
SciTegic.value.IntegerValue
1251

@<SCITEGIC>MOL_PROPERTY
Probability
SciTegic.value.DoubleValue
0.16

@<SCITEGIC>MOL_PROPERTY
Sum Probability
SciTegic.value.DoubleValue
98.00

@<SCITEGIC>MOL_PROPERTY
Delta G
SciTegic.value.DoubleValue
2.030

@<SCITEGIC>MOL_PROPERTY
G
SciTegic.value.DoubleValue
64.106

@<SCITEGIC>MOL_PROPERTY
E
SciTegic.value.DoubleValue
31.817

@<SCITEGIC>MOL_PROPERTY
-TS
SciTegic.value.DoubleValue
32.289

@<SCITEGIC>MOL_PROPERTY
U+W
SciTegic.value.DoubleValue
11.250

@<SCITEGIC>MOL_PROPERTY
U
SciTegic.value.DoubleValue
13.420

@<SCITEGIC>MOL_PROPERTY
W
SciTegic.value.DoubleValue
-2.170

@<SCITEGIC>MOL_PROPERTY
W(PB)
SciTegic.value.DoubleValue
-4.300

@<SCITEGIC>MOL_PROPERTY
W(SA)
SciTegic.value.DoubleValue
2.131

@<SCITEGIC>MOL_PROPERTY
Valence
SciTegic.value.DoubleValue
18.609

@<SCITEGIC>MOL_PROPERTY
Coulomb
SciTegic.value.DoubleValue
-8.052

@<SCITEGIC>MOL_PROPERTY
VdW
SciTegic.value.DoubleValue
2.863

@<SCITEGIC>MOL_PROPERTY
VdW6
SciTegic.value.DoubleValue
-12.524

@<SCITEGIC>MOL_PROPERTY
VdW12
SciTegic.value.DoubleValue
15.388

@<SCITEGIC>MOL_PROPERTY
Bond
SciTegic.value.DoubleValue
0.430

@<SCITEGIC>MOL_PROPERTY
Angle
SciTegic.value.DoubleValue
4.723

@<SCITEGIC>MOL_PROPERTY
Pdih
SciTegic.value.DoubleValue
13.455

@<SCITEGIC>MOL_PROPERTY
Idih
SciTegic.value.DoubleValue
0.000

@<SCITEGIC>MOL_PROPERTY
Tether
SciTegic.value.DoubleValue
0.000

@<TRIPOS>MOLECULE
guest-s17_vm2.mol2 : vm2 ligand conformer 67
          25          25           1
SMALL
USER_CHARGES
 
@<TRIPOS>ATOM
       1    C1      20.918735   19.539612   20.775630 C.3        1 MOL1        -0.1684
       2    H1      21.020793   19.588037   19.682833 H          1 MOL1         0.0833
       3    H2      21.892601   19.866092   21.161884 H          1 MOL1         0.0833
       4    C2      20.663031   18.062720   21.166917 C.3        1 MOL1        -0.1684
       5    H3      19.592022   17.825271   21.114083 H          1 MOL1         0.0833
       6    H4      21.136710   17.441957   20.393989 H          1 MOL1         0.0833
       7    C3      21.268772   17.624675   22.529543 C.3        1 MOL1        -0.1684
       8    H5      22.242179   18.102694   22.703164 H          1 MOL1         0.0833
       9    H6      21.483154   16.550000   22.450522 H          1 MOL1         0.0833
      10    C4      20.337902   17.807078   23.756487 C.3        1 MOL1        -0.1760
      11    H7      19.294090   17.642460   23.462121 H          1 MOL1         0.0833
      12    H8      20.560786   17.002208   24.469034 H          1 MOL1         0.0833
      13    C5      20.480395   19.138542   24.536369 C.3        1 MOL1         0.1219
      14    H9      21.444659   19.117703   25.064434 H          1 MOL1         0.0790
      15    C6      20.446779   20.434357   23.691505 C.3        1 MOL1        -0.1760
      16    H10     20.343052   21.291214   24.369763 H          1 MOL1         0.0833
      17    H11     21.425061   20.576943   23.220114 H          1 MOL1         0.0833
      18    C7      19.310347   20.493163   22.636734 C.3        1 MOL1        -0.1684
      19    H12     18.698817   21.385700   22.825856 H          1 MOL1         0.0833
      20    H13     18.619284   19.650707   22.758431 H          1 MOL1         0.0833
      21    C8      19.807457   20.547638   21.171913 C.3        1 MOL1        -0.1684
      22    H14     20.175408   21.561263   20.962350 H          1 MOL1         0.0833
      23    H15     18.942925   20.401127   20.510225 H          1 MOL1         0.0833
      24    O1      19.430583   19.195214   25.494901 O.3        1 MOL1        -0.5508
      25    H16     19.533931   20.041861   25.976176 H          1 MOL1         0.3780
@<TRIPOS>BOND
    1     1     2    1
    2     1     3    1
    3     1     4    1
    4     4     5    1
    5     4     6    1
    6     4     7    1
    7     7     8    1
    8     7     9    1
    9     7    10    1
   10    10    11    1
   11    10    12    1
   12    10    13    1
   13    13    14    1
   14    13    15    1
   15    15    16    1
   16    15    17    1
   17    15    18    1
   18    18    19    1
   19    18    20    1
   20     1    21    1
   21    18    21    1
   22    21    22    1
   23    21    23    1
   24    13    24    1
   25    24    25    1
@<TRIPOS>SUBSTRUCTURE
       1 MOL1            1 RESIDUE      1      MOL     
@<SCITEGIC>MOL_PROPERTY
VM2 Rank
SciTegic.value.IntegerValue
67

@<SCITEGIC>MOL_PROPERTY
Conf_Id
SciTegic.value.IntegerValue
1103

@<SCITEGIC>MOL_PROPERTY
Probability
SciTegic.value.DoubleValue
0.16

@<SCITEGIC>MOL_PROPERTY
Sum Probability
SciTegic.value.DoubleValue
98.16

@<SCITEGIC>MOL_PROPERTY
Delta G
SciTegic.value.DoubleValue
2.031

@<SCITEGIC>MOL_PROPERTY
G
SciTegic.value.DoubleValue
64.107

@<SCITEGIC>MOL_PROPERTY
E
SciTegic.value.DoubleValue
31.820

@<SCITEGIC>MOL_PROPERTY
-TS
SciTegic.value.DoubleValue
32.287

@<SCITEGIC>MOL_PROPERTY
U+W
SciTegic.value.DoubleValue
11.252

@<SCITEGIC>MOL_PROPERTY
U
SciTegic.value.DoubleValue
13.420

@<SCITEGIC>MOL_PROPERTY
W
SciTegic.value.DoubleValue
-2.168

@<SCITEGIC>MOL_PROPERTY
W(PB)
SciTegic.value.DoubleValue
-4.325

@<SCITEGIC>MOL_PROPERTY
W(SA)
SciTegic.value.DoubleValue
2.157

@<SCITEGIC>MOL_PROPERTY
Valence
SciTegic.value.DoubleValue
18.609

@<SCITEGIC>MOL_PROPERTY
Coulomb
SciTegic.value.DoubleValue
-8.052

@<SCITEGIC>MOL_PROPERTY
VdW
SciTegic.value.DoubleValue
2.863

@<SCITEGIC>MOL_PROPERTY
VdW6
SciTegic.value.DoubleValue
-12.524

@<SCITEGIC>MOL_PROPERTY
VdW12
SciTegic.value.DoubleValue
15.387

@<SCITEGIC>MOL_PROPERTY
Bond
SciTegic.value.DoubleValue
0.430

@<SCITEGIC>MOL_PROPERTY
Angle
SciTegic.value.DoubleValue
4.723

@<SCITEGIC>MOL_PROPERTY
Pdih
SciTegic.value.DoubleValue
13.455

@<SCITEGIC>MOL_PROPERTY
Idih
SciTegic.value.DoubleValue
0.000

@<SCITEGIC>MOL_PROPERTY
Tether
SciTegic.value.DoubleValue
0.000

@<TRIPOS>MOLECULE
guest-s17_vm2.mol2 : vm2 ligand conformer 68
          25          25           1
SMALL
USER_CHARGES
 
@<TRIPOS>ATOM
       1    C1      20.863103   19.421350   20.596259 C.3        1 MOL1        -0.1684
       2    H1      20.270921   19.563820   19.681996 H          1 MOL1         0.0833
       3    H2      21.913896   19.487525   20.282838 H          1 MOL1         0.0833
       4    C2      20.586633   17.989070   21.125725 C.3        1 MOL1        -0.1684
       5    H3      19.508842   17.782892   21.138037 H          1 MOL1         0.0833
       6    H4      20.996091   17.289613   20.383991 H          1 MOL1         0.0833
       7    C3      21.207673   17.641234   22.501215 C.3        1 MOL1        -0.1684
       8    H5      22.177004   18.141669   22.629343 H          1 MOL1         0.0833
       9    H6      21.434986   16.566390   22.485653 H          1 MOL1         0.0833
      10    C4      20.281593   17.888535   23.725610 C.3        1 MOL1        -0.1760
      11    H7      19.238343   17.652169   23.480178 H          1 MOL1         0.0833
      12    H8      20.575917   17.159689   24.493143 H          1 MOL1         0.0833
      13    C5      20.386241   19.301310   24.350264 C.3        1 MOL1         0.1219
      14    H9      21.398306   19.687758   24.171222 H          1 MOL1         0.0790
      15    C6      19.347018   20.331626   23.840091 C.3        1 MOL1        -0.1760
      16    H10     18.357558   20.082239   24.245237 H          1 MOL1         0.0833
      17    H11     19.610423   21.308453   24.266761 H          1 MOL1         0.0833
      18    C7      19.214687   20.489986   22.304495 C.3        1 MOL1        -0.1684
      19    H12     18.630487   21.398627   22.104893 H          1 MOL1         0.0833
      20    H13     18.606838   19.672535   21.899543 H          1 MOL1         0.0833
      21    C8      20.569821   20.596825   21.560488 C.3        1 MOL1        -0.1684
      22    H14     21.400471   20.709586   22.266861 H          1 MOL1         0.0833
      23    H15     20.576002   21.525699   20.973949 H          1 MOL1         0.0833
      24    O1      20.207232   19.183065   25.755854 O.3        1 MOL1        -0.5508
      25    H16     19.308522   18.818317   25.890952 H          1 MOL1         0.3780
@<TRIPOS>BOND
    1     1     2    1
    2     1     3    1
    3     1     4    1
    4     4     5    1
    5     4     6    1
    6     4     7    1
    7     7     8    1
    8     7     9    1
    9     7    10    1
   10    10    11    1
   11    10    12    1
   12    10    13    1
   13    13    14    1
   14    13    15    1
   15    15    16    1
   16    15    17    1
   17    15    18    1
   18    18    19    1
   19    18    20    1
   20     1    21    1
   21    18    21    1
   22    21    22    1
   23    21    23    1
   24    13    24    1
   25    24    25    1
@<TRIPOS>SUBSTRUCTURE
       1 MOL1            1 RESIDUE      1      MOL     
@<SCITEGIC>MOL_PROPERTY
VM2 Rank
SciTegic.value.IntegerValue
68

@<SCITEGIC>MOL_PROPERTY
Conf_Id
SciTegic.value.IntegerValue
1521

@<SCITEGIC>MOL_PROPERTY
Probability
SciTegic.value.DoubleValue
0.16

@<SCITEGIC>MOL_PROPERTY
Sum Probability
SciTegic.value.DoubleValue
98.32

@<SCITEGIC>MOL_PROPERTY
Delta G
SciTegic.value.DoubleValue
2.051

@<SCITEGIC>MOL_PROPERTY
G
SciTegic.value.DoubleValue
64.126

@<SCITEGIC>MOL_PROPERTY
E
SciTegic.value.DoubleValue
31.869

@<SCITEGIC>MOL_PROPERTY
-TS
SciTegic.value.DoubleValue
32.257

@<SCITEGIC>MOL_PROPERTY
U+W
SciTegic.value.DoubleValue
11.301

@<SCITEGIC>MOL_PROPERTY
U
SciTegic.value.DoubleValue
13.202

@<SCITEGIC>MOL_PROPERTY
W
SciTegic.value.DoubleValue
-1.901

@<SCITEGIC>MOL_PROPERTY
W(PB)
SciTegic.value.DoubleValue
-4.065

@<SCITEGIC>MOL_PROPERTY
W(SA)
SciTegic.value.DoubleValue
2.163

@<SCITEGIC>MOL_PROPERTY
Valence
SciTegic.value.DoubleValue
18.957

@<SCITEGIC>MOL_PROPERTY
Coulomb
SciTegic.value.DoubleValue
-8.753

@<SCITEGIC>MOL_PROPERTY
VdW
SciTegic.value.DoubleValue
2.998

@<SCITEGIC>MOL_PROPERTY
VdW6
SciTegic.value.DoubleValue
-12.294

@<SCITEGIC>MOL_PROPERTY
VdW12
SciTegic.value.DoubleValue
15.292

@<SCITEGIC>MOL_PROPERTY
Bond
SciTegic.value.DoubleValue
0.419

@<SCITEGIC>MOL_PROPERTY
Angle
SciTegic.value.DoubleValue
4.543

@<SCITEGIC>MOL_PROPERTY
Pdih
SciTegic.value.DoubleValue
13.996

@<SCITEGIC>MOL_PROPERTY
Idih
SciTegic.value.DoubleValue
0.000

@<SCITEGIC>MOL_PROPERTY
Tether
SciTegic.value.DoubleValue
0.000

@<TRIPOS>MOLECULE
guest-s17_vm2.mol2 : vm2 ligand conformer 69
          25          25           1
SMALL
USER_CHARGES
 
@<TRIPOS>ATOM
       1    C1      19.890654   19.003555   20.794401 C.3        1 MOL1        -0.1684
       2    H1      18.939479   18.617723   21.182692 H          1 MOL1         0.0833
       3    H2      19.758940   19.028100   19.704006 H          1 MOL1         0.0833
       4    C2      21.044602   18.009167   21.089389 C.3        1 MOL1        -0.1684
       5    H3      20.706729   17.002765   20.806927 H          1 MOL1         0.0833
       6    H4      21.889256   18.237661   20.425252 H          1 MOL1         0.0833
       7    C3      21.569795   17.964264   22.544814 C.3        1 MOL1        -0.1684
       8    H5      22.242137   18.812384   22.718336 H          1 MOL1         0.0833
       9    H6      22.207188   17.075739   22.649539 H          1 MOL1         0.0833
      10    C4      20.454517   17.906493   23.621670 C.3        1 MOL1        -0.1760
      11    H7      19.472191   17.748141   23.162703 H          1 MOL1         0.0833
      12    H8      20.619625   17.019839   24.247246 H          1 MOL1         0.0833
      13    C5      20.398952   19.135139   24.558472 C.3        1 MOL1         0.1219
      14    H9      21.250553   19.063329   25.250387 H          1 MOL1         0.0790
      15    C6      20.483464   20.526238   23.876713 C.3        1 MOL1        -0.1760
      16    H10     20.272175   21.280197   24.646248 H          1 MOL1         0.0833
      17    H11     21.515583   20.732679   23.569388 H          1 MOL1         0.0833
      18    C7      19.522089   20.776696   22.685261 C.3        1 MOL1        -0.1684
      19    H12     19.277620   21.847673   22.692238 H          1 MOL1         0.0833
      20    H13     18.565724   20.259428   22.841517 H          1 MOL1         0.0833
      21    C8      20.109037   20.457191   21.282356 C.3        1 MOL1        -0.1684
      22    H14     21.170211   20.733704   21.222889 H          1 MOL1         0.0833
      23    H15     19.596697   21.114201   20.566168 H          1 MOL1         0.0833
      24    O1      19.190889   19.064256   25.306923 O.3        1 MOL1        -0.5508
      25    H16     19.176197   19.848300   25.893471 H          1 MOL1         0.3780
@<TRIPOS>BOND
    1     1     2    1
    2     1     3    1
    3     1     4    1
    4     4     5    1
    5     4     6    1
    6     4     7    1
    7     7     8    1
    8     7     9    1
    9     7    10    1
   10    10    11    1
   11    10    12    1
   12    10    13    1
   13    13    14    1
   14    13    15    1
   15    15    16    1
   16    15    17    1
   17    15    18    1
   18    18    19    1
   19    18    20    1
   20     1    21    1
   21    18    21    1
   22    21    22    1
   23    21    23    1
   24    13    24    1
   25    24    25    1
@<TRIPOS>SUBSTRUCTURE
       1 MOL1            1 RESIDUE      1      MOL     
@<SCITEGIC>MOL_PROPERTY
VM2 Rank
SciTegic.value.IntegerValue
69

@<SCITEGIC>MOL_PROPERTY
Conf_Id
SciTegic.value.IntegerValue
396

@<SCITEGIC>MOL_PROPERTY
Probability
SciTegic.value.DoubleValue
0.14

@<SCITEGIC>MOL_PROPERTY
Sum Probability
SciTegic.value.DoubleValue
98.46

@<SCITEGIC>MOL_PROPERTY
Delta G
SciTegic.value.DoubleValue
2.110

@<SCITEGIC>MOL_PROPERTY
G
SciTegic.value.DoubleValue
64.185

@<SCITEGIC>MOL_PROPERTY
E
SciTegic.value.DoubleValue
31.920

@<SCITEGIC>MOL_PROPERTY
-TS
SciTegic.value.DoubleValue
32.266

@<SCITEGIC>MOL_PROPERTY
U+W
SciTegic.value.DoubleValue
11.352

@<SCITEGIC>MOL_PROPERTY
U
SciTegic.value.DoubleValue
13.643

@<SCITEGIC>MOL_PROPERTY
W
SciTegic.value.DoubleValue
-2.291

@<SCITEGIC>MOL_PROPERTY
W(PB)
SciTegic.value.DoubleValue
-4.412

@<SCITEGIC>MOL_PROPERTY
W(SA)
SciTegic.value.DoubleValue
2.122

@<SCITEGIC>MOL_PROPERTY
Valence
SciTegic.value.DoubleValue
18.609

@<SCITEGIC>MOL_PROPERTY
Coulomb
SciTegic.value.DoubleValue
-7.808

@<SCITEGIC>MOL_PROPERTY
VdW
SciTegic.value.DoubleValue
2.842

@<SCITEGIC>MOL_PROPERTY
VdW6
SciTegic.value.DoubleValue
-12.553

@<SCITEGIC>MOL_PROPERTY
VdW12
SciTegic.value.DoubleValue
15.395

@<SCITEGIC>MOL_PROPERTY
Bond
SciTegic.value.DoubleValue
0.434

@<SCITEGIC>MOL_PROPERTY
Angle
SciTegic.value.DoubleValue
4.743

@<SCITEGIC>MOL_PROPERTY
Pdih
SciTegic.value.DoubleValue
13.432

@<SCITEGIC>MOL_PROPERTY
Idih
SciTegic.value.DoubleValue
0.000

@<SCITEGIC>MOL_PROPERTY
Tether
SciTegic.value.DoubleValue
0.000

@<TRIPOS>MOLECULE
guest-s17_vm2.mol2 : vm2 ligand conformer 70
          25          25           1
SMALL
USER_CHARGES
 
@<TRIPOS>ATOM
       1    C1      20.896661   19.356260   21.001070 C.3        1 MOL1        -0.1684
       2    H1      21.112604   19.263393   19.927966 H          1 MOL1         0.0833
       3    H2      21.869337   19.561533   21.462158 H          1 MOL1         0.0833
       4    C2      20.310261   18.014386   21.505232 C.3        1 MOL1        -0.1684
       5    H3      19.243299   18.114182   21.733275 H          1 MOL1         0.0833
       6    H4      20.347975   17.286977   20.682742 H          1 MOL1         0.0833
       7    C3      21.062998   17.401700   22.712566 C.3        1 MOL1        -0.1684
       8    H5      21.978098   16.923584   22.337246 H          1 MOL1         0.0833
       9    H6      20.456517   16.584262   23.126138 H          1 MOL1         0.0833
      10    C4      21.476889   18.365836   23.862725 C.3        1 MOL1        -0.1760
      11    H7      21.894360   17.744948   24.666112 H          1 MOL1         0.0833
      12    H8      22.313784   18.998784   23.544613 H          1 MOL1         0.0833
      13    C5      20.381173   19.256182   24.498331 C.3        1 MOL1         0.1219
      14    H9      20.732844   19.482149   25.515389 H          1 MOL1         0.0790
      15    C6      20.166976   20.637803   23.818003 C.3        1 MOL1        -0.1760
      16    H10     19.712570   21.284143   24.580293 H          1 MOL1         0.0833
      17    H11     21.136768   21.100474   23.594369 H          1 MOL1         0.0833
      18    C7      19.248392   20.701632   22.566044 C.3        1 MOL1        -0.1684
      19    H12     18.752515   21.681898   22.570829 H          1 MOL1         0.0833
      20    H13     18.424786   19.982601   22.645219 H          1 MOL1         0.0833
      21    C8      19.959243   20.572392   21.193526 C.3        1 MOL1        -0.1684
      22    H14     20.537361   21.487039   21.003818 H          1 MOL1         0.0833
      23    H15     19.185678   20.542959   20.414018 H          1 MOL1         0.0833
      24    O1      19.161407   18.536808   24.602503 O.3        1 MOL1        -0.5508
      25    H16     18.976451   18.235480   23.691174 H          1 MOL1         0.3780
@<TRIPOS>BOND
    1     1     2    1
    2     1     3    1
    3     1     4    1
    4     4     5    1
    5     4     6    1
    6     4     7    1
    7     7     8    1
    8     7     9    1
    9     7    10    1
   10    10    11    1
   11    10    12    1
   12    10    13    1
   13    13    14    1
   14    13    15    1
   15    15    16    1
   16    15    17    1
   17    15    18    1
   18    18    19    1
   19    18    20    1
   20     1    21    1
   21    18    21    1
   22    21    22    1
   23    21    23    1
   24    13    24    1
   25    24    25    1
@<TRIPOS>SUBSTRUCTURE
       1 MOL1            1 RESIDUE      1      MOL     
@<SCITEGIC>MOL_PROPERTY
VM2 Rank
SciTegic.value.IntegerValue
70

@<SCITEGIC>MOL_PROPERTY
Conf_Id
SciTegic.value.IntegerValue
941

@<SCITEGIC>MOL_PROPERTY
Probability
SciTegic.value.DoubleValue
0.14

@<SCITEGIC>MOL_PROPERTY
Sum Probability
SciTegic.value.DoubleValue
98.60

@<SCITEGIC>MOL_PROPERTY
Delta G
SciTegic.value.DoubleValue
2.118

@<SCITEGIC>MOL_PROPERTY
G
SciTegic.value.DoubleValue
64.193

@<SCITEGIC>MOL_PROPERTY
E
SciTegic.value.DoubleValue
31.541

@<SCITEGIC>MOL_PROPERTY
-TS
SciTegic.value.DoubleValue
32.652

@<SCITEGIC>MOL_PROPERTY
U+W
SciTegic.value.DoubleValue
10.974

@<SCITEGIC>MOL_PROPERTY
U
SciTegic.value.DoubleValue
12.265

@<SCITEGIC>MOL_PROPERTY
W
SciTegic.value.DoubleValue
-1.291

@<SCITEGIC>MOL_PROPERTY
W(PB)
SciTegic.value.DoubleValue
-3.431

@<SCITEGIC>MOL_PROPERTY
W(SA)
SciTegic.value.DoubleValue
2.140

@<SCITEGIC>MOL_PROPERTY
Valence
SciTegic.value.DoubleValue
19.257

@<SCITEGIC>MOL_PROPERTY
Coulomb
SciTegic.value.DoubleValue
-9.838

@<SCITEGIC>MOL_PROPERTY
VdW
SciTegic.value.DoubleValue
2.845

@<SCITEGIC>MOL_PROPERTY
VdW6
SciTegic.value.DoubleValue
-13.716

@<SCITEGIC>MOL_PROPERTY
VdW12
SciTegic.value.DoubleValue
16.562

@<SCITEGIC>MOL_PROPERTY
Bond
SciTegic.value.DoubleValue
0.508

@<SCITEGIC>MOL_PROPERTY
Angle
SciTegic.value.DoubleValue
6.449

@<SCITEGIC>MOL_PROPERTY
Pdih
SciTegic.value.DoubleValue
12.301

@<SCITEGIC>MOL_PROPERTY
Idih
SciTegic.value.DoubleValue
0.000

@<SCITEGIC>MOL_PROPERTY
Tether
SciTegic.value.DoubleValue
0.000

@<TRIPOS>MOLECULE
guest-s17_vm2.mol2 : vm2 ligand conformer 71
          25          25           1
SMALL
USER_CHARGES
 
@<TRIPOS>ATOM
       1    C1      20.947116   19.395730   20.769051 C.3        1 MOL1        -0.1684
       2    H1      21.869393   19.853526   21.148535 H          1 MOL1         0.0833
       3    H2      21.046837   19.429964   19.675503 H          1 MOL1         0.0833
       4    C2      20.874160   17.898905   21.170747 C.3        1 MOL1        -0.1684
       5    H3      20.148911   17.391277   20.520348 H          1 MOL1         0.0833
       6    H4      21.846814   17.438702   20.949628 H          1 MOL1         0.0833
       7    C3      20.503751   17.591771   22.641904 C.3        1 MOL1        -0.1684
       8    H5      20.706570   16.529240   22.832172 H          1 MOL1         0.0833
       9    H6      19.421325   17.697100   22.779549 H          1 MOL1         0.0833
      10    C4      21.280028   18.439818   23.684100 C.3        1 MOL1        -0.1760
      11    H7      21.802661   17.760585   24.370460 H          1 MOL1         0.0833
      12    H8      22.079016   19.015061   23.204373 H          1 MOL1         0.0833
      13    C5      20.405141   19.395514   24.529917 C.3        1 MOL1         0.1219
      14    H9      21.085222   20.099150   25.031388 H          1 MOL1         0.0790
      15    C6      19.345974   20.224219   23.759317 C.3        1 MOL1        -0.1760
      16    H10     18.492094   19.595752   23.477403 H          1 MOL1         0.0833
      17    H11     18.938588   20.956417   24.468631 H          1 MOL1         0.0833
      18    C7      19.856018   21.007028   22.521823 C.3        1 MOL1        -0.1684
      19    H12     20.882732   21.363144   22.680907 H          1 MOL1         0.0833
      20    H13     19.242469   21.915221   22.444677 H          1 MOL1         0.0833
      21    C8      19.725152   20.261109   21.165009 C.3        1 MOL1        -0.1684
      22    H14     19.614194   21.030260   20.388322 H          1 MOL1         0.0833
      23    H15     18.799706   19.671094   21.124026 H          1 MOL1         0.0833
      24    O1      19.726661   18.628905   25.518131 O.3        1 MOL1        -0.5508
      25    H16     19.222482   19.261920   26.070047 H          1 MOL1         0.3780
@<TRIPOS>BOND
    1     1     2    1
    2     1     3    1
    3     1     4    1
    4     4     5    1
    5     4     6    1
    6     4     7    1
    7     7     8    1
    8     7     9    1
    9     7    10    1
   10    10    11    1
   11    10    12    1
   12    10    13    1
   13    13    14    1
   14    13    15    1
   15    15    16    1
   16    15    17    1
   17    15    18    1
   18    18    19    1
   19    18    20    1
   20     1    21    1
   21    18    21    1
   22    21    22    1
   23    21    23    1
   24    13    24    1
   25    24    25    1
@<TRIPOS>SUBSTRUCTURE
       1 MOL1            1 RESIDUE      1      MOL     
@<SCITEGIC>MOL_PROPERTY
VM2 Rank
SciTegic.value.IntegerValue
71

@<SCITEGIC>MOL_PROPERTY
Conf_Id
SciTegic.value.IntegerValue
254

@<SCITEGIC>MOL_PROPERTY
Probability
SciTegic.value.DoubleValue
0.14

@<SCITEGIC>MOL_PROPERTY
Sum Probability
SciTegic.value.DoubleValue
98.74

@<SCITEGIC>MOL_PROPERTY
Delta G
SciTegic.value.DoubleValue
2.130

@<SCITEGIC>MOL_PROPERTY
G
SciTegic.value.DoubleValue
64.205

@<SCITEGIC>MOL_PROPERTY
E
SciTegic.value.DoubleValue
31.906

@<SCITEGIC>MOL_PROPERTY
-TS
SciTegic.value.DoubleValue
32.299

@<SCITEGIC>MOL_PROPERTY
U+W
SciTegic.value.DoubleValue
11.339

@<SCITEGIC>MOL_PROPERTY
U
SciTegic.value.DoubleValue
13.665

@<SCITEGIC>MOL_PROPERTY
W
SciTegic.value.DoubleValue
-2.326

@<SCITEGIC>MOL_PROPERTY
W(PB)
SciTegic.value.DoubleValue
-4.462

@<SCITEGIC>MOL_PROPERTY
W(SA)
SciTegic.value.DoubleValue
2.136

@<SCITEGIC>MOL_PROPERTY
Valence
SciTegic.value.DoubleValue
18.607

@<SCITEGIC>MOL_PROPERTY
Coulomb
SciTegic.value.DoubleValue
-7.778

@<SCITEGIC>MOL_PROPERTY
VdW
SciTegic.value.DoubleValue
2.836

@<SCITEGIC>MOL_PROPERTY
VdW6
SciTegic.value.DoubleValue
-12.472

@<SCITEGIC>MOL_PROPERTY
VdW12
SciTegic.value.DoubleValue
15.308

@<SCITEGIC>MOL_PROPERTY
Bond
SciTegic.value.DoubleValue
0.426

@<SCITEGIC>MOL_PROPERTY
Angle
SciTegic.value.DoubleValue
4.743

@<SCITEGIC>MOL_PROPERTY
Pdih
SciTegic.value.DoubleValue
13.438

@<SCITEGIC>MOL_PROPERTY
Idih
SciTegic.value.DoubleValue
0.000

@<SCITEGIC>MOL_PROPERTY
Tether
SciTegic.value.DoubleValue
0.000

@<TRIPOS>MOLECULE
guest-s17_vm2.mol2 : vm2 ligand conformer 72
          25          25           1
SMALL
USER_CHARGES
 
@<TRIPOS>ATOM
       1    C1      20.244793   19.192671   20.606580 C.3        1 MOL1        -0.1684
       2    H1      20.632319   19.333197   19.588296 H          1 MOL1         0.0833
       3    H2      19.296271   18.651029   20.490237 H          1 MOL1         0.0833
       4    C2      21.257320   18.325019   21.389811 C.3        1 MOL1        -0.1684
       5    H3      21.666406   17.582828   20.690662 H          1 MOL1         0.0833
       6    H4      22.115639   18.933776   21.703211 H          1 MOL1         0.0833
       7    C3      20.641887   17.551323   22.586111 C.3        1 MOL1        -0.1684
       8    H5      20.906772   16.492019   22.466506 H          1 MOL1         0.0833
       9    H6      19.544448   17.579012   22.563209 H          1 MOL1         0.0833
      10    C4      21.162104   18.006222   23.972922 C.3        1 MOL1        -0.1760
      11    H7      21.062681   17.162281   24.668166 H          1 MOL1         0.0833
      12    H8      22.238785   18.211049   23.916610 H          1 MOL1         0.0833
      13    C5      20.442816   19.214984   24.616857 C.3        1 MOL1         0.1219
      14    H9      21.002234   19.446367   25.534865 H          1 MOL1         0.0790
      15    C6      20.434767   20.510601   23.767993 C.3        1 MOL1        -0.1760
      16    H10     20.251127   21.345475   24.456724 H          1 MOL1         0.0833
      17    H11     21.443675   20.687802   23.374802 H          1 MOL1         0.0833
      18    C7      19.379039   20.598884   22.626987 C.3        1 MOL1        -0.1684
      19    H12     18.837863   21.546509   22.752675 H          1 MOL1         0.0833
      20    H13     18.613944   19.816581   22.710365 H          1 MOL1         0.0833
      21    C8      19.982497   20.595860   21.202631 C.3        1 MOL1        -0.1684
      22    H14     20.903483   21.193836   21.178701 H          1 MOL1         0.0833
      23    H15     19.278958   21.110896   20.534317 H          1 MOL1         0.0833
      24    O1      19.118776   18.847435   24.990109 O.3        1 MOL1        -0.5508
      25    H16     18.685205   19.664213   25.311139 H          1 MOL1         0.3780
@<TRIPOS>BOND
    1     1     2    1
    2     1     3    1
    3     1     4    1
    4     4     5    1
    5     4     6    1
    6     4     7    1
    7     7     8    1
    8     7     9    1
    9     7    10    1
   10    10    11    1
   11    10    12    1
   12    10    13    1
   13    13    14    1
   14    13    15    1
   15    15    16    1
   16    15    17    1
   17    15    18    1
   18    18    19    1
   19    18    20    1
   20     1    21    1
   21    18    21    1
   22    21    22    1
   23    21    23    1
   24    13    24    1
   25    24    25    1
@<TRIPOS>SUBSTRUCTURE
       1 MOL1            1 RESIDUE      1      MOL     
@<SCITEGIC>MOL_PROPERTY
VM2 Rank
SciTegic.value.IntegerValue
72

@<SCITEGIC>MOL_PROPERTY
Conf_Id
SciTegic.value.IntegerValue
1684

@<SCITEGIC>MOL_PROPERTY
Probability
SciTegic.value.DoubleValue
0.14

@<SCITEGIC>MOL_PROPERTY
Sum Probability
SciTegic.value.DoubleValue
98.87

@<SCITEGIC>MOL_PROPERTY
Delta G
SciTegic.value.DoubleValue
2.140

@<SCITEGIC>MOL_PROPERTY
G
SciTegic.value.DoubleValue
64.216

@<SCITEGIC>MOL_PROPERTY
E
SciTegic.value.DoubleValue
32.113

@<SCITEGIC>MOL_PROPERTY
-TS
SciTegic.value.DoubleValue
32.103

@<SCITEGIC>MOL_PROPERTY
U+W
SciTegic.value.DoubleValue
11.545

@<SCITEGIC>MOL_PROPERTY
U
SciTegic.value.DoubleValue
13.660

@<SCITEGIC>MOL_PROPERTY
W
SciTegic.value.DoubleValue
-2.115

@<SCITEGIC>MOL_PROPERTY
W(PB)
SciTegic.value.DoubleValue
-4.226

@<SCITEGIC>MOL_PROPERTY
W(SA)
SciTegic.value.DoubleValue
2.111

@<SCITEGIC>MOL_PROPERTY
Valence
SciTegic.value.DoubleValue
18.998

@<SCITEGIC>MOL_PROPERTY
Coulomb
SciTegic.value.DoubleValue
-7.829

@<SCITEGIC>MOL_PROPERTY
VdW
SciTegic.value.DoubleValue
2.491

@<SCITEGIC>MOL_PROPERTY
VdW6
SciTegic.value.DoubleValue
-12.613

@<SCITEGIC>MOL_PROPERTY
VdW12
SciTegic.value.DoubleValue
15.104

@<SCITEGIC>MOL_PROPERTY
Bond
SciTegic.value.DoubleValue
0.387

@<SCITEGIC>MOL_PROPERTY
Angle
SciTegic.value.DoubleValue
4.271

@<SCITEGIC>MOL_PROPERTY
Pdih
SciTegic.value.DoubleValue
14.339

@<SCITEGIC>MOL_PROPERTY
Idih
SciTegic.value.DoubleValue
0.000

@<SCITEGIC>MOL_PROPERTY
Tether
SciTegic.value.DoubleValue
0.000

@<TRIPOS>MOLECULE
guest-s17_vm2.mol2 : vm2 ligand conformer 73
          25          25           1
SMALL
USER_CHARGES
 
@<TRIPOS>ATOM
       1    C1      20.801173   19.515840   20.992552 C.3        1 MOL1        -0.1684
       2    H1      20.871464   19.720594   19.915545 H          1 MOL1         0.0833
       3    H2      21.612023   20.102341   21.439065 H          1 MOL1         0.0833
       4    C2      21.067227   18.006615   21.207558 C.3        1 MOL1        -0.1684
       5    H3      20.518451   17.443238   20.440515 H          1 MOL1         0.0833
       6    H4      22.131091   17.812849   21.014079 H          1 MOL1         0.0833
       7    C3      20.691728   17.416966   22.592164 C.3        1 MOL1        -0.1684
       8    H5      21.080513   16.389672   22.610945 H          1 MOL1         0.0833
       9    H6      19.605839   17.295806   22.680276 H          1 MOL1         0.0833
      10    C4      21.272558   18.157865   23.828681 C.3        1 MOL1        -0.1760
      11    H7      21.447793   17.398677   24.602148 H          1 MOL1         0.0833
      12    H8      22.266983   18.557576   23.592200 H          1 MOL1         0.0833
      13    C5      20.401901   19.259172   24.497023 C.3        1 MOL1         0.1219
      14    H9      20.812468   19.382447   25.509633 H          1 MOL1         0.0790
      15    C6      20.480266   20.658222   23.838372 C.3        1 MOL1        -0.1760
      16    H10     20.309008   21.398125   24.631106 H          1 MOL1         0.0833
      17    H11     21.510070   20.843394   23.510612 H          1 MOL1         0.0833
      18    C7      19.482104   20.985066   22.689210 C.3        1 MOL1        -0.1684
      19    H12     19.744438   21.976843   22.296238 H          1 MOL1         0.0833
      20    H13     18.472268   21.095909   23.107555 H          1 MOL1         0.0833
      21    C8      19.418478   19.996870   21.497960 C.3        1 MOL1        -0.1684
      22    H14     18.901873   20.502398   20.670556 H          1 MOL1         0.0833
      23    H15     18.773547   19.145997   21.743831 H          1 MOL1         0.0833
      24    O1      19.048564   18.846384   24.616480 O.3        1 MOL1        -0.5508
      25    H16     18.695552   18.898705   23.706440 H          1 MOL1         0.3780
@<TRIPOS>BOND
    1     1     2    1
    2     1     3    1
    3     1     4    1
    4     4     5    1
    5     4     6    1
    6     4     7    1
    7     7     8    1
    8     7     9    1
    9     7    10    1
   10    10    11    1
   11    10    12    1
   12    10    13    1
   13    13    14    1
   14    13    15    1
   15    15    16    1
   16    15    17    1
   17    15    18    1
   18    18    19    1
   19    18    20    1
   20     1    21    1
   21    18    21    1
   22    21    22    1
   23    21    23    1
   24    13    24    1
   25    24    25    1
@<TRIPOS>SUBSTRUCTURE
       1 MOL1            1 RESIDUE      1      MOL     
@<SCITEGIC>MOL_PROPERTY
VM2 Rank
SciTegic.value.IntegerValue
73

@<SCITEGIC>MOL_PROPERTY
Conf_Id
SciTegic.value.IntegerValue
1353

@<SCITEGIC>MOL_PROPERTY
Probability
SciTegic.value.DoubleValue
0.13

@<SCITEGIC>MOL_PROPERTY
Sum Probability
SciTegic.value.DoubleValue
99.01

@<SCITEGIC>MOL_PROPERTY
Delta G
SciTegic.value.DoubleValue
2.142

@<SCITEGIC>MOL_PROPERTY
G
SciTegic.value.DoubleValue
64.217

@<SCITEGIC>MOL_PROPERTY
E
SciTegic.value.DoubleValue
31.565

@<SCITEGIC>MOL_PROPERTY
-TS
SciTegic.value.DoubleValue
32.652

@<SCITEGIC>MOL_PROPERTY
U+W
SciTegic.value.DoubleValue
10.998

@<SCITEGIC>MOL_PROPERTY
U
SciTegic.value.DoubleValue
12.265

@<SCITEGIC>MOL_PROPERTY
W
SciTegic.value.DoubleValue
-1.267

@<SCITEGIC>MOL_PROPERTY
W(PB)
SciTegic.value.DoubleValue
-3.395

@<SCITEGIC>MOL_PROPERTY
W(SA)
SciTegic.value.DoubleValue
2.128

@<SCITEGIC>MOL_PROPERTY
Valence
SciTegic.value.DoubleValue
19.257

@<SCITEGIC>MOL_PROPERTY
Coulomb
SciTegic.value.DoubleValue
-9.838

@<SCITEGIC>MOL_PROPERTY
VdW
SciTegic.value.DoubleValue
2.846

@<SCITEGIC>MOL_PROPERTY
VdW6
SciTegic.value.DoubleValue
-13.716

@<SCITEGIC>MOL_PROPERTY
VdW12
SciTegic.value.DoubleValue
16.562

@<SCITEGIC>MOL_PROPERTY
Bond
SciTegic.value.DoubleValue
0.508

@<SCITEGIC>MOL_PROPERTY
Angle
SciTegic.value.DoubleValue
6.448

@<SCITEGIC>MOL_PROPERTY
Pdih
SciTegic.value.DoubleValue
12.301

@<SCITEGIC>MOL_PROPERTY
Idih
SciTegic.value.DoubleValue
0.000

@<SCITEGIC>MOL_PROPERTY
Tether
SciTegic.value.DoubleValue
0.000

@<TRIPOS>MOLECULE
guest-s17_vm2.mol2 : vm2 ligand conformer 74
          25          25           1
SMALL
USER_CHARGES
 
@<TRIPOS>ATOM
       1    C1      19.850888   19.051697   20.798501 C.3        1 MOL1        -0.1684
       2    H1      18.908141   18.654669   21.195952 H          1 MOL1         0.0833
       3    H2      19.766472   18.936420   19.709236 H          1 MOL1         0.0833
       4    C2      21.036072   18.179184   21.281102 C.3        1 MOL1        -0.1684
       5    H3      21.131954   17.349054   20.567821 H          1 MOL1         0.0833
       6    H4      21.982026   18.732770   21.211809 H          1 MOL1         0.0833
       7    C3      20.857252   17.544655   22.688271 C.3        1 MOL1        -0.1684
       8    H5      21.440828   16.613956   22.694853 H          1 MOL1         0.0833
       9    H6      19.816183   17.235897   22.853989 H          1 MOL1         0.0833
      10    C4      21.370008   18.406337   23.871956 C.3        1 MOL1        -0.1760
      11    H7      21.759018   17.726843   24.641526 H          1 MOL1         0.0833
      12    H8      22.243966   18.987915   23.555255 H          1 MOL1         0.0833
      13    C5      20.332827   19.334314   24.557673 C.3        1 MOL1         0.1219
      14    H9      20.890217   19.989716   25.242430 H          1 MOL1         0.0790
      15    C6      19.497037   20.239148   23.623332 C.3        1 MOL1        -0.1760
      16    H10     18.686275   19.655381   23.173249 H          1 MOL1         0.0833
      17    H11     18.992522   20.986183   24.249562 H          1 MOL1         0.0833
      18    C7      20.318876   20.981238   22.536739 C.3        1 MOL1        -0.1684
      19    H12     21.395193   20.856612   22.702478 H          1 MOL1         0.0833
      20    H13     20.143191   22.060865   22.638003 H          1 MOL1         0.0833
      21    C8      19.967566   20.571980   21.085808 C.3        1 MOL1        -0.1684
      22    H14     20.721659   21.003899   20.413858 H          1 MOL1         0.0833
      23    H15     19.015338   21.044438   20.808621 H          1 MOL1         0.0833
      24    O1      19.433475   18.534447   25.316618 O.3        1 MOL1        -0.5508
      25    H16     19.981436   17.971651   25.901405 H          1 MOL1         0.3780
@<TRIPOS>BOND
    1     1     2    1
    2     1     3    1
    3     1     4    1
    4     4     5    1
    5     4     6    1
    6     4     7    1
    7     7     8    1
    8     7     9    1
    9     7    10    1
   10    10    11    1
   11    10    12    1
   12    10    13    1
   13    13    14    1
   14    13    15    1
   15    15    16    1
   16    15    17    1
   17    15    18    1
   18    18    19    1
   19    18    20    1
   20     1    21    1
   21    18    21    1
   22    21    22    1
   23    21    23    1
   24    13    24    1
   25    24    25    1
@<TRIPOS>SUBSTRUCTURE
       1 MOL1            1 RESIDUE      1      MOL     
@<SCITEGIC>MOL_PROPERTY
VM2 Rank
SciTegic.value.IntegerValue
74

@<SCITEGIC>MOL_PROPERTY
Conf_Id
SciTegic.value.IntegerValue
1200

@<SCITEGIC>MOL_PROPERTY
Probability
SciTegic.value.DoubleValue
0.13

@<SCITEGIC>MOL_PROPERTY
Sum Probability
SciTegic.value.DoubleValue
99.14

@<SCITEGIC>MOL_PROPERTY
Delta G
SciTegic.value.DoubleValue
2.160

@<SCITEGIC>MOL_PROPERTY
G
SciTegic.value.DoubleValue
64.235

@<SCITEGIC>MOL_PROPERTY
E
SciTegic.value.DoubleValue
31.971

@<SCITEGIC>MOL_PROPERTY
-TS
SciTegic.value.DoubleValue
32.264

@<SCITEGIC>MOL_PROPERTY
U+W
SciTegic.value.DoubleValue
11.404

@<SCITEGIC>MOL_PROPERTY
U
SciTegic.value.DoubleValue
13.643

@<SCITEGIC>MOL_PROPERTY
W
SciTegic.value.DoubleValue
-2.239

@<SCITEGIC>MOL_PROPERTY
W(PB)
SciTegic.value.DoubleValue
-4.379

@<SCITEGIC>MOL_PROPERTY
W(SA)
SciTegic.value.DoubleValue
2.140

@<SCITEGIC>MOL_PROPERTY
Valence
SciTegic.value.DoubleValue
18.609

@<SCITEGIC>MOL_PROPERTY
Coulomb
SciTegic.value.DoubleValue
-7.808

@<SCITEGIC>MOL_PROPERTY
VdW
SciTegic.value.DoubleValue
2.842

@<SCITEGIC>MOL_PROPERTY
VdW6
SciTegic.value.DoubleValue
-12.553

@<SCITEGIC>MOL_PROPERTY
VdW12
SciTegic.value.DoubleValue
15.394

@<SCITEGIC>MOL_PROPERTY
Bond
SciTegic.value.DoubleValue
0.434

@<SCITEGIC>MOL_PROPERTY
Angle
SciTegic.value.DoubleValue
4.744

@<SCITEGIC>MOL_PROPERTY
Pdih
SciTegic.value.DoubleValue
13.432

@<SCITEGIC>MOL_PROPERTY
Idih
SciTegic.value.DoubleValue
0.000

@<SCITEGIC>MOL_PROPERTY
Tether
SciTegic.value.DoubleValue
0.000

@<TRIPOS>MOLECULE
guest-s17_vm2.mol2 : vm2 ligand conformer 75
          25          25           1
SMALL
USER_CHARGES
 
@<TRIPOS>ATOM
       1    C1      20.924806   19.541273   20.780623 C.3        1 MOL1        -0.1684
       2    H1      21.037079   19.593341   19.688998 H          1 MOL1         0.0833
       3    H2      21.894304   19.868031   21.177463 H          1 MOL1         0.0833
       4    C2      20.666929   18.063164   21.164736 C.3        1 MOL1        -0.1684
       5    H3      19.596230   17.825851   21.105297 H          1 MOL1         0.0833
       6    H4      21.145013   17.445065   20.392377 H          1 MOL1         0.0833
       7    C3      21.265206   17.621346   22.529038 C.3        1 MOL1        -0.1684
       8    H5      22.240170   18.094955   22.706262 H          1 MOL1         0.0833
       9    H6      21.475137   16.545785   22.449637 H          1 MOL1         0.0833
      10    C4      20.331210   17.807516   23.752687 C.3        1 MOL1        -0.1760
      11    H7      19.287747   17.649314   23.453159 H          1 MOL1         0.0833
      12    H8      20.549763   16.998078   24.461382 H          1 MOL1         0.0833
      13    C5      20.481312   19.138445   24.532758 C.3        1 MOL1         0.1219
      14    H9      21.451615   19.119469   25.049709 H          1 MOL1         0.0790
      15    C6      20.437190   20.437263   23.692927 C.3        1 MOL1        -0.1760
      16    H10     20.315098   21.283457   24.381870 H          1 MOL1         0.0833
      17    H11     21.416420   20.598329   23.229689 H          1 MOL1         0.0833
      18    C7      19.305469   20.493101   22.632714 C.3        1 MOL1        -0.1684
      19    H12     18.694266   21.386671   22.817844 H          1 MOL1         0.0833
      20    H13     18.612739   19.652338   22.754904 H          1 MOL1         0.0833
      21    C8      19.808078   20.545623   21.169680 C.3        1 MOL1        -0.1684
      22    H14     20.173509   21.560059   20.959648 H          1 MOL1         0.0833
      23    H15     18.946910   20.394821   20.504594 H          1 MOL1         0.0833
      24    O1      19.443801   19.195270   25.504836 O.3        1 MOL1        -0.5508
      25    H16     19.526516   18.388405   26.054057 H          1 MOL1         0.3780
@<TRIPOS>BOND
    1     1     2    1
    2     1     3    1
    3     1     4    1
    4     4     5    1
    5     4     6    1
    6     4     7    1
    7     7     8    1
    8     7     9    1
    9     7    10    1
   10    10    11    1
   11    10    12    1
   12    10    13    1
   13    13    14    1
   14    13    15    1
   15    15    16    1
   16    15    17    1
   17    15    18    1
   18    18    19    1
   19    18    20    1
   20     1    21    1
   21    18    21    1
   22    21    22    1
   23    21    23    1
   24    13    24    1
   25    24    25    1
@<TRIPOS>SUBSTRUCTURE
       1 MOL1            1 RESIDUE      1      MOL     
@<SCITEGIC>MOL_PROPERTY
VM2 Rank
SciTegic.value.IntegerValue
75

@<SCITEGIC>MOL_PROPERTY
Conf_Id
SciTegic.value.IntegerValue
1160

@<SCITEGIC>MOL_PROPERTY
Probability
SciTegic.value.DoubleValue
0.13

@<SCITEGIC>MOL_PROPERTY
Sum Probability
SciTegic.value.DoubleValue
99.27

@<SCITEGIC>MOL_PROPERTY
Delta G
SciTegic.value.DoubleValue
2.169

@<SCITEGIC>MOL_PROPERTY
G
SciTegic.value.DoubleValue
64.244

@<SCITEGIC>MOL_PROPERTY
E
SciTegic.value.DoubleValue
31.946

@<SCITEGIC>MOL_PROPERTY
-TS
SciTegic.value.DoubleValue
32.299

@<SCITEGIC>MOL_PROPERTY
U+W
SciTegic.value.DoubleValue
11.378

@<SCITEGIC>MOL_PROPERTY
U
SciTegic.value.DoubleValue
13.665

@<SCITEGIC>MOL_PROPERTY
W
SciTegic.value.DoubleValue
-2.287

@<SCITEGIC>MOL_PROPERTY
W(PB)
SciTegic.value.DoubleValue
-4.435

@<SCITEGIC>MOL_PROPERTY
W(SA)
SciTegic.value.DoubleValue
2.148

@<SCITEGIC>MOL_PROPERTY
Valence
SciTegic.value.DoubleValue
18.607

@<SCITEGIC>MOL_PROPERTY
Coulomb
SciTegic.value.DoubleValue
-7.778

@<SCITEGIC>MOL_PROPERTY
VdW
SciTegic.value.DoubleValue
2.836

@<SCITEGIC>MOL_PROPERTY
VdW6
SciTegic.value.DoubleValue
-12.472

@<SCITEGIC>MOL_PROPERTY
VdW12
SciTegic.value.DoubleValue
15.307

@<SCITEGIC>MOL_PROPERTY
Bond
SciTegic.value.DoubleValue
0.426

@<SCITEGIC>MOL_PROPERTY
Angle
SciTegic.value.DoubleValue
4.743

@<SCITEGIC>MOL_PROPERTY
Pdih
SciTegic.value.DoubleValue
13.438

@<SCITEGIC>MOL_PROPERTY
Idih
SciTegic.value.DoubleValue
0.000

@<SCITEGIC>MOL_PROPERTY
Tether
SciTegic.value.DoubleValue
0.000

@<TRIPOS>MOLECULE
guest-s17_vm2.mol2 : vm2 ligand conformer 76
          25          25           1
SMALL
USER_CHARGES
 
@<TRIPOS>ATOM
       1    C1      19.896136   19.004847   20.786646 C.3        1 MOL1        -0.1684
       2    H1      18.941193   18.619873   21.166471 H          1 MOL1         0.0833
       3    H2      19.772901   19.032964   19.695344 H          1 MOL1         0.0833
       4    C2      21.045555   18.007230   21.088063 C.3        1 MOL1        -0.1684
       5    H3      20.705497   17.000636   20.808933 H          1 MOL1         0.0833
       6    H4      21.892638   18.230692   20.425294 H          1 MOL1         0.0833
       7    C3      21.566876   17.968589   22.544813 C.3        1 MOL1        -0.1684
       8    H5      22.233617   18.821535   22.717106 H          1 MOL1         0.0833
       9    H6      22.209172   17.084133   22.654187 H          1 MOL1         0.0833
      10    C4      20.448499   17.908967   23.618154 C.3        1 MOL1        -0.1760
      11    H7      19.466953   17.760426   23.153928 H          1 MOL1         0.0833
      12    H8      20.609751   17.015822   24.235498 H          1 MOL1         0.0833
      13    C5      20.399741   19.134867   24.559070 C.3        1 MOL1         0.1219
      14    H9      21.258168   19.065253   25.242727 H          1 MOL1         0.0790
      15    C6      20.474765   20.527305   23.879467 C.3        1 MOL1        -0.1760
      16    H10     20.244831   21.272096   24.652938 H          1 MOL1         0.0833
      17    H11     21.507011   20.747256   23.582395 H          1 MOL1         0.0833
      18    C7      19.518843   20.772065   22.682040 C.3        1 MOL1        -0.1684
      19    H12     19.268687   21.841675   22.688612 H          1 MOL1         0.0833
      20    H13     18.564407   20.250396   22.835083 H          1 MOL1         0.0833
      21    C8      20.113843   20.456412   21.281428 C.3        1 MOL1        -0.1684
      22    H14     21.175709   20.731714   21.229414 H          1 MOL1         0.0833
      23    H15     19.606822   21.116727   20.564505 H          1 MOL1         0.0833
      24    O1      19.199743   19.062718   25.320318 O.3        1 MOL1        -0.5508
      25    H16     19.202977   18.192561   25.770069 H          1 MOL1         0.3780
@<TRIPOS>BOND
    1     1     2    1
    2     1     3    1
    3     1     4    1
    4     4     5    1
    5     4     6    1
    6     4     7    1
    7     7     8    1
    8     7     9    1
    9     7    10    1
   10    10    11    1
   11    10    12    1
   12    10    13    1
   13    13    14    1
   14    13    15    1
   15    15    16    1
   16    15    17    1
   17    15    18    1
   18    18    19    1
   19    18    20    1
   20     1    21    1
   21    18    21    1
   22    21    22    1
   23    21    23    1
   24    13    24    1
   25    24    25    1
@<TRIPOS>SUBSTRUCTURE
       1 MOL1            1 RESIDUE      1      MOL     
@<SCITEGIC>MOL_PROPERTY
VM2 Rank
SciTegic.value.IntegerValue
76

@<SCITEGIC>MOL_PROPERTY
Conf_Id
SciTegic.value.IntegerValue
1447

@<SCITEGIC>MOL_PROPERTY
Probability
SciTegic.value.DoubleValue
0.11

@<SCITEGIC>MOL_PROPERTY
Sum Probability
SciTegic.value.DoubleValue
99.38

@<SCITEGIC>MOL_PROPERTY
Delta G
SciTegic.value.DoubleValue
2.275

@<SCITEGIC>MOL_PROPERTY
G
SciTegic.value.DoubleValue
64.350

@<SCITEGIC>MOL_PROPERTY
E
SciTegic.value.DoubleValue
32.027

@<SCITEGIC>MOL_PROPERTY
-TS
SciTegic.value.DoubleValue
32.323

@<SCITEGIC>MOL_PROPERTY
U+W
SciTegic.value.DoubleValue
11.459

@<SCITEGIC>MOL_PROPERTY
U
SciTegic.value.DoubleValue
13.691

@<SCITEGIC>MOL_PROPERTY
W
SciTegic.value.DoubleValue
-2.232

@<SCITEGIC>MOL_PROPERTY
W(PB)
SciTegic.value.DoubleValue
-4.350

@<SCITEGIC>MOL_PROPERTY
W(SA)
SciTegic.value.DoubleValue
2.119

@<SCITEGIC>MOL_PROPERTY
Valence
SciTegic.value.DoubleValue
18.570

@<SCITEGIC>MOL_PROPERTY
Coulomb
SciTegic.value.DoubleValue
-7.751

@<SCITEGIC>MOL_PROPERTY
VdW
SciTegic.value.DoubleValue
2.872

@<SCITEGIC>MOL_PROPERTY
VdW6
SciTegic.value.DoubleValue
-12.549

@<SCITEGIC>MOL_PROPERTY
VdW12
SciTegic.value.DoubleValue
15.421

@<SCITEGIC>MOL_PROPERTY
Bond
SciTegic.value.DoubleValue
0.436

@<SCITEGIC>MOL_PROPERTY
Angle
SciTegic.value.DoubleValue
4.707

@<SCITEGIC>MOL_PROPERTY
Pdih
SciTegic.value.DoubleValue
13.427

@<SCITEGIC>MOL_PROPERTY
Idih
SciTegic.value.DoubleValue
0.000

@<SCITEGIC>MOL_PROPERTY
Tether
SciTegic.value.DoubleValue
0.000

@<TRIPOS>MOLECULE
guest-s17_vm2.mol2 : vm2 ligand conformer 77
          25          25           1
SMALL
USER_CHARGES
 
@<TRIPOS>ATOM
       1    C1      19.855956   19.055248   20.790484 C.3        1 MOL1        -0.1684
       2    H1      18.910764   18.655288   21.179111 H          1 MOL1         0.0833
       3    H2      19.780344   18.943725   19.700181 H          1 MOL1         0.0833
       4    C2      21.038673   18.183053   21.280086 C.3        1 MOL1        -0.1684
       5    H3      21.140397   17.354412   20.565893 H          1 MOL1         0.0833
       6    H4      21.984623   18.737536   21.218573 H          1 MOL1         0.0833
       7    C3      20.850733   17.545390   22.684880 C.3        1 MOL1        -0.1684
       8    H5      21.428724   16.611273   22.691035 H          1 MOL1         0.0833
       9    H6      19.807674   17.241722   22.847116 H          1 MOL1         0.0833
      10    C4      21.364006   18.398654   23.874847 C.3        1 MOL1        -0.1760
      11    H7      21.732819   17.712115   24.648464 H          1 MOL1         0.0833
      12    H8      22.248077   18.970336   23.568641 H          1 MOL1         0.0833
      13    C5      20.333007   19.334758   24.558310 C.3        1 MOL1         0.1219
      14    H9      20.896987   19.993032   25.234868 H          1 MOL1         0.0790
      15    C6      19.494891   20.233321   23.619869 C.3        1 MOL1        -0.1760
      16    H10     18.691440   19.643529   23.164222 H          1 MOL1         0.0833
      17    H11     18.983157   20.982309   24.237905 H          1 MOL1         0.0833
      18    C7      20.320839   20.976102   22.537063 C.3        1 MOL1        -0.1684
      19    H12     21.396492   20.843441   22.701731 H          1 MOL1         0.0833
      20    H13     20.152138   22.056404   22.643162 H          1 MOL1         0.0833
      21    C8      19.967831   20.574529   21.084649 C.3        1 MOL1        -0.1684
      22    H14     19.014198   21.046097   20.810800 H          1 MOL1         0.0833
      23    H15     20.720390   21.011556   20.414268 H          1 MOL1         0.0833
      24    O1      19.438063   18.541944   25.329813 O.3        1 MOL1        -0.5508
      25    H16     18.829539   19.162420   25.781664 H          1 MOL1         0.3780
@<TRIPOS>BOND
    1     1     2    1
    2     1     3    1
    3     1     4    1
    4     4     5    1
    5     4     6    1
    6     4     7    1
    7     7     8    1
    8     7     9    1
    9     7    10    1
   10    10    11    1
   11    10    12    1
   12    10    13    1
   13    13    14    1
   14    13    15    1
   15    15    16    1
   16    15    17    1
   17    15    18    1
   18    18    19    1
   19    18    20    1
   20     1    21    1
   21    18    21    1
   22    21    22    1
   23    21    23    1
   24    13    24    1
   25    24    25    1
@<TRIPOS>SUBSTRUCTURE
       1 MOL1            1 RESIDUE      1      MOL     
@<SCITEGIC>MOL_PROPERTY
VM2 Rank
SciTegic.value.IntegerValue
77

@<SCITEGIC>MOL_PROPERTY
Conf_Id
SciTegic.value.IntegerValue
576

@<SCITEGIC>MOL_PROPERTY
Probability
SciTegic.value.DoubleValue
0.10

@<SCITEGIC>MOL_PROPERTY
Sum Probability
SciTegic.value.DoubleValue
99.48

@<SCITEGIC>MOL_PROPERTY
Delta G
SciTegic.value.DoubleValue
2.299

@<SCITEGIC>MOL_PROPERTY
G
SciTegic.value.DoubleValue
64.375

@<SCITEGIC>MOL_PROPERTY
E
SciTegic.value.DoubleValue
32.051

@<SCITEGIC>MOL_PROPERTY
-TS
SciTegic.value.DoubleValue
32.324

@<SCITEGIC>MOL_PROPERTY
U+W
SciTegic.value.DoubleValue
11.483

@<SCITEGIC>MOL_PROPERTY
U
SciTegic.value.DoubleValue
13.691

@<SCITEGIC>MOL_PROPERTY
W
SciTegic.value.DoubleValue
-2.207

@<SCITEGIC>MOL_PROPERTY
W(PB)
SciTegic.value.DoubleValue
-4.339

@<SCITEGIC>MOL_PROPERTY
W(SA)
SciTegic.value.DoubleValue
2.132

@<SCITEGIC>MOL_PROPERTY
Valence
SciTegic.value.DoubleValue
18.570

@<SCITEGIC>MOL_PROPERTY
Coulomb
SciTegic.value.DoubleValue
-7.751

@<SCITEGIC>MOL_PROPERTY
VdW
SciTegic.value.DoubleValue
2.872

@<SCITEGIC>MOL_PROPERTY
VdW6
SciTegic.value.DoubleValue
-12.549

@<SCITEGIC>MOL_PROPERTY
VdW12
SciTegic.value.DoubleValue
15.421

@<SCITEGIC>MOL_PROPERTY
Bond
SciTegic.value.DoubleValue
0.436

@<SCITEGIC>MOL_PROPERTY
Angle
SciTegic.value.DoubleValue
4.707

@<SCITEGIC>MOL_PROPERTY
Pdih
SciTegic.value.DoubleValue
13.427

@<SCITEGIC>MOL_PROPERTY
Idih
SciTegic.value.DoubleValue
0.000

@<SCITEGIC>MOL_PROPERTY
Tether
SciTegic.value.DoubleValue
0.000

@<TRIPOS>MOLECULE
guest-s17_vm2.mol2 : vm2 ligand conformer 78
          25          25           1
SMALL
USER_CHARGES
 
@<TRIPOS>ATOM
       1    C1      20.230342   19.145795   20.610634 C.3        1 MOL1        -0.1684
       2    H1      19.191343   18.802080   20.516100 H          1 MOL1         0.0833
       3    H2      20.579423   19.319902   19.583665 H          1 MOL1         0.0833
       4    C2      21.106185   18.023939   21.215553 C.3        1 MOL1        -0.1684
       5    H3      21.023331   17.150623   20.554253 H          1 MOL1         0.0833
       6    H4      22.164868   18.314989   21.188210 H          1 MOL1         0.0833
       7    C3      20.708134   17.580278   22.643128 C.3        1 MOL1        -0.1684
       8    H5      21.046740   16.543113   22.769989 H          1 MOL1         0.0833
       9    H6      19.615413   17.537709   22.735494 H          1 MOL1         0.0833
      10    C4      21.356093   18.419765   23.782874 C.3        1 MOL1        -0.1760
      11    H7      21.820333   17.716907   24.486718 H          1 MOL1         0.0833
      12    H8      22.185505   19.024207   23.395088 H          1 MOL1         0.0833
      13    C5      20.411427   19.322337   24.615257 C.3        1 MOL1         0.1219
      14    H9      20.959941   19.584191   25.531667 H          1 MOL1         0.0790
      15    C6      20.026367   20.665614   23.951770 C.3        1 MOL1        -0.1760
      16    H10     19.365528   21.199820   24.646783 H          1 MOL1         0.0833
      17    H11     20.920579   21.296168   23.865353 H          1 MOL1         0.0833
      18    C7      19.312848   20.578247   22.579383 C.3        1 MOL1        -0.1684
      19    H12     18.714123   21.491650   22.461137 H          1 MOL1         0.0833
      20    H13     18.587324   19.754020   22.575015 H          1 MOL1         0.0833
      21    C8      20.277193   20.493375   21.366849 C.3        1 MOL1        -0.1684
      22    H14     21.309771   20.729090   21.656475 H          1 MOL1         0.0833
      23    H15     19.986543   21.279903   20.656961 H          1 MOL1         0.0833
      24    O1      19.235412   18.613649   24.994554 O.3        1 MOL1        -0.5508
      25    H16     18.677781   19.242471   25.496089 H          1 MOL1         0.3780
@<TRIPOS>BOND
    1     1     2    1
    2     1     3    1
    3     1     4    1
    4     4     5    1
    5     4     6    1
    6     4     7    1
    7     7     8    1
    8     7     9    1
    9     7    10    1
   10    10    11    1
   11    10    12    1
   12    10    13    1
   13    13    14    1
   14    13    15    1
   15    15    16    1
   16    15    17    1
   17    15    18    1
   18    18    19    1
   19    18    20    1
   20     1    21    1
   21    18    21    1
   22    21    22    1
   23    21    23    1
   24    13    24    1
   25    24    25    1
@<TRIPOS>SUBSTRUCTURE
       1 MOL1            1 RESIDUE      1      MOL     
@<SCITEGIC>MOL_PROPERTY
VM2 Rank
SciTegic.value.IntegerValue
78

@<SCITEGIC>MOL_PROPERTY
Conf_Id
SciTegic.value.IntegerValue
523

@<SCITEGIC>MOL_PROPERTY
Probability
SciTegic.value.DoubleValue
0.10

@<SCITEGIC>MOL_PROPERTY
Sum Probability
SciTegic.value.DoubleValue
99.58

@<SCITEGIC>MOL_PROPERTY
Delta G
SciTegic.value.DoubleValue
2.304

@<SCITEGIC>MOL_PROPERTY
G
SciTegic.value.DoubleValue
64.379

@<SCITEGIC>MOL_PROPERTY
E
SciTegic.value.DoubleValue
32.415

@<SCITEGIC>MOL_PROPERTY
-TS
SciTegic.value.DoubleValue
31.965

@<SCITEGIC>MOL_PROPERTY
U+W
SciTegic.value.DoubleValue
11.847

@<SCITEGIC>MOL_PROPERTY
U
SciTegic.value.DoubleValue
14.106

@<SCITEGIC>MOL_PROPERTY
W
SciTegic.value.DoubleValue
-2.258

@<SCITEGIC>MOL_PROPERTY
W(PB)
SciTegic.value.DoubleValue
-4.387

@<SCITEGIC>MOL_PROPERTY
W(SA)
SciTegic.value.DoubleValue
2.129

@<SCITEGIC>MOL_PROPERTY
Valence
SciTegic.value.DoubleValue
19.024

@<SCITEGIC>MOL_PROPERTY
Coulomb
SciTegic.value.DoubleValue
-7.308

@<SCITEGIC>MOL_PROPERTY
VdW
SciTegic.value.DoubleValue
2.390

@<SCITEGIC>MOL_PROPERTY
VdW6
SciTegic.value.DoubleValue
-12.496

@<SCITEGIC>MOL_PROPERTY
VdW12
SciTegic.value.DoubleValue
14.886

@<SCITEGIC>MOL_PROPERTY
Bond
SciTegic.value.DoubleValue
0.376

@<SCITEGIC>MOL_PROPERTY
Angle
SciTegic.value.DoubleValue
4.356

@<SCITEGIC>MOL_PROPERTY
Pdih
SciTegic.value.DoubleValue
14.291

@<SCITEGIC>MOL_PROPERTY
Idih
SciTegic.value.DoubleValue
0.000

@<SCITEGIC>MOL_PROPERTY
Tether
SciTegic.value.DoubleValue
0.000

@<TRIPOS>MOLECULE
guest-s17_vm2.mol2 : vm2 ligand conformer 79
          25          25           1
SMALL
USER_CHARGES
 
@<TRIPOS>ATOM
       1    C1      20.236268   19.185809   20.609721 C.3        1 MOL1        -0.1684
       2    H1      20.613270   19.321051   19.586776 H          1 MOL1         0.0833
       3    H2      19.282463   18.651001   20.505649 H          1 MOL1         0.0833
       4    C2      21.252331   18.314018   21.382785 C.3        1 MOL1        -0.1684
       5    H3      21.645169   17.565332   20.681221 H          1 MOL1         0.0833
       6    H4      22.119680   18.917909   21.680582 H          1 MOL1         0.0833
       7    C3      20.648584   17.550935   22.591338 C.3        1 MOL1        -0.1684
       8    H5      20.919356   16.492009   22.481264 H          1 MOL1         0.0833
       9    H6      19.550876   17.572387   22.573171 H          1 MOL1         0.0833
      10    C4      21.177684   18.024435   23.968305 C.3        1 MOL1        -0.1760
      11    H7      21.116615   17.179483   24.666485 H          1 MOL1         0.0833
      12    H8      22.247632   18.257672   23.894206 H          1 MOL1         0.0833
      13    C5      20.438882   19.218628   24.617127 C.3        1 MOL1         0.1219
      14    H9      20.991065   19.450664   25.539349 H          1 MOL1         0.0790
      15    C6      20.421408   20.520964   23.778366 C.3        1 MOL1        -0.1760
      16    H10     20.207795   21.341263   24.475793 H          1 MOL1         0.0833
      17    H11     21.432031   20.722791   23.402124 H          1 MOL1         0.0833
      18    C7      19.378868   20.604554   22.625223 C.3        1 MOL1        -0.1684
      19    H12     18.840923   21.555160   22.741071 H          1 MOL1         0.0833
      20    H13     18.608571   19.827663   22.711619 H          1 MOL1         0.0833
      21    C8      19.992532   20.592086   21.205182 C.3        1 MOL1        -0.1684
      22    H14     20.922273   21.176471   21.186673 H          1 MOL1         0.0833
      23    H15     19.300620   21.117492   20.532822 H          1 MOL1         0.0833
      24    O1      19.117444   18.831570   24.981953 O.3        1 MOL1        -0.5508
      25    H16     19.198462   17.998098   25.488578 H          1 MOL1         0.3780
@<TRIPOS>BOND
    1     1     2    1
    2     1     3    1
    3     1     4    1
    4     4     5    1
    5     4     6    1
    6     4     7    1
    7     7     8    1
    8     7     9    1
    9     7    10    1
   10    10    11    1
   11    10    12    1
   12    10    13    1
   13    13    14    1
   14    13    15    1
   15    15    16    1
   16    15    17    1
   17    15    18    1
   18    18    19    1
   19    18    20    1
   20     1    21    1
   21    18    21    1
   22    21    22    1
   23    21    23    1
   24    13    24    1
   25    24    25    1
@<TRIPOS>SUBSTRUCTURE
       1 MOL1            1 RESIDUE      1      MOL     
@<SCITEGIC>MOL_PROPERTY
VM2 Rank
SciTegic.value.IntegerValue
79

@<SCITEGIC>MOL_PROPERTY
Conf_Id
SciTegic.value.IntegerValue
1688

@<SCITEGIC>MOL_PROPERTY
Probability
SciTegic.value.DoubleValue
0.10

@<SCITEGIC>MOL_PROPERTY
Sum Probability
SciTegic.value.DoubleValue
99.68

@<SCITEGIC>MOL_PROPERTY
Delta G
SciTegic.value.DoubleValue
2.306

@<SCITEGIC>MOL_PROPERTY
G
SciTegic.value.DoubleValue
64.382

@<SCITEGIC>MOL_PROPERTY
E
SciTegic.value.DoubleValue
32.417

@<SCITEGIC>MOL_PROPERTY
-TS
SciTegic.value.DoubleValue
31.965

@<SCITEGIC>MOL_PROPERTY
U+W
SciTegic.value.DoubleValue
11.849

@<SCITEGIC>MOL_PROPERTY
U
SciTegic.value.DoubleValue
14.106

@<SCITEGIC>MOL_PROPERTY
W
SciTegic.value.DoubleValue
-2.257

@<SCITEGIC>MOL_PROPERTY
W(PB)
SciTegic.value.DoubleValue
-4.382

@<SCITEGIC>MOL_PROPERTY
W(SA)
SciTegic.value.DoubleValue
2.126

@<SCITEGIC>MOL_PROPERTY
Valence
SciTegic.value.DoubleValue
19.023

@<SCITEGIC>MOL_PROPERTY
Coulomb
SciTegic.value.DoubleValue
-7.308

@<SCITEGIC>MOL_PROPERTY
VdW
SciTegic.value.DoubleValue
2.391

@<SCITEGIC>MOL_PROPERTY
VdW6
SciTegic.value.DoubleValue
-12.497

@<SCITEGIC>MOL_PROPERTY
VdW12
SciTegic.value.DoubleValue
14.887

@<SCITEGIC>MOL_PROPERTY
Bond
SciTegic.value.DoubleValue
0.377

@<SCITEGIC>MOL_PROPERTY
Angle
SciTegic.value.DoubleValue
4.356

@<SCITEGIC>MOL_PROPERTY
Pdih
SciTegic.value.DoubleValue
14.291

@<SCITEGIC>MOL_PROPERTY
Idih
SciTegic.value.DoubleValue
0.000

@<SCITEGIC>MOL_PROPERTY
Tether
SciTegic.value.DoubleValue
0.000

@<TRIPOS>MOLECULE
guest-s17_vm2.mol2 : vm2 ligand conformer 80
          25          25           1
SMALL
USER_CHARGES
 
@<TRIPOS>ATOM
       1    C1      20.482066   19.149629   20.723498 C.3        1 MOL1        -0.1684
       2    H1      19.715721   19.147132   19.936447 H          1 MOL1         0.0833
       3    H2      21.442909   19.042620   20.202318 H          1 MOL1         0.0833
       4    C2      20.235547   17.902179   21.608269 C.3        1 MOL1        -0.1684
       5    H3      19.238898   17.947590   22.060042 H          1 MOL1         0.0833
       6    H4      20.193429   17.031110   20.940564 H          1 MOL1         0.0833
       7    C3      21.303952   17.600185   22.688465 C.3        1 MOL1        -0.1684
       8    H5      22.262176   17.401191   22.189937 H          1 MOL1         0.0833
       9    H6      21.026550   16.655991   23.175955 H          1 MOL1         0.0833
      10    C4      21.539066   18.668025   23.794232 C.3        1 MOL1        -0.1760
      11    H7      22.162211   18.197524   24.565808 H          1 MOL1         0.0833
      12    H8      22.167630   19.474729   23.403280 H          1 MOL1         0.0833
      13    C5      20.301138   19.275861   24.509216 C.3        1 MOL1         0.1219
      14    H9      20.622821   19.478302   25.541075 H          1 MOL1         0.0790
      15    C6      19.824795   20.644460   23.956466 C.3        1 MOL1        -0.1760
      16    H10     19.010162   20.991927   24.605139 H          1 MOL1         0.0833
      17    H11     20.632869   21.375304   24.089003 H          1 MOL1         0.0833
      18    C7      19.324563   20.710536   22.487302 C.3        1 MOL1        -0.1684
      19    H12     18.886078   21.707334   22.343888 H          1 MOL1         0.0833
      20    H13     18.494741   20.011271   22.326387 H          1 MOL1         0.0833
      21    C8      20.436409   20.534449   21.419684 C.3        1 MOL1        -0.1684
      22    H14     21.416212   20.782885   21.842816 H          1 MOL1         0.0833
      23    H15     20.280246   21.286772   20.634502 H          1 MOL1         0.0833
      24    O1      19.216463   18.357677   24.572868 O.3        1 MOL1        -0.5508
      25    H16     19.617073   17.474726   24.699981 H          1 MOL1         0.3780
@<TRIPOS>BOND
    1     1     2    1
    2     1     3    1
    3     1     4    1
    4     4     5    1
    5     4     6    1
    6     4     7    1
    7     7     8    1
    8     7     9    1
    9     7    10    1
   10    10    11    1
   11    10    12    1
   12    10    13    1
   13    13    14    1
   14    13    15    1
   15    15    16    1
   16    15    17    1
   17    15    18    1
   18    18    19    1
   19    18    20    1
   20     1    21    1
   21    18    21    1
   22    21    22    1
   23    21    23    1
   24    13    24    1
   25    24    25    1
@<TRIPOS>SUBSTRUCTURE
       1 MOL1            1 RESIDUE      1      MOL     
@<SCITEGIC>MOL_PROPERTY
VM2 Rank
SciTegic.value.IntegerValue
80

@<SCITEGIC>MOL_PROPERTY
Conf_Id
SciTegic.value.IntegerValue
1042

@<SCITEGIC>MOL_PROPERTY
Probability
SciTegic.value.DoubleValue
0.08

@<SCITEGIC>MOL_PROPERTY
Sum Probability
SciTegic.value.DoubleValue
99.76

@<SCITEGIC>MOL_PROPERTY
Delta G
SciTegic.value.DoubleValue
2.448

@<SCITEGIC>MOL_PROPERTY
G
SciTegic.value.DoubleValue
64.523

@<SCITEGIC>MOL_PROPERTY
E
SciTegic.value.DoubleValue
31.846

@<SCITEGIC>MOL_PROPERTY
-TS
SciTegic.value.DoubleValue
32.678

@<SCITEGIC>MOL_PROPERTY
U+W
SciTegic.value.DoubleValue
11.278

@<SCITEGIC>MOL_PROPERTY
U
SciTegic.value.DoubleValue
13.108

@<SCITEGIC>MOL_PROPERTY
W
SciTegic.value.DoubleValue
-1.830

@<SCITEGIC>MOL_PROPERTY
W(PB)
SciTegic.value.DoubleValue
-3.942

@<SCITEGIC>MOL_PROPERTY
W(SA)
SciTegic.value.DoubleValue
2.112

@<SCITEGIC>MOL_PROPERTY
Valence
SciTegic.value.DoubleValue
17.759

@<SCITEGIC>MOL_PROPERTY
Coulomb
SciTegic.value.DoubleValue
-7.344

@<SCITEGIC>MOL_PROPERTY
VdW
SciTegic.value.DoubleValue
2.694

@<SCITEGIC>MOL_PROPERTY
VdW6
SciTegic.value.DoubleValue
-13.719

@<SCITEGIC>MOL_PROPERTY
VdW12
SciTegic.value.DoubleValue
16.412

@<SCITEGIC>MOL_PROPERTY
Bond
SciTegic.value.DoubleValue
0.511

@<SCITEGIC>MOL_PROPERTY
Angle
SciTegic.value.DoubleValue
7.046

@<SCITEGIC>MOL_PROPERTY
Pdih
SciTegic.value.DoubleValue
10.202

@<SCITEGIC>MOL_PROPERTY
Idih
SciTegic.value.DoubleValue
0.000

@<SCITEGIC>MOL_PROPERTY
Tether
SciTegic.value.DoubleValue
0.000

@<TRIPOS>MOLECULE
guest-s17_vm2.mol2 : vm2 ligand conformer 81
          25          25           1
SMALL
USER_CHARGES
 
@<TRIPOS>ATOM
       1    C1      19.665871   18.985254   21.102311 C.3        1 MOL1        -0.1684
       2    H1      18.715629   18.812659   21.617043 H          1 MOL1         0.0833
       3    H2      19.404079   18.891332   20.039193 H          1 MOL1         0.0833
       4    C2      20.685309   17.855218   21.405858 C.3        1 MOL1        -0.1684
       5    H3      20.144144   16.912574   21.564754 H          1 MOL1         0.0833
       6    H4      21.276235   17.700303   20.492578 H          1 MOL1         0.0833
       7    C3      21.697813   18.072626   22.558452 C.3        1 MOL1        -0.1684
       8    H5      22.265727   18.998096   22.412724 H          1 MOL1         0.0833
       9    H6      22.450157   17.276795   22.472003 H          1 MOL1         0.0833
      10    C4      21.134014   17.994741   24.000239 C.3        1 MOL1        -0.1760
      11    H7      20.642067   17.024022   24.147548 H          1 MOL1         0.0833
      12    H8      21.995469   17.986485   24.680658 H          1 MOL1         0.0833
      13    C5      20.190562   19.123224   24.483813 C.3        1 MOL1         0.1219
      14    H9      20.303707   19.155312   25.577127 H          1 MOL1         0.0790
      15    C6      20.520462   20.548357   23.962531 C.3        1 MOL1        -0.1760
      16    H10     20.272183   21.240432   24.777679 H          1 MOL1         0.0833
      17    H11     21.602925   20.659349   23.824527 H          1 MOL1         0.0833
      18    C7      19.764992   21.057011   22.700078 C.3        1 MOL1        -0.1684
      19    H12     19.957246   22.136148   22.627132 H          1 MOL1         0.0833
      20    H13     18.679831   20.974530   22.848058 H          1 MOL1         0.0833
      21    C8      20.159096   20.435625   21.334958 C.3        1 MOL1        -0.1684
      22    H14     21.238409   20.524070   21.158163 H          1 MOL1         0.0833
      23    H15     19.695139   21.061460   20.560182 H          1 MOL1         0.0833
      24    O1      18.845881   18.770946   24.211761 O.3        1 MOL1        -0.5508
      25    H16     18.799724   18.759566   23.237473 H          1 MOL1         0.3780
@<TRIPOS>BOND
    1     1     2    1
    2     1     3    1
    3     1     4    1
    4     4     5    1
    5     4     6    1
    6     4     7    1
    7     7     8    1
    8     7     9    1
    9     7    10    1
   10    10    11    1
   11    10    12    1
   12    10    13    1
   13    13    14    1
   14    13    15    1
   15    15    16    1
   16    15    17    1
   17    15    18    1
   18    18    19    1
   19    18    20    1
   20     1    21    1
   21    18    21    1
   22    21    22    1
   23    21    23    1
   24    13    24    1
   25    24    25    1
@<TRIPOS>SUBSTRUCTURE
       1 MOL1            1 RESIDUE      1      MOL     
@<SCITEGIC>MOL_PROPERTY
VM2 Rank
SciTegic.value.IntegerValue
81

@<SCITEGIC>MOL_PROPERTY
Conf_Id
SciTegic.value.IntegerValue
506

@<SCITEGIC>MOL_PROPERTY
Probability
SciTegic.value.DoubleValue
0.07

@<SCITEGIC>MOL_PROPERTY
Sum Probability
SciTegic.value.DoubleValue
99.84

@<SCITEGIC>MOL_PROPERTY
Delta G
SciTegic.value.DoubleValue
2.492

@<SCITEGIC>MOL_PROPERTY
G
SciTegic.value.DoubleValue
64.567

@<SCITEGIC>MOL_PROPERTY
E
SciTegic.value.DoubleValue
31.741

@<SCITEGIC>MOL_PROPERTY
-TS
SciTegic.value.DoubleValue
32.826

@<SCITEGIC>MOL_PROPERTY
U+W
SciTegic.value.DoubleValue
11.174

@<SCITEGIC>MOL_PROPERTY
U
SciTegic.value.DoubleValue
12.093

@<SCITEGIC>MOL_PROPERTY
W
SciTegic.value.DoubleValue
-0.919

@<SCITEGIC>MOL_PROPERTY
W(PB)
SciTegic.value.DoubleValue
-3.032

@<SCITEGIC>MOL_PROPERTY
W(SA)
SciTegic.value.DoubleValue
2.112

@<SCITEGIC>MOL_PROPERTY
Valence
SciTegic.value.DoubleValue
19.645

@<SCITEGIC>MOL_PROPERTY
Coulomb
SciTegic.value.DoubleValue
-9.930

@<SCITEGIC>MOL_PROPERTY
VdW
SciTegic.value.DoubleValue
2.377

@<SCITEGIC>MOL_PROPERTY
VdW6
SciTegic.value.DoubleValue
-13.909

@<SCITEGIC>MOL_PROPERTY
VdW12
SciTegic.value.DoubleValue
16.286

@<SCITEGIC>MOL_PROPERTY
Bond
SciTegic.value.DoubleValue
0.498

@<SCITEGIC>MOL_PROPERTY
Angle
SciTegic.value.DoubleValue
8.148

@<SCITEGIC>MOL_PROPERTY
Pdih
SciTegic.value.DoubleValue
11.000

@<SCITEGIC>MOL_PROPERTY
Idih
SciTegic.value.DoubleValue
0.000

@<SCITEGIC>MOL_PROPERTY
Tether
SciTegic.value.DoubleValue
0.000

@<TRIPOS>MOLECULE
guest-s17_vm2.mol2 : vm2 ligand conformer 82
          25          25           1
SMALL
USER_CHARGES
 
@<TRIPOS>ATOM
       1    C1      20.482874   19.150961   20.721458 C.3        1 MOL1        -0.1684
       2    H1      19.717525   19.148231   19.933459 H          1 MOL1         0.0833
       3    H2      21.444552   19.044483   20.201741 H          1 MOL1         0.0833
       4    C2      20.235809   17.903629   21.605961 C.3        1 MOL1        -0.1684
       5    H3      19.240147   17.948644   22.059949 H          1 MOL1         0.0833
       6    H4      20.192752   17.032159   20.938982 H          1 MOL1         0.0833
       7    C3      21.301199   17.599778   22.688415 C.3        1 MOL1        -0.1684
       8    H5      22.258909   17.387357   22.194923 H          1 MOL1         0.0833
       9    H6      21.008669   16.663963   23.183901 H          1 MOL1         0.0833
      10    C4      21.540112   18.667010   23.793694 C.3        1 MOL1        -0.1760
      11    H7      22.157696   18.191138   24.566119 H          1 MOL1         0.0833
      12    H8      22.171983   19.471806   23.404459 H          1 MOL1         0.0833
      13    C5      20.302454   19.275073   24.509925 C.3        1 MOL1         0.1219
      14    H9      20.626741   19.482061   25.540063 H          1 MOL1         0.0790
      15    C6      19.828173   20.643749   23.954148 C.3        1 MOL1        -0.1760
      16    H10     19.021595   21.005595   24.604844 H          1 MOL1         0.0833
      17    H11     20.642566   21.369309   24.078297 H          1 MOL1         0.0833
      18    C7      19.323630   20.708508   22.486683 C.3        1 MOL1        -0.1684
      19    H12     18.884534   21.705182   22.343718 H          1 MOL1         0.0833
      20    H13     18.494321   20.008956   22.324960 H          1 MOL1         0.0833
      21    C8      20.435385   20.534974   21.418512 C.3        1 MOL1        -0.1684
      22    H14     21.415200   20.782989   21.842042 H          1 MOL1         0.0833
      23    H15     20.278771   21.288049   20.634133 H          1 MOL1         0.0833
      24    O1      19.214365   18.359318   24.581204 O.3        1 MOL1        -0.5508
      25    H16     18.474011   18.836364   25.006716 H          1 MOL1         0.3780
@<TRIPOS>BOND
    1     1     2    1
    2     1     3    1
    3     1     4    1
    4     4     5    1
    5     4     6    1
    6     4     7    1
    7     7     8    1
    8     7     9    1
    9     7    10    1
   10    10    11    1
   11    10    12    1
   12    10    13    1
   13    13    14    1
   14    13    15    1
   15    15    16    1
   16    15    17    1
   17    15    18    1
   18    18    19    1
   19    18    20    1
   20     1    21    1
   21    18    21    1
   22    21    22    1
   23    21    23    1
   24    13    24    1
   25    24    25    1
@<TRIPOS>SUBSTRUCTURE
       1 MOL1            1 RESIDUE      1      MOL     
@<SCITEGIC>MOL_PROPERTY
VM2 Rank
SciTegic.value.IntegerValue
82

@<SCITEGIC>MOL_PROPERTY
Conf_Id
SciTegic.value.IntegerValue
253

@<SCITEGIC>MOL_PROPERTY
Probability
SciTegic.value.DoubleValue
0.02

@<SCITEGIC>MOL_PROPERTY
Sum Probability
SciTegic.value.DoubleValue
99.86

@<SCITEGIC>MOL_PROPERTY
Delta G
SciTegic.value.DoubleValue
3.276

@<SCITEGIC>MOL_PROPERTY
G
SciTegic.value.DoubleValue
65.351

@<SCITEGIC>MOL_PROPERTY
E
SciTegic.value.DoubleValue
32.519

@<SCITEGIC>MOL_PROPERTY
-TS
SciTegic.value.DoubleValue
32.832

@<SCITEGIC>MOL_PROPERTY
U+W
SciTegic.value.DoubleValue
11.952

@<SCITEGIC>MOL_PROPERTY
U
SciTegic.value.DoubleValue
13.951

@<SCITEGIC>MOL_PROPERTY
W
SciTegic.value.DoubleValue
-2.000

@<SCITEGIC>MOL_PROPERTY
W(PB)
SciTegic.value.DoubleValue
-4.114

@<SCITEGIC>MOL_PROPERTY
W(SA)
SciTegic.value.DoubleValue
2.114

@<SCITEGIC>MOL_PROPERTY
Valence
SciTegic.value.DoubleValue
17.543

@<SCITEGIC>MOL_PROPERTY
Coulomb
SciTegic.value.DoubleValue
-6.274

@<SCITEGIC>MOL_PROPERTY
VdW
SciTegic.value.DoubleValue
2.682

@<SCITEGIC>MOL_PROPERTY
VdW6
SciTegic.value.DoubleValue
-13.612

@<SCITEGIC>MOL_PROPERTY
VdW12
SciTegic.value.DoubleValue
16.294

@<SCITEGIC>MOL_PROPERTY
Bond
SciTegic.value.DoubleValue
0.512

@<SCITEGIC>MOL_PROPERTY
Angle
SciTegic.value.DoubleValue
7.072

@<SCITEGIC>MOL_PROPERTY
Pdih
SciTegic.value.DoubleValue
9.959

@<SCITEGIC>MOL_PROPERTY
Idih
SciTegic.value.DoubleValue
0.000

@<SCITEGIC>MOL_PROPERTY
Tether
SciTegic.value.DoubleValue
0.000

@<TRIPOS>MOLECULE
guest-s17_vm2.mol2 : vm2 ligand conformer 83
          25          25           1
SMALL
USER_CHARGES
 
@<TRIPOS>ATOM
       1    C1      20.138858   19.137177   20.769364 C.3        1 MOL1        -0.1684
       2    H1      19.427053   18.863888   19.978374 H          1 MOL1         0.0833
       3    H2      21.040905   19.477720   20.242607 H          1 MOL1         0.0833
       4    C2      20.484439   17.847685   21.560439 C.3        1 MOL1        -0.1684
       5    H3      19.592461   17.391061   22.004246 H          1 MOL1         0.0833
       6    H4      20.822296   17.112097   20.817420 H          1 MOL1         0.0833
       7    C3      21.627424   18.001440   22.596807 C.3        1 MOL1        -0.1684
       8    H5      22.300180   18.816256   22.308200 H          1 MOL1         0.0833
       9    H6      22.255989   17.102726   22.531724 H          1 MOL1         0.0833
      10    C4      21.206552   18.138474   24.087133 C.3        1 MOL1        -0.1760
      11    H7      20.903066   17.145605   24.444818 H          1 MOL1         0.0833
      12    H8      22.102247   18.392091   24.668641 H          1 MOL1         0.0833
      13    C5      20.083084   19.130069   24.483393 C.3        1 MOL1         0.1219
      14    H9      20.056894   19.124289   25.582555 H          1 MOL1         0.0790
      15    C6      20.266353   20.614770   24.077745 C.3        1 MOL1        -0.1760
      16    H10     19.379553   21.158393   24.429725 H          1 MOL1         0.0833
      17    H11     21.103281   21.023336   24.658582 H          1 MOL1         0.0833
      18    C7      20.493815   20.986773   22.585472 C.3        1 MOL1        -0.1684
      19    H12     21.538554   20.822039   22.300510 H          1 MOL1         0.0833
      20    H13     20.367541   22.075719   22.512884 H          1 MOL1         0.0833
      21    C8      19.539451   20.336240   21.551010 C.3        1 MOL1        -0.1684
      22    H14     18.568096   20.088664   21.994032 H          1 MOL1         0.0833
      23    H15     19.305771   21.105729   20.802282 H          1 MOL1         0.0833
      24    O1      18.824025   18.650372   24.048637 O.3        1 MOL1        -0.5508
      25    H16     18.891097   18.672146   23.072131 H          1 MOL1         0.3780
@<TRIPOS>BOND
    1     1     2    1
    2     1     3    1
    3     1     4    1
    4     4     5    1
    5     4     6    1
    6     4     7    1
    7     7     8    1
    8     7     9    1
    9     7    10    1
   10    10    11    1
   11    10    12    1
   12    10    13    1
   13    13    14    1
   14    13    15    1
   15    15    16    1
   16    15    17    1
   17    15    18    1
   18    18    19    1
   19    18    20    1
   20     1    21    1
   21    18    21    1
   22    21    22    1
   23    21    23    1
   24    13    24    1
   25    24    25    1
@<TRIPOS>SUBSTRUCTURE
       1 MOL1            1 RESIDUE      1      MOL     
@<SCITEGIC>MOL_PROPERTY
VM2 Rank
SciTegic.value.IntegerValue
83

@<SCITEGIC>MOL_PROPERTY
Conf_Id
SciTegic.value.IntegerValue
688

@<SCITEGIC>MOL_PROPERTY
Probability
SciTegic.value.DoubleValue
0.02

@<SCITEGIC>MOL_PROPERTY
Sum Probability
SciTegic.value.DoubleValue
99.88

@<SCITEGIC>MOL_PROPERTY
Delta G
SciTegic.value.DoubleValue
3.344

@<SCITEGIC>MOL_PROPERTY
G
SciTegic.value.DoubleValue
65.419

@<SCITEGIC>MOL_PROPERTY
E
SciTegic.value.DoubleValue
32.133

@<SCITEGIC>MOL_PROPERTY
-TS
SciTegic.value.DoubleValue
33.286

@<SCITEGIC>MOL_PROPERTY
U+W
SciTegic.value.DoubleValue
11.566

@<SCITEGIC>MOL_PROPERTY
U
SciTegic.value.DoubleValue
12.383

@<SCITEGIC>MOL_PROPERTY
W
SciTegic.value.DoubleValue
-0.817

@<SCITEGIC>MOL_PROPERTY
W(PB)
SciTegic.value.DoubleValue
-2.935

@<SCITEGIC>MOL_PROPERTY
W(SA)
SciTegic.value.DoubleValue
2.118

@<SCITEGIC>MOL_PROPERTY
Valence
SciTegic.value.DoubleValue
20.110

@<SCITEGIC>MOL_PROPERTY
Coulomb
SciTegic.value.DoubleValue
-10.324

@<SCITEGIC>MOL_PROPERTY
VdW
SciTegic.value.DoubleValue
2.596

@<SCITEGIC>MOL_PROPERTY
VdW6
SciTegic.value.DoubleValue
-14.356

@<SCITEGIC>MOL_PROPERTY
VdW12
SciTegic.value.DoubleValue
16.952

@<SCITEGIC>MOL_PROPERTY
Bond
SciTegic.value.DoubleValue
0.540

@<SCITEGIC>MOL_PROPERTY
Angle
SciTegic.value.DoubleValue
9.254

@<SCITEGIC>MOL_PROPERTY
Pdih
SciTegic.value.DoubleValue
10.316

@<SCITEGIC>MOL_PROPERTY
Idih
SciTegic.value.DoubleValue
0.000

@<SCITEGIC>MOL_PROPERTY
Tether
SciTegic.value.DoubleValue
0.000

@<TRIPOS>MOLECULE
guest-s17_vm2.mol2 : vm2 ligand conformer 84
          25          25           1
SMALL
USER_CHARGES
 
@<TRIPOS>ATOM
       1    C1      20.797055   19.513395   20.989667 C.3        1 MOL1        -0.1684
       2    H1      20.862323   19.719350   19.912675 H          1 MOL1         0.0833
       3    H2      21.608804   20.100055   21.434108 H          1 MOL1         0.0833
       4    C2      21.066402   18.004284   21.204822 C.3        1 MOL1        -0.1684
       5    H3      20.514292   17.439714   20.441187 H          1 MOL1         0.0833
       6    H4      22.129589   17.811043   21.007645 H          1 MOL1         0.0833
       7    C3      20.695626   17.416678   22.592301 C.3        1 MOL1        -0.1684
       8    H5      21.078990   16.387623   22.613261 H          1 MOL1         0.0833
       9    H6      19.608712   17.305336   22.687859 H          1 MOL1         0.0833
      10    C4      21.277106   18.160838   23.825841 C.3        1 MOL1        -0.1760
      11    H7      21.454334   17.403838   24.600732 H          1 MOL1         0.0833
      12    H8      22.269572   18.563464   23.586932 H          1 MOL1         0.0833
      13    C5      20.400854   19.260857   24.490962 C.3        1 MOL1         0.1219
      14    H9      20.822615   19.392509   25.497984 H          1 MOL1         0.0790
      15    C6      20.477703   20.662401   23.833583 C.3        1 MOL1        -0.1760
      16    H10     20.310992   21.404376   24.625238 H          1 MOL1         0.0833
      17    H11     21.507675   20.844520   23.504808 H          1 MOL1         0.0833
      18    C7      19.484611   20.992988   22.682291 C.3        1 MOL1        -0.1684
      19    H12     19.752209   21.980280   22.282038 H          1 MOL1         0.0833
      20    H13     18.474411   21.107295   23.097697 H          1 MOL1         0.0833
      21    C8      19.415796   19.992485   21.503166 C.3        1 MOL1        -0.1684
      22    H14     18.881445   20.478432   20.675655 H          1 MOL1         0.0833
      23    H15     18.782732   19.142034   21.781476 H          1 MOL1         0.0833
      24    O1      19.048846   18.839074   24.637367 O.3        1 MOL1        -0.5508
      25    H16     18.545363   19.627405   24.922876 H          1 MOL1         0.3780
@<TRIPOS>BOND
    1     1     2    1
    2     1     3    1
    3     1     4    1
    4     4     5    1
    5     4     6    1
    6     4     7    1
    7     7     8    1
    8     7     9    1
    9     7    10    1
   10    10    11    1
   11    10    12    1
   12    10    13    1
   13    13    14    1
   14    13    15    1
   15    15    16    1
   16    15    17    1
   17    15    18    1
   18    18    19    1
   19    18    20    1
   20     1    21    1
   21    18    21    1
   22    21    22    1
   23    21    23    1
   24    13    24    1
   25    24    25    1
@<TRIPOS>SUBSTRUCTURE
       1 MOL1            1 RESIDUE      1      MOL     
@<SCITEGIC>MOL_PROPERTY
VM2 Rank
SciTegic.value.IntegerValue
84

@<SCITEGIC>MOL_PROPERTY
Conf_Id
SciTegic.value.IntegerValue
1330

@<SCITEGIC>MOL_PROPERTY
Probability
SciTegic.value.DoubleValue
0.01

@<SCITEGIC>MOL_PROPERTY
Sum Probability
SciTegic.value.DoubleValue
99.89

@<SCITEGIC>MOL_PROPERTY
Delta G
SciTegic.value.DoubleValue
3.531

@<SCITEGIC>MOL_PROPERTY
G
SciTegic.value.DoubleValue
65.607

@<SCITEGIC>MOL_PROPERTY
E
SciTegic.value.DoubleValue
33.220

@<SCITEGIC>MOL_PROPERTY
-TS
SciTegic.value.DoubleValue
32.386

@<SCITEGIC>MOL_PROPERTY
U+W
SciTegic.value.DoubleValue
12.652

@<SCITEGIC>MOL_PROPERTY
U
SciTegic.value.DoubleValue
14.604

@<SCITEGIC>MOL_PROPERTY
W
SciTegic.value.DoubleValue
-1.952

@<SCITEGIC>MOL_PROPERTY
W(PB)
SciTegic.value.DoubleValue
-4.077

@<SCITEGIC>MOL_PROPERTY
W(SA)
SciTegic.value.DoubleValue
2.125

@<SCITEGIC>MOL_PROPERTY
Valence
SciTegic.value.DoubleValue
18.883

@<SCITEGIC>MOL_PROPERTY
Coulomb
SciTegic.value.DoubleValue
-7.234

@<SCITEGIC>MOL_PROPERTY
VdW
SciTegic.value.DoubleValue
2.956

@<SCITEGIC>MOL_PROPERTY
VdW6
SciTegic.value.DoubleValue
-13.441

@<SCITEGIC>MOL_PROPERTY
VdW12
SciTegic.value.DoubleValue
16.397

@<SCITEGIC>MOL_PROPERTY
Bond
SciTegic.value.DoubleValue
0.515

@<SCITEGIC>MOL_PROPERTY
Angle
SciTegic.value.DoubleValue
6.286

@<SCITEGIC>MOL_PROPERTY
Pdih
SciTegic.value.DoubleValue
12.082

@<SCITEGIC>MOL_PROPERTY
Idih
SciTegic.value.DoubleValue
0.000

@<SCITEGIC>MOL_PROPERTY
Tether
SciTegic.value.DoubleValue
0.000

@<TRIPOS>MOLECULE
guest-s17_vm2.mol2 : vm2 ligand conformer 85
          25          25           1
SMALL
USER_CHARGES
 
@<TRIPOS>ATOM
       1    C1      20.129584   19.131986   20.677939 C.3        1 MOL1        -0.1684
       2    H1      19.120501   19.064758   20.248971 H          1 MOL1         0.0833
       3    H2      20.819370   19.041801   19.827671 H          1 MOL1         0.0833
       4    C2      20.343025   17.916303   21.611984 C.3        1 MOL1        -0.1684
       5    H3      19.433112   17.723405   22.187546 H          1 MOL1         0.0833
       6    H4      20.459354   17.024788   20.980588 H          1 MOL1         0.0833
       7    C3      21.577219   18.024806   22.540713 C.3        1 MOL1        -0.1684
       8    H5      22.204489   18.882466   22.272756 H          1 MOL1         0.0833
       9    H6      22.217015   17.149295   22.365059 H          1 MOL1         0.0833
      10    C4      21.244819   18.068405   24.054571 C.3        1 MOL1        -0.1760
      11    H7      20.882673   17.079778   24.366894 H          1 MOL1         0.0833
      12    H8      22.189598   18.213438   24.594314 H          1 MOL1         0.0833
      13    C5      20.242770   19.139395   24.563416 C.3        1 MOL1         0.1219
      14    H9      20.476069   19.269139   25.630129 H          1 MOL1         0.0790
      15    C6      20.344175   20.548136   23.922043 C.3        1 MOL1        -0.1760
      16    H10     19.960893   21.250006   24.674329 H          1 MOL1         0.0833
      17    H11     21.399423   20.821126   23.794351 H          1 MOL1         0.0833
      18    C7      19.549213   20.820987   22.607531 C.3        1 MOL1        -0.1684
      19    H12     19.317439   21.894968   22.606446 H          1 MOL1         0.0833
      20    H13     18.569970   20.326741   22.598199 H          1 MOL1         0.0833
      21    C8      20.321439   20.541624   21.295406 C.3        1 MOL1        -0.1684
      22    H14     21.387542   20.762604   21.432412 H          1 MOL1         0.0833
      23    H15     19.981781   21.267364   20.543691 H          1 MOL1         0.0833
      24    O1      18.911757   18.651359   24.486398 O.3        1 MOL1        -0.5508
      25    H16     18.699168   18.652838   23.532534 H          1 MOL1         0.3780
@<TRIPOS>BOND
    1     1     2    1
    2     1     3    1
    3     1     4    1
    4     4     5    1
    5     4     6    1
    6     4     7    1
    7     7     8    1
    8     7     9    1
    9     7    10    1
   10    10    11    1
   11    10    12    1
   12    10    13    1
   13    13    14    1
   14    13    15    1
   15    15    16    1
   16    15    17    1
   17    15    18    1
   18    18    19    1
   19    18    20    1
   20     1    21    1
   21    18    21    1
   22    21    22    1
   23    21    23    1
   24    13    24    1
   25    24    25    1
@<TRIPOS>SUBSTRUCTURE
       1 MOL1            1 RESIDUE      1      MOL     
@<SCITEGIC>MOL_PROPERTY
VM2 Rank
SciTegic.value.IntegerValue
85

@<SCITEGIC>MOL_PROPERTY
Conf_Id
SciTegic.value.IntegerValue
1132

@<SCITEGIC>MOL_PROPERTY
Probability
SciTegic.value.DoubleValue
0.01

@<SCITEGIC>MOL_PROPERTY
Sum Probability
SciTegic.value.DoubleValue
99.90

@<SCITEGIC>MOL_PROPERTY
Delta G
SciTegic.value.DoubleValue
3.596

@<SCITEGIC>MOL_PROPERTY
G
SciTegic.value.DoubleValue
65.672

@<SCITEGIC>MOL_PROPERTY
E
SciTegic.value.DoubleValue
33.221

@<SCITEGIC>MOL_PROPERTY
-TS
SciTegic.value.DoubleValue
32.451

@<SCITEGIC>MOL_PROPERTY
U+W
SciTegic.value.DoubleValue
12.653

@<SCITEGIC>MOL_PROPERTY
U
SciTegic.value.DoubleValue
13.786

@<SCITEGIC>MOL_PROPERTY
W
SciTegic.value.DoubleValue
-1.133

@<SCITEGIC>MOL_PROPERTY
W(PB)
SciTegic.value.DoubleValue
-3.259

@<SCITEGIC>MOL_PROPERTY
W(SA)
SciTegic.value.DoubleValue
2.127

@<SCITEGIC>MOL_PROPERTY
Valence
SciTegic.value.DoubleValue
20.491

@<SCITEGIC>MOL_PROPERTY
Coulomb
SciTegic.value.DoubleValue
-9.471

@<SCITEGIC>MOL_PROPERTY
VdW
SciTegic.value.DoubleValue
2.766

@<SCITEGIC>MOL_PROPERTY
VdW6
SciTegic.value.DoubleValue
-13.485

@<SCITEGIC>MOL_PROPERTY
VdW12
SciTegic.value.DoubleValue
16.251

@<SCITEGIC>MOL_PROPERTY
Bond
SciTegic.value.DoubleValue
0.508

@<SCITEGIC>MOL_PROPERTY
Angle
SciTegic.value.DoubleValue
6.903

@<SCITEGIC>MOL_PROPERTY
Pdih
SciTegic.value.DoubleValue
13.080

@<SCITEGIC>MOL_PROPERTY
Idih
SciTegic.value.DoubleValue
0.000

@<SCITEGIC>MOL_PROPERTY
Tether
SciTegic.value.DoubleValue
0.000

@<TRIPOS>MOLECULE
guest-s17_vm2.mol2 : vm2 ligand conformer 86
          25          25           1
SMALL
USER_CHARGES
 
@<TRIPOS>ATOM
       1    C1      20.073168   19.084888   20.685052 C.3        1 MOL1        -0.1684
       2    H1      19.306865   18.403356   20.291253 H          1 MOL1         0.0833
       3    H2      20.471612   19.618848   19.811541 H          1 MOL1         0.0833
       4    C2      21.227223   18.246989   21.294347 C.3        1 MOL1        -0.1684
       5    H3      21.487274   17.477747   20.554226 H          1 MOL1         0.0833
       6    H4      22.135801   18.854187   21.394221 H          1 MOL1         0.0833
       7    C3      20.917226   17.532702   22.632161 C.3        1 MOL1        -0.1684
       8    H5      21.519717   16.613939   22.638211 H          1 MOL1         0.0833
       9    H6      19.878105   17.182146   22.657098 H          1 MOL1         0.0833
      10    C4      21.313081   18.321797   23.918623 C.3        1 MOL1        -0.1760
      11    H7      21.562977   17.574437   24.683126 H          1 MOL1         0.0833
      12    H8      22.244476   18.878460   23.754283 H          1 MOL1         0.0833
      13    C5      20.254343   19.253665   24.564297 C.3        1 MOL1         0.1219
      14    H9      20.536899   19.354352   25.622201 H          1 MOL1         0.0790
      15    C6      20.181546   20.706481   24.022010 C.3        1 MOL1        -0.1760
      16    H10     19.231008   21.149953   24.347421 H          1 MOL1         0.0833
      17    H11     20.960865   21.290345   24.528693 H          1 MOL1         0.0833
      18    C7      20.346087   20.937324   22.497613 C.3        1 MOL1        -0.1684
      19    H12     21.390349   20.775494   22.207477 H          1 MOL1         0.0833
      20    H13     20.166844   22.003059   22.300646 H          1 MOL1         0.0833
      21    C8      19.380079   20.112481   21.612176 C.3        1 MOL1        -0.1684
      22    H14     18.810903   20.805815   20.977890 H          1 MOL1         0.0833
      23    H15     18.618777   19.613871   22.218998 H          1 MOL1         0.0833
      24    O1      18.971247   18.646673   24.533721 O.3        1 MOL1        -0.5508
      25    H16     18.799524   18.471322   23.587774 H          1 MOL1         0.3780
@<TRIPOS>BOND
    1     1     2    1
    2     1     3    1
    3     1     4    1
    4     4     5    1
    5     4     6    1
    6     4     7    1
    7     7     8    1
    8     7     9    1
    9     7    10    1
   10    10    11    1
   11    10    12    1
   12    10    13    1
   13    13    14    1
   14    13    15    1
   15    15    16    1
   16    15    17    1
   17    15    18    1
   18    18    19    1
   19    18    20    1
   20     1    21    1
   21    18    21    1
   22    21    22    1
   23    21    23    1
   24    13    24    1
   25    24    25    1
@<TRIPOS>SUBSTRUCTURE
       1 MOL1            1 RESIDUE      1      MOL     
@<SCITEGIC>MOL_PROPERTY
VM2 Rank
SciTegic.value.IntegerValue
86

@<SCITEGIC>MOL_PROPERTY
Conf_Id
SciTegic.value.IntegerValue
348

@<SCITEGIC>MOL_PROPERTY
Probability
SciTegic.value.DoubleValue
0.01

@<SCITEGIC>MOL_PROPERTY
Sum Probability
SciTegic.value.DoubleValue
99.91

@<SCITEGIC>MOL_PROPERTY
Delta G
SciTegic.value.DoubleValue
3.597

@<SCITEGIC>MOL_PROPERTY
G
SciTegic.value.DoubleValue
65.672

@<SCITEGIC>MOL_PROPERTY
E
SciTegic.value.DoubleValue
33.221

@<SCITEGIC>MOL_PROPERTY
-TS
SciTegic.value.DoubleValue
32.451

@<SCITEGIC>MOL_PROPERTY
U+W
SciTegic.value.DoubleValue
12.653

@<SCITEGIC>MOL_PROPERTY
U
SciTegic.value.DoubleValue
13.786

@<SCITEGIC>MOL_PROPERTY
W
SciTegic.value.DoubleValue
-1.133

@<SCITEGIC>MOL_PROPERTY
W(PB)
SciTegic.value.DoubleValue
-3.267

@<SCITEGIC>MOL_PROPERTY
W(SA)
SciTegic.value.DoubleValue
2.134

@<SCITEGIC>MOL_PROPERTY
Valence
SciTegic.value.DoubleValue
20.491

@<SCITEGIC>MOL_PROPERTY
Coulomb
SciTegic.value.DoubleValue
-9.471

@<SCITEGIC>MOL_PROPERTY
VdW
SciTegic.value.DoubleValue
2.766

@<SCITEGIC>MOL_PROPERTY
VdW6
SciTegic.value.DoubleValue
-13.486

@<SCITEGIC>MOL_PROPERTY
VdW12
SciTegic.value.DoubleValue
16.252

@<SCITEGIC>MOL_PROPERTY
Bond
SciTegic.value.DoubleValue
0.508

@<SCITEGIC>MOL_PROPERTY
Angle
SciTegic.value.DoubleValue
6.902

@<SCITEGIC>MOL_PROPERTY
Pdih
SciTegic.value.DoubleValue
13.080

@<SCITEGIC>MOL_PROPERTY
Idih
SciTegic.value.DoubleValue
0.000

@<SCITEGIC>MOL_PROPERTY
Tether
SciTegic.value.DoubleValue
0.000

@<TRIPOS>MOLECULE
guest-s17_vm2.mol2 : vm2 ligand conformer 87
          25          25           1
SMALL
USER_CHARGES
 
@<TRIPOS>ATOM
       1    C1      20.896595   19.360411   20.999300 C.3        1 MOL1        -0.1684
       2    H1      21.117905   19.267721   19.927381 H          1 MOL1         0.0833
       3    H2      21.865830   19.567163   21.466719 H          1 MOL1         0.0833
       4    C2      20.309115   18.017890   21.502485 C.3        1 MOL1        -0.1684
       5    H3      19.247389   18.122636   21.753828 H          1 MOL1         0.0833
       6    H4      20.329199   17.292994   20.677564 H          1 MOL1         0.0833
       7    C3      21.062131   17.396773   22.704149 C.3        1 MOL1        -0.1684
       8    H5      21.972193   16.909747   22.328912 H          1 MOL1         0.0833
       9    H6      20.442293   16.589782   23.118200 H          1 MOL1         0.0833
      10    C4      21.475804   18.354269   23.858684 C.3        1 MOL1        -0.1760
      11    H7      21.883414   17.727326   24.662095 H          1 MOL1         0.0833
      12    H8      22.319059   18.980874   23.545524 H          1 MOL1         0.0833
      13    C5      20.384748   19.253974   24.493472 C.3        1 MOL1         0.1219
      14    H9      20.756110   19.487841   25.501791 H          1 MOL1         0.0790
      15    C6      20.176840   20.635869   23.810111 C.3        1 MOL1        -0.1760
      16    H10     19.739813   21.294912   24.571548 H          1 MOL1         0.0833
      17    H11     21.149572   21.085235   23.572570 H          1 MOL1         0.0833
      18    C7      19.248831   20.699522   22.565933 C.3        1 MOL1        -0.1684
      19    H12     18.744019   21.675078   22.575124 H          1 MOL1         0.0833
      20    H13     18.435483   19.968806   22.649113 H          1 MOL1         0.0833
      21    C8      19.955067   20.574205   21.190188 C.3        1 MOL1        -0.1684
      22    H14     20.528745   21.491008   20.997844 H          1 MOL1         0.0833
      23    H15     19.178988   20.539434   20.413506 H          1 MOL1         0.0833
      24    O1      19.154869   18.550087   24.635678 O.3        1 MOL1        -0.5508
      25    H16     18.505051   19.195153   24.980055 H          1 MOL1         0.3780
@<TRIPOS>BOND
    1     1     2    1
    2     1     3    1
    3     1     4    1
    4     4     5    1
    5     4     6    1
    6     4     7    1
    7     7     8    1
    8     7     9    1
    9     7    10    1
   10    10    11    1
   11    10    12    1
   12    10    13    1
   13    13    14    1
   14    13    15    1
   15    15    16    1
   16    15    17    1
   17    15    18    1
   18    18    19    1
   19    18    20    1
   20     1    21    1
   21    18    21    1
   22    21    22    1
   23    21    23    1
   24    13    24    1
   25    24    25    1
@<TRIPOS>SUBSTRUCTURE
       1 MOL1            1 RESIDUE      1      MOL     
@<SCITEGIC>MOL_PROPERTY
VM2 Rank
SciTegic.value.IntegerValue
87

@<SCITEGIC>MOL_PROPERTY
Conf_Id
SciTegic.value.IntegerValue
1191

@<SCITEGIC>MOL_PROPERTY
Probability
SciTegic.value.DoubleValue
0.01

@<SCITEGIC>MOL_PROPERTY
Sum Probability
SciTegic.value.DoubleValue
99.92

@<SCITEGIC>MOL_PROPERTY
Delta G
SciTegic.value.DoubleValue
3.875

@<SCITEGIC>MOL_PROPERTY
G
SciTegic.value.DoubleValue
65.950

@<SCITEGIC>MOL_PROPERTY
E
SciTegic.value.DoubleValue
33.502

@<SCITEGIC>MOL_PROPERTY
-TS
SciTegic.value.DoubleValue
32.448

@<SCITEGIC>MOL_PROPERTY
U+W
SciTegic.value.DoubleValue
12.934

@<SCITEGIC>MOL_PROPERTY
U
SciTegic.value.DoubleValue
14.863

@<SCITEGIC>MOL_PROPERTY
W
SciTegic.value.DoubleValue
-1.929

@<SCITEGIC>MOL_PROPERTY
W(PB)
SciTegic.value.DoubleValue
-4.063

@<SCITEGIC>MOL_PROPERTY
W(SA)
SciTegic.value.DoubleValue
2.134

@<SCITEGIC>MOL_PROPERTY
Valence
SciTegic.value.DoubleValue
18.821

@<SCITEGIC>MOL_PROPERTY
Coulomb
SciTegic.value.DoubleValue
-6.903

@<SCITEGIC>MOL_PROPERTY
VdW
SciTegic.value.DoubleValue
2.946

@<SCITEGIC>MOL_PROPERTY
VdW6
SciTegic.value.DoubleValue
-13.394

@<SCITEGIC>MOL_PROPERTY
VdW12
SciTegic.value.DoubleValue
16.340

@<SCITEGIC>MOL_PROPERTY
Bond
SciTegic.value.DoubleValue
0.514

@<SCITEGIC>MOL_PROPERTY
Angle
SciTegic.value.DoubleValue
6.250

@<SCITEGIC>MOL_PROPERTY
Pdih
SciTegic.value.DoubleValue
12.057

@<SCITEGIC>MOL_PROPERTY
Idih
SciTegic.value.DoubleValue
0.000

@<SCITEGIC>MOL_PROPERTY
Tether
SciTegic.value.DoubleValue
0.000

@<TRIPOS>MOLECULE
guest-s17_vm2.mol2 : vm2 ligand conformer 88
          25          25           1
SMALL
USER_CHARGES
 
@<TRIPOS>ATOM
       1    C1      20.703947   19.446885   20.926610 C.3        1 MOL1        -0.1684
       2    H1      19.713782   19.146189   20.558764 H          1 MOL1         0.0833
       3    H2      21.291665   19.668476   20.025027 H          1 MOL1         0.0833
       4    C2      21.418180   18.273916   21.651422 C.3        1 MOL1        -0.1684
       5    H3      21.910253   17.675434   20.872247 H          1 MOL1         0.0833
       6    H4      22.233376   18.631144   22.294188 H          1 MOL1         0.0833
       7    C3      20.479330   17.314126   22.421657 C.3        1 MOL1        -0.1684
       8    H5      20.890655   16.299604   22.328627 H          1 MOL1         0.0833
       9    H6      19.501894   17.261982   21.925486 H          1 MOL1         0.0833
      10    C4      20.309056   17.589168   23.940952 C.3        1 MOL1        -0.1760
      11    H7      19.561013   16.880991   24.320349 H          1 MOL1         0.0833
      12    H8      21.242098   17.324890   24.456669 H          1 MOL1         0.0833
      13    C5      19.881967   19.008382   24.392432 C.3        1 MOL1         0.1219
      14    H9      19.388609   18.881498   25.366890 H          1 MOL1         0.0790
      15    C6      18.862755   19.713019   23.455760 C.3        1 MOL1        -0.1760
      16    H10     18.393755   18.986125   22.784096 H          1 MOL1         0.0833
      17    H11     18.035791   20.064025   24.086443 H          1 MOL1         0.0833
      18    C7      19.356868   20.935977   22.631354 C.3        1 MOL1        -0.1684
      19    H12     19.535549   21.776533   23.316155 H          1 MOL1         0.0833
      20    H13     18.523886   21.255690   21.990475 H          1 MOL1         0.0833
      21    C8      20.612331   20.763127   21.733635 C.3        1 MOL1        -0.1684
      22    H14     21.534701   20.918241   22.305802 H          1 MOL1         0.0833
      23    H15     20.601275   21.594291   21.014963 H          1 MOL1         0.0833
      24    O1      21.039565   19.798401   24.606177 O.3        1 MOL1        -0.5508
      25    H16     21.383756   19.955286   23.705534 H          1 MOL1         0.3780
@<TRIPOS>BOND
    1     1     2    1
    2     1     3    1
    3     1     4    1
    4     4     5    1
    5     4     6    1
    6     4     7    1
    7     7     8    1
    8     7     9    1
    9     7    10    1
   10    10    11    1
   11    10    12    1
   12    10    13    1
   13    13    14    1
   14    13    15    1
   15    15    16    1
   16    15    17    1
   17    15    18    1
   18    18    19    1
   19    18    20    1
   20     1    21    1
   21    18    21    1
   22    21    22    1
   23    21    23    1
   24    13    24    1
   25    24    25    1
@<TRIPOS>SUBSTRUCTURE
       1 MOL1            1 RESIDUE      1      MOL     
@<SCITEGIC>MOL_PROPERTY
VM2 Rank
SciTegic.value.IntegerValue
88

@<SCITEGIC>MOL_PROPERTY
Conf_Id
SciTegic.value.IntegerValue
609

@<SCITEGIC>MOL_PROPERTY
Probability
SciTegic.value.DoubleValue
0.01

@<SCITEGIC>MOL_PROPERTY
Sum Probability
SciTegic.value.DoubleValue
99.93

@<SCITEGIC>MOL_PROPERTY
Delta G
SciTegic.value.DoubleValue
3.923

@<SCITEGIC>MOL_PROPERTY
G
SciTegic.value.DoubleValue
65.999

@<SCITEGIC>MOL_PROPERTY
E
SciTegic.value.DoubleValue
33.355

@<SCITEGIC>MOL_PROPERTY
-TS
SciTegic.value.DoubleValue
32.644

@<SCITEGIC>MOL_PROPERTY
U+W
SciTegic.value.DoubleValue
12.787

@<SCITEGIC>MOL_PROPERTY
U
SciTegic.value.DoubleValue
13.787

@<SCITEGIC>MOL_PROPERTY
W
SciTegic.value.DoubleValue
-1.000

@<SCITEGIC>MOL_PROPERTY
W(PB)
SciTegic.value.DoubleValue
-3.091

@<SCITEGIC>MOL_PROPERTY
W(SA)
SciTegic.value.DoubleValue
2.091

@<SCITEGIC>MOL_PROPERTY
Valence
SciTegic.value.DoubleValue
20.983

@<SCITEGIC>MOL_PROPERTY
Coulomb
SciTegic.value.DoubleValue
-10.046

@<SCITEGIC>MOL_PROPERTY
VdW
SciTegic.value.DoubleValue
2.849

@<SCITEGIC>MOL_PROPERTY
VdW6
SciTegic.value.DoubleValue
-14.096

@<SCITEGIC>MOL_PROPERTY
VdW12
SciTegic.value.DoubleValue
16.945

@<SCITEGIC>MOL_PROPERTY
Bond
SciTegic.value.DoubleValue
0.519

@<SCITEGIC>MOL_PROPERTY
Angle
SciTegic.value.DoubleValue
7.298

@<SCITEGIC>MOL_PROPERTY
Pdih
SciTegic.value.DoubleValue
13.167

@<SCITEGIC>MOL_PROPERTY
Idih
SciTegic.value.DoubleValue
0.000

@<SCITEGIC>MOL_PROPERTY
Tether
SciTegic.value.DoubleValue
0.000

@<TRIPOS>MOLECULE
guest-s17_vm2.mol2 : vm2 ligand conformer 89
          25          25           1
SMALL
USER_CHARGES
 
@<TRIPOS>ATOM
       1    C1      20.512268   19.371904   20.888154 C.3        1 MOL1        -0.1684
       2    H1      20.272819   19.269913   19.820621 H          1 MOL1         0.0833
       3    H2      21.502496   19.845965   20.917632 H          1 MOL1         0.0833
       4    C2      20.554799   17.936159   21.478198 C.3        1 MOL1        -0.1684
       5    H3      19.553348   17.582711   21.756542 H          1 MOL1         0.0833
       6    H4      20.876513   17.271038   20.664844 H          1 MOL1         0.0833
       7    C3      21.559848   17.736830   22.638385 C.3        1 MOL1        -0.1684
       8    H5      22.421654   18.404211   22.511184 H          1 MOL1         0.0833
       9    H6      21.978255   16.725080   22.546766 H          1 MOL1         0.0833
      10    C4      20.983788   17.853117   24.076273 C.3        1 MOL1        -0.1760
      11    H7      20.352853   16.977039   24.278219 H          1 MOL1         0.0833
      12    H8      21.826263   17.767098   24.774745 H          1 MOL1         0.0833
      13    C5      20.190226   19.128967   24.454271 C.3        1 MOL1         0.1219
      14    H9      20.279399   19.229939   25.545564 H          1 MOL1         0.0790
      15    C6      20.732144   20.444341   23.830748 C.3        1 MOL1        -0.1760
      16    H10     20.849010   21.164593   24.650758 H          1 MOL1         0.0833
      17    H11     21.751645   20.299771   23.457673 H          1 MOL1         0.0833
      18    C7      19.873381   21.138034   22.734965 C.3        1 MOL1        -0.1684
      19    H12     20.442334   22.006220   22.375315 H          1 MOL1         0.0833
      20    H13     18.971198   21.555728   23.202952 H          1 MOL1         0.0833
      21    C8      19.439801   20.304403   21.498428 C.3        1 MOL1        -0.1684
      22    H14     19.143890   21.024128   20.722620 H          1 MOL1         0.0833
      23    H15     18.522185   19.739652   21.701500 H          1 MOL1         0.0833
      24    O1      18.817744   18.929246   24.160577 O.3        1 MOL1        -0.5508
      25    H16     18.784926   18.938694   23.184324 H          1 MOL1         0.3780
@<TRIPOS>BOND
    1     1     2    1
    2     1     3    1
    3     1     4    1
    4     4     5    1
    5     4     6    1
    6     4     7    1
    7     7     8    1
    8     7     9    1
    9     7    10    1
   10    10    11    1
   11    10    12    1
   12    10    13    1
   13    13    14    1
   14    13    15    1
   15    15    16    1
   16    15    17    1
   17    15    18    1
   18    18    19    1
   19    18    20    1
   20     1    21    1
   21    18    21    1
   22    21    22    1
   23    21    23    1
   24    13    24    1
   25    24    25    1
@<TRIPOS>SUBSTRUCTURE
       1 MOL1            1 RESIDUE      1      MOL     
@<SCITEGIC>MOL_PROPERTY
VM2 Rank
SciTegic.value.IntegerValue
89

@<SCITEGIC>MOL_PROPERTY
Conf_Id
SciTegic.value.IntegerValue
220

@<SCITEGIC>MOL_PROPERTY
Probability
SciTegic.value.DoubleValue
0.01

@<SCITEGIC>MOL_PROPERTY
Sum Probability
SciTegic.value.DoubleValue
99.93

@<SCITEGIC>MOL_PROPERTY
Delta G
SciTegic.value.DoubleValue
3.963

@<SCITEGIC>MOL_PROPERTY
G
SciTegic.value.DoubleValue
66.038

@<SCITEGIC>MOL_PROPERTY
E
SciTegic.value.DoubleValue
33.394

@<SCITEGIC>MOL_PROPERTY
-TS
SciTegic.value.DoubleValue
32.644

@<SCITEGIC>MOL_PROPERTY
U+W
SciTegic.value.DoubleValue
12.827

@<SCITEGIC>MOL_PROPERTY
U
SciTegic.value.DoubleValue
13.787

@<SCITEGIC>MOL_PROPERTY
W
SciTegic.value.DoubleValue
-0.960

@<SCITEGIC>MOL_PROPERTY
W(PB)
SciTegic.value.DoubleValue
-3.077

@<SCITEGIC>MOL_PROPERTY
W(SA)
SciTegic.value.DoubleValue
2.117

@<SCITEGIC>MOL_PROPERTY
Valence
SciTegic.value.DoubleValue
20.983

@<SCITEGIC>MOL_PROPERTY
Coulomb
SciTegic.value.DoubleValue
-10.046

@<SCITEGIC>MOL_PROPERTY
VdW
SciTegic.value.DoubleValue
2.849

@<SCITEGIC>MOL_PROPERTY
VdW6
SciTegic.value.DoubleValue
-14.095

@<SCITEGIC>MOL_PROPERTY
VdW12
SciTegic.value.DoubleValue
16.945

@<SCITEGIC>MOL_PROPERTY
Bond
SciTegic.value.DoubleValue
0.518

@<SCITEGIC>MOL_PROPERTY
Angle
SciTegic.value.DoubleValue
7.297

@<SCITEGIC>MOL_PROPERTY
Pdih
SciTegic.value.DoubleValue
13.168

@<SCITEGIC>MOL_PROPERTY
Idih
SciTegic.value.DoubleValue
0.000

@<SCITEGIC>MOL_PROPERTY
Tether
SciTegic.value.DoubleValue
0.000

@<TRIPOS>MOLECULE
guest-s17_vm2.mol2 : vm2 ligand conformer 90
          25          25           1
SMALL
USER_CHARGES
 
@<TRIPOS>ATOM
       1    C1      20.086883   19.098065   20.758241 C.3        1 MOL1        -0.1684
       2    H1      19.463164   18.260150   20.418750 H          1 MOL1         0.0833
       3    H2      20.329900   19.667929   19.851051 H          1 MOL1         0.0833
       4    C2      21.424241   18.544033   21.315119 C.3        1 MOL1        -0.1684
       5    H3      21.928051   18.012961   20.496009 H          1 MOL1         0.0833
       6    H4      22.099565   19.377572   21.531005 H          1 MOL1         0.0833
       7    C3      21.351549   17.560152   22.518970 C.3        1 MOL1        -0.1684
       8    H5      22.337770   17.516871   23.000574 H          1 MOL1         0.0833
       9    H6      21.181063   16.554466   22.111136 H          1 MOL1         0.0833
      10    C4      20.264357   17.799256   23.601980 C.3        1 MOL1        -0.1760
      11    H7      19.273872   17.700249   23.148421 H          1 MOL1         0.0833
      12    H8      20.312849   16.955929   24.302980 H          1 MOL1         0.0833
      13    C5      20.366022   19.090736   24.460864 C.3        1 MOL1         0.1219
      14    H9      21.085685   18.878131   25.264400 H          1 MOL1         0.0790
      15    C6      20.856382   20.385614   23.766475 C.3        1 MOL1        -0.1760
      16    H10     20.955938   21.155298   24.543209 H          1 MOL1         0.0833
      17    H11     21.885800   20.235554   23.429617 H          1 MOL1         0.0833
      18    C7      19.985320   20.991821   22.623024 C.3        1 MOL1        -0.1684
      19    H12     20.612352   21.664868   22.022843 H          1 MOL1         0.0833
      20    H13     19.230186   21.638923   23.089777 H          1 MOL1         0.0833
      21    C8      19.232024   20.022228   21.673122 C.3        1 MOL1        -0.1684
      22    H14     18.601434   20.632561   21.012205 H          1 MOL1         0.0833
      23    H15     18.506740   19.434575   22.243239 H          1 MOL1         0.0833
      24    O1      19.097222   19.351096   25.042205 O.3        1 MOL1        -0.5508
      25    H16     18.557667   19.731957   24.320358 H          1 MOL1         0.3780
@<TRIPOS>BOND
    1     1     2    1
    2     1     3    1
    3     1     4    1
    4     4     5    1
    5     4     6    1
    6     4     7    1
    7     7     8    1
    8     7     9    1
    9     7    10    1
   10    10    11    1
   11    10    12    1
   12    10    13    1
   13    13    14    1
   14    13    15    1
   15    15    16    1
   16    15    17    1
   17    15    18    1
   18    18    19    1
   19    18    20    1
   20     1    21    1
   21    18    21    1
   22    21    22    1
   23    21    23    1
   24    13    24    1
   25    24    25    1
@<TRIPOS>SUBSTRUCTURE
       1 MOL1            1 RESIDUE      1      MOL     
@<SCITEGIC>MOL_PROPERTY
VM2 Rank
SciTegic.value.IntegerValue
90

@<SCITEGIC>MOL_PROPERTY
Conf_Id
SciTegic.value.IntegerValue
1375

@<SCITEGIC>MOL_PROPERTY
Probability
SciTegic.value.DoubleValue
0.01

@<SCITEGIC>MOL_PROPERTY
Sum Probability
SciTegic.value.DoubleValue
99.94

@<SCITEGIC>MOL_PROPERTY
Delta G
SciTegic.value.DoubleValue
4.003

@<SCITEGIC>MOL_PROPERTY
G
SciTegic.value.DoubleValue
66.079

@<SCITEGIC>MOL_PROPERTY
E
SciTegic.value.DoubleValue
33.265

@<SCITEGIC>MOL_PROPERTY
-TS
SciTegic.value.DoubleValue
32.814

@<SCITEGIC>MOL_PROPERTY
U+W
SciTegic.value.DoubleValue
12.697

@<SCITEGIC>MOL_PROPERTY
U
SciTegic.value.DoubleValue
14.050

@<SCITEGIC>MOL_PROPERTY
W
SciTegic.value.DoubleValue
-1.353

@<SCITEGIC>MOL_PROPERTY
W(PB)
SciTegic.value.DoubleValue
-3.459

@<SCITEGIC>MOL_PROPERTY
W(SA)
SciTegic.value.DoubleValue
2.106

@<SCITEGIC>MOL_PROPERTY
Valence
SciTegic.value.DoubleValue
19.391

@<SCITEGIC>MOL_PROPERTY
Coulomb
SciTegic.value.DoubleValue
-9.106

@<SCITEGIC>MOL_PROPERTY
VdW
SciTegic.value.DoubleValue
3.765

@<SCITEGIC>MOL_PROPERTY
VdW6
SciTegic.value.DoubleValue
-14.145

@<SCITEGIC>MOL_PROPERTY
VdW12
SciTegic.value.DoubleValue
17.910

@<SCITEGIC>MOL_PROPERTY
Bond
SciTegic.value.DoubleValue
0.723

@<SCITEGIC>MOL_PROPERTY
Angle
SciTegic.value.DoubleValue
9.667

@<SCITEGIC>MOL_PROPERTY
Pdih
SciTegic.value.DoubleValue
9.001

@<SCITEGIC>MOL_PROPERTY
Idih
SciTegic.value.DoubleValue
0.000

@<SCITEGIC>MOL_PROPERTY
Tether
SciTegic.value.DoubleValue
0.000

@<TRIPOS>MOLECULE
guest-s17_vm2.mol2 : vm2 ligand conformer 91
          25          25           1
SMALL
USER_CHARGES
 
@<TRIPOS>ATOM
       1    C1      20.110016   19.109677   20.755522 C.3        1 MOL1        -0.1684
       2    H1      19.077830   19.224564   20.398066 H          1 MOL1         0.0833
       3    H2      20.706997   18.890975   19.859654 H          1 MOL1         0.0833
       4    C2      20.185092   17.860731   21.680921 C.3        1 MOL1        -0.1684
       5    H3      19.251088   17.737082   22.236579 H          1 MOL1         0.0833
       6    H4      20.210481   16.978463   21.026764 H          1 MOL1         0.0833
       7    C3      21.391831   17.754907   22.651724 C.3        1 MOL1        -0.1684
       8    H5      22.321506   17.748261   22.066882 H          1 MOL1         0.0833
       9    H6      21.340279   16.764835   23.124933 H          1 MOL1         0.0833
      10    C4      21.525806   18.813418   23.789845 C.3        1 MOL1        -0.1760
      11    H7      22.142710   18.365737   24.580193 H          1 MOL1         0.0833
      12    H8      22.125422   19.664958   23.456633 H          1 MOL1         0.0833
      13    C5      20.234158   19.345512   24.459072 C.3        1 MOL1         0.1219
      14    H9      20.557556   20.022012   25.263153 H          1 MOL1         0.0790
      15    C6      19.236374   20.147688   23.577663 C.3        1 MOL1        -0.1760
      16    H10     18.494673   19.489023   23.116557 H          1 MOL1         0.0833
      17    H11     18.642452   20.764577   24.264435 H          1 MOL1         0.0833
      18    C7      19.822864   21.096800   22.497255 C.3        1 MOL1        -0.1684
      19    H12     20.457360   21.849794   22.983941 H          1 MOL1         0.0833
      20    H13     18.979149   21.656719   22.071301 H          1 MOL1         0.0833
      21    C8      20.610494   20.468627   21.310831 C.3        1 MOL1        -0.1684
      22    H14     21.676799   20.393497   21.544939 H          1 MOL1         0.0833
      23    H15     20.580793   21.193359   20.485795 H          1 MOL1         0.0833
      24    O1      19.547366   18.245640   25.037169 O.3        1 MOL1        -0.5508
      25    H16     19.468373   17.586270   24.318678 H          1 MOL1         0.3780
@<TRIPOS>BOND
    1     1     2    1
    2     1     3    1
    3     1     4    1
    4     4     5    1
    5     4     6    1
    6     4     7    1
    7     7     8    1
    8     7     9    1
    9     7    10    1
   10    10    11    1
   11    10    12    1
   12    10    13    1
   13    13    14    1
   14    13    15    1
   15    15    16    1
   16    15    17    1
   17    15    18    1
   18    18    19    1
   19    18    20    1
   20     1    21    1
   21    18    21    1
   22    21    22    1
   23    21    23    1
   24    13    24    1
   25    24    25    1
@<TRIPOS>SUBSTRUCTURE
       1 MOL1            1 RESIDUE      1      MOL     
@<SCITEGIC>MOL_PROPERTY
VM2 Rank
SciTegic.value.IntegerValue
91

@<SCITEGIC>MOL_PROPERTY
Conf_Id
SciTegic.value.IntegerValue
435

@<SCITEGIC>MOL_PROPERTY
Probability
SciTegic.value.DoubleValue
0.01

@<SCITEGIC>MOL_PROPERTY
Sum Probability
SciTegic.value.DoubleValue
99.95

@<SCITEGIC>MOL_PROPERTY
Delta G
SciTegic.value.DoubleValue
4.045

@<SCITEGIC>MOL_PROPERTY
G
SciTegic.value.DoubleValue
66.120

@<SCITEGIC>MOL_PROPERTY
E
SciTegic.value.DoubleValue
33.306

@<SCITEGIC>MOL_PROPERTY
-TS
SciTegic.value.DoubleValue
32.814

@<SCITEGIC>MOL_PROPERTY
U+W
SciTegic.value.DoubleValue
12.738

@<SCITEGIC>MOL_PROPERTY
U
SciTegic.value.DoubleValue
14.050

@<SCITEGIC>MOL_PROPERTY
W
SciTegic.value.DoubleValue
-1.312

@<SCITEGIC>MOL_PROPERTY
W(PB)
SciTegic.value.DoubleValue
-3.425

@<SCITEGIC>MOL_PROPERTY
W(SA)
SciTegic.value.DoubleValue
2.113

@<SCITEGIC>MOL_PROPERTY
Valence
SciTegic.value.DoubleValue
19.391

@<SCITEGIC>MOL_PROPERTY
Coulomb
SciTegic.value.DoubleValue
-9.106

@<SCITEGIC>MOL_PROPERTY
VdW
SciTegic.value.DoubleValue
3.765

@<SCITEGIC>MOL_PROPERTY
VdW6
SciTegic.value.DoubleValue
-14.145

@<SCITEGIC>MOL_PROPERTY
VdW12
SciTegic.value.DoubleValue
17.910

@<SCITEGIC>MOL_PROPERTY
Bond
SciTegic.value.DoubleValue
0.723

@<SCITEGIC>MOL_PROPERTY
Angle
SciTegic.value.DoubleValue
9.667

@<SCITEGIC>MOL_PROPERTY
Pdih
SciTegic.value.DoubleValue
9.002

@<SCITEGIC>MOL_PROPERTY
Idih
SciTegic.value.DoubleValue
0.000

@<SCITEGIC>MOL_PROPERTY
Tether
SciTegic.value.DoubleValue
0.000

@<TRIPOS>MOLECULE
guest-s17_vm2.mol2 : vm2 ligand conformer 92
          25          25           1
SMALL
USER_CHARGES
 
@<TRIPOS>ATOM
       1    C1      19.606507   19.029093   21.013789 C.3        1 MOL1        -0.1684
       2    H1      19.263902   18.902739   19.977661 H          1 MOL1         0.0833
       3    H2      18.688027   18.922613   21.599668 H          1 MOL1         0.0833
       4    C2      20.595276   17.863779   21.311558 C.3        1 MOL1        -0.1684
       5    H3      20.019017   16.952310   21.520487 H          1 MOL1         0.0833
       6    H4      21.145312   17.655175   20.383730 H          1 MOL1         0.0833
       7    C3      21.653782   18.066967   22.427320 C.3        1 MOL1        -0.1684
       8    H5      22.308562   18.901264   22.156653 H          1 MOL1         0.0833
       9    H6      22.325058   17.197560   22.411340 H          1 MOL1         0.0833
      10    C4      21.135995   18.219919   23.888693 C.3        1 MOL1        -0.1760
      11    H7      21.030548   17.208915   24.303982 H          1 MOL1         0.0833
      12    H8      21.911603   18.708155   24.492801 H          1 MOL1         0.0833
      13    C5      19.785287   18.943028   24.117970 C.3        1 MOL1         0.1219
      14    H9      19.018033   18.410637   23.546335 H          1 MOL1         0.0790
      15    C6      19.731968   20.461282   23.780903 C.3        1 MOL1        -0.1760
      16    H10     18.682262   20.750905   23.643937 H          1 MOL1         0.0833
      17    H11     20.082301   21.017376   24.661047 H          1 MOL1         0.0833
      18    C7      20.554652   20.977883   22.569780 C.3        1 MOL1        -0.1684
      19    H12     21.618751   20.796713   22.751445 H          1 MOL1         0.0833
      20    H13     20.479013   22.073766   22.560304 H          1 MOL1         0.0833
      21    C8      20.141644   20.478643   21.154318 C.3        1 MOL1        -0.1684
      22    H14     19.352103   21.148385   20.786970 H          1 MOL1         0.0833
      23    H15     20.987149   20.619511   20.467491 H          1 MOL1         0.0833
      24    O1      19.458890   18.802405   25.495669 O.3        1 MOL1        -0.5508
      25    H16     18.575515   19.208340   25.619092 H          1 MOL1         0.3780
@<TRIPOS>BOND
    1     1     2    1
    2     1     3    1
    3     1     4    1
    4     4     5    1
    5     4     6    1
    6     4     7    1
    7     7     8    1
    8     7     9    1
    9     7    10    1
   10    10    11    1
   11    10    12    1
   12    10    13    1
   13    13    14    1
   14    13    15    1
   15    15    16    1
   16    15    17    1
   17    15    18    1
   18    18    19    1
   19    18    20    1
   20     1    21    1
   21    18    21    1
   22    21    22    1
   23    21    23    1
   24    13    24    1
   25    24    25    1
@<TRIPOS>SUBSTRUCTURE
       1 MOL1            1 RESIDUE      1      MOL     
@<SCITEGIC>MOL_PROPERTY
VM2 Rank
SciTegic.value.IntegerValue
92

@<SCITEGIC>MOL_PROPERTY
Conf_Id
SciTegic.value.IntegerValue
301

@<SCITEGIC>MOL_PROPERTY
Probability
SciTegic.value.DoubleValue
0.00

@<SCITEGIC>MOL_PROPERTY
Sum Probability
SciTegic.value.DoubleValue
99.95

@<SCITEGIC>MOL_PROPERTY
Delta G
SciTegic.value.DoubleValue
4.125

@<SCITEGIC>MOL_PROPERTY
G
SciTegic.value.DoubleValue
66.200

@<SCITEGIC>MOL_PROPERTY
E
SciTegic.value.DoubleValue
33.521

@<SCITEGIC>MOL_PROPERTY
-TS
SciTegic.value.DoubleValue
32.679

@<SCITEGIC>MOL_PROPERTY
U+W
SciTegic.value.DoubleValue
12.953

@<SCITEGIC>MOL_PROPERTY
U
SciTegic.value.DoubleValue
15.029

@<SCITEGIC>MOL_PROPERTY
W
SciTegic.value.DoubleValue
-2.076

@<SCITEGIC>MOL_PROPERTY
W(PB)
SciTegic.value.DoubleValue
-4.199

@<SCITEGIC>MOL_PROPERTY
W(SA)
SciTegic.value.DoubleValue
2.124

@<SCITEGIC>MOL_PROPERTY
Valence
SciTegic.value.DoubleValue
18.886

@<SCITEGIC>MOL_PROPERTY
Coulomb
SciTegic.value.DoubleValue
-8.127

@<SCITEGIC>MOL_PROPERTY
VdW
SciTegic.value.DoubleValue
4.270

@<SCITEGIC>MOL_PROPERTY
VdW6
SciTegic.value.DoubleValue
-13.485

@<SCITEGIC>MOL_PROPERTY
VdW12
SciTegic.value.DoubleValue
17.755

@<SCITEGIC>MOL_PROPERTY
Bond
SciTegic.value.DoubleValue
0.714

@<SCITEGIC>MOL_PROPERTY
Angle
SciTegic.value.DoubleValue
8.958

@<SCITEGIC>MOL_PROPERTY
Pdih
SciTegic.value.DoubleValue
9.214

@<SCITEGIC>MOL_PROPERTY
Idih
SciTegic.value.DoubleValue
0.000

@<SCITEGIC>MOL_PROPERTY
Tether
SciTegic.value.DoubleValue
0.000

@<TRIPOS>MOLECULE
guest-s17_vm2.mol2 : vm2 ligand conformer 93
          25          25           1
SMALL
USER_CHARGES
 
@<TRIPOS>ATOM
       1    C1      19.639570   18.883023   21.021422 C.3        1 MOL1        -0.1684
       2    H1      19.286414   18.752494   19.989362 H          1 MOL1         0.0833
       3    H2      18.883357   18.361201   21.616433 H          1 MOL1         0.0833
       4    C2      20.996130   18.140593   21.147322 C.3        1 MOL1        -0.1684
       5    H3      20.835757   17.116733   20.782813 H          1 MOL1         0.0833
       6    H4      21.718704   18.588460   20.451796 H          1 MOL1         0.0833
       7    C3      21.651397   18.036379   22.555551 C.3        1 MOL1        -0.1684
       8    H5      22.337386   18.871602   22.728610 H          1 MOL1         0.0833
       9    H6      22.313395   17.159869   22.539450 H          1 MOL1         0.0833
      10    C4      20.705422   17.887471   23.777628 C.3        1 MOL1        -0.1760
      11    H7      20.101970   16.979909   23.648404 H          1 MOL1         0.0833
      12    H8      21.344650   17.698688   24.650767 H          1 MOL1         0.0833
      13    C5      19.753126   19.068352   24.124339 C.3        1 MOL1         0.1219
      14    H9      18.818406   18.965967   23.563358 H          1 MOL1         0.0790
      15    C6      20.295061   20.500160   23.887500 C.3        1 MOL1        -0.1760
      16    H10     19.556734   21.194193   24.310472 H          1 MOL1         0.0833
      17    H11     21.207457   20.641387   24.481198 H          1 MOL1         0.0833
      18    C7      20.568829   20.953928   22.422489 C.3        1 MOL1        -0.1684
      19    H12     21.607280   20.753885   22.140267 H          1 MOL1         0.0833
      20    H13     20.504569   22.050441   22.406155 H          1 MOL1         0.0833
      21    C8      19.624271   20.411480   21.317857 C.3        1 MOL1        -0.1684
      22    H14     18.593730   20.721274   21.538117 H          1 MOL1         0.0833
      23    H15     19.891917   20.928908   20.386432 H          1 MOL1         0.0833
      24    O1      19.430193   18.961614   25.505893 O.3        1 MOL1        -0.5508
      25    H16     19.031373   18.075769   25.634698 H          1 MOL1         0.3780
@<TRIPOS>BOND
    1     1     2    1
    2     1     3    1
    3     1     4    1
    4     4     5    1
    5     4     6    1
    6     4     7    1
    7     7     8    1
    8     7     9    1
    9     7    10    1
   10    10    11    1
   11    10    12    1
   12    10    13    1
   13    13    14    1
   14    13    15    1
   15    15    16    1
   16    15    17    1
   17    15    18    1
   18    18    19    1
   19    18    20    1
   20     1    21    1
   21    18    21    1
   22    21    22    1
   23    21    23    1
   24    13    24    1
   25    24    25    1
@<TRIPOS>SUBSTRUCTURE
       1 MOL1            1 RESIDUE      1      MOL     
@<SCITEGIC>MOL_PROPERTY
VM2 Rank
SciTegic.value.IntegerValue
93

@<SCITEGIC>MOL_PROPERTY
Conf_Id
SciTegic.value.IntegerValue
299

@<SCITEGIC>MOL_PROPERTY
Probability
SciTegic.value.DoubleValue
0.00

@<SCITEGIC>MOL_PROPERTY
Sum Probability
SciTegic.value.DoubleValue
99.96

@<SCITEGIC>MOL_PROPERTY
Delta G
SciTegic.value.DoubleValue
4.126

@<SCITEGIC>MOL_PROPERTY
G
SciTegic.value.DoubleValue
66.202

@<SCITEGIC>MOL_PROPERTY
E
SciTegic.value.DoubleValue
33.523

@<SCITEGIC>MOL_PROPERTY
-TS
SciTegic.value.DoubleValue
32.678

@<SCITEGIC>MOL_PROPERTY
U+W
SciTegic.value.DoubleValue
12.956

@<SCITEGIC>MOL_PROPERTY
U
SciTegic.value.DoubleValue
15.029

@<SCITEGIC>MOL_PROPERTY
W
SciTegic.value.DoubleValue
-2.074

@<SCITEGIC>MOL_PROPERTY
W(PB)
SciTegic.value.DoubleValue
-4.202

@<SCITEGIC>MOL_PROPERTY
W(SA)
SciTegic.value.DoubleValue
2.128

@<SCITEGIC>MOL_PROPERTY
Valence
SciTegic.value.DoubleValue
18.886

@<SCITEGIC>MOL_PROPERTY
Coulomb
SciTegic.value.DoubleValue
-8.127

@<SCITEGIC>MOL_PROPERTY
VdW
SciTegic.value.DoubleValue
4.270

@<SCITEGIC>MOL_PROPERTY
VdW6
SciTegic.value.DoubleValue
-13.485

@<SCITEGIC>MOL_PROPERTY
VdW12
SciTegic.value.DoubleValue
17.755

@<SCITEGIC>MOL_PROPERTY
Bond
SciTegic.value.DoubleValue
0.714

@<SCITEGIC>MOL_PROPERTY
Angle
SciTegic.value.DoubleValue
8.959

@<SCITEGIC>MOL_PROPERTY
Pdih
SciTegic.value.DoubleValue
9.213

@<SCITEGIC>MOL_PROPERTY
Idih
SciTegic.value.DoubleValue
0.000

@<SCITEGIC>MOL_PROPERTY
Tether
SciTegic.value.DoubleValue
0.000

@<TRIPOS>MOLECULE
guest-s17_vm2.mol2 : vm2 ligand conformer 94
          25          25           1
SMALL
USER_CHARGES
 
@<TRIPOS>ATOM
       1    C1      20.713648   19.495992   20.721285 C.3        1 MOL1        -0.1684
       2    H1      20.481773   19.026623   19.755507 H          1 MOL1         0.0833
       3    H2      21.313269   20.383535   20.478205 H          1 MOL1         0.0833
       4    C2      21.596601   18.495889   21.523762 C.3        1 MOL1        -0.1684
       5    H3      22.234635   17.975431   20.796488 H          1 MOL1         0.0833
       6    H4      22.313893   19.029192   22.155336 H          1 MOL1         0.0833
       7    C3      20.872001   17.414191   22.367097 C.3        1 MOL1        -0.1684
       8    H5      21.646261   16.737127   22.753116 H          1 MOL1         0.0833
       9    H6      20.248618   16.798241   21.704988 H          1 MOL1         0.0833
      10    C4      20.011529   17.878820   23.579926 C.3        1 MOL1        -0.1760
      11    H7      18.972916   18.038593   23.276809 H          1 MOL1         0.0833
      12    H8      19.952349   17.028114   24.271911 H          1 MOL1         0.0833
      13    C5      20.505163   19.103917   24.390483 C.3        1 MOL1         0.1219
      14    H9      21.522997   18.888727   24.745635 H          1 MOL1         0.0790
      15    C6      20.532892   20.485846   23.676059 C.3        1 MOL1        -0.1760
      16    H10     20.490224   21.261155   24.452968 H          1 MOL1         0.0833
      17    H11     21.509279   20.653513   23.213342 H          1 MOL1         0.0833
      18    C7      19.416878   20.797337   22.641419 C.3        1 MOL1        -0.1684
      19    H12     19.543783   21.846494   22.341521 H          1 MOL1         0.0833
      20    H13     18.437605   20.752278   23.136219 H          1 MOL1         0.0833
      21    C8      19.363752   19.945916   21.339555 C.3        1 MOL1        -0.1684
      22    H14     18.837582   20.545450   20.584235 H          1 MOL1         0.0833
      23    H15     18.715967   19.073340   21.468947 H          1 MOL1         0.0833
      24    O1      19.651534   19.225092   25.520414 O.3        1 MOL1        -0.5508
      25    H16     18.776400   19.486300   25.168268 H          1 MOL1         0.3780
@<TRIPOS>BOND
    1     1     2    1
    2     1     3    1
    3     1     4    1
    4     4     5    1
    5     4     6    1
    6     4     7    1
    7     7     8    1
    8     7     9    1
    9     7    10    1
   10    10    11    1
   11    10    12    1
   12    10    13    1
   13    13    14    1
   14    13    15    1
   15    15    16    1
   16    15    17    1
   17    15    18    1
   18    18    19    1
   19    18    20    1
   20     1    21    1
   21    18    21    1
   22    21    22    1
   23    21    23    1
   24    13    24    1
   25    24    25    1
@<TRIPOS>SUBSTRUCTURE
       1 MOL1            1 RESIDUE      1      MOL     
@<SCITEGIC>MOL_PROPERTY
VM2 Rank
SciTegic.value.IntegerValue
94

@<SCITEGIC>MOL_PROPERTY
Conf_Id
SciTegic.value.IntegerValue
1056

@<SCITEGIC>MOL_PROPERTY
Probability
SciTegic.value.DoubleValue
0.00

@<SCITEGIC>MOL_PROPERTY
Sum Probability
SciTegic.value.DoubleValue
99.96

@<SCITEGIC>MOL_PROPERTY
Delta G
SciTegic.value.DoubleValue
4.153

@<SCITEGIC>MOL_PROPERTY
G
SciTegic.value.DoubleValue
66.228

@<SCITEGIC>MOL_PROPERTY
E
SciTegic.value.DoubleValue
33.565

@<SCITEGIC>MOL_PROPERTY
-TS
SciTegic.value.DoubleValue
32.663

@<SCITEGIC>MOL_PROPERTY
U+W
SciTegic.value.DoubleValue
12.998

@<SCITEGIC>MOL_PROPERTY
U
SciTegic.value.DoubleValue
14.560

@<SCITEGIC>MOL_PROPERTY
W
SciTegic.value.DoubleValue
-1.562

@<SCITEGIC>MOL_PROPERTY
W(PB)
SciTegic.value.DoubleValue
-3.690

@<SCITEGIC>MOL_PROPERTY
W(SA)
SciTegic.value.DoubleValue
2.128

@<SCITEGIC>MOL_PROPERTY
Valence
SciTegic.value.DoubleValue
19.306

@<SCITEGIC>MOL_PROPERTY
Coulomb
SciTegic.value.DoubleValue
-8.913

@<SCITEGIC>MOL_PROPERTY
VdW
SciTegic.value.DoubleValue
4.167

@<SCITEGIC>MOL_PROPERTY
VdW6
SciTegic.value.DoubleValue
-13.653

@<SCITEGIC>MOL_PROPERTY
VdW12
SciTegic.value.DoubleValue
17.820

@<SCITEGIC>MOL_PROPERTY
Bond
SciTegic.value.DoubleValue
0.720

@<SCITEGIC>MOL_PROPERTY
Angle
SciTegic.value.DoubleValue
9.343

@<SCITEGIC>MOL_PROPERTY
Pdih
SciTegic.value.DoubleValue
9.243

@<SCITEGIC>MOL_PROPERTY
Idih
SciTegic.value.DoubleValue
0.000

@<SCITEGIC>MOL_PROPERTY
Tether
SciTegic.value.DoubleValue
0.000

@<TRIPOS>MOLECULE
guest-s17_vm2.mol2 : vm2 ligand conformer 95
          25          25           1
SMALL
USER_CHARGES
 
@<TRIPOS>ATOM
       1    C1      20.787526   19.285149   20.718678 C.3        1 MOL1        -0.1684
       2    H1      20.282371   19.416936   19.752111 H          1 MOL1         0.0833
       3    H2      21.846498   19.124768   20.475321 H          1 MOL1         0.0833
       4    C2      20.209632   17.994695   21.357172 C.3        1 MOL1        -0.1684
       5    H3      19.128910   18.107803   21.487576 H          1 MOL1         0.0833
       6    H4      20.294853   17.190889   20.613238 H          1 MOL1         0.0833
       7    C3      20.876782   17.478029   22.665056 C.3        1 MOL1        -0.1684
       8    H5      21.735677   16.858996   22.372021 H          1 MOL1         0.0833
       9    H6      20.183617   16.793341   23.171573 H          1 MOL1         0.0833
      10    C4      21.402997   18.526529   23.683261 C.3        1 MOL1        -0.1760
      11    H7      21.948067   17.982962   24.466807 H          1 MOL1         0.0833
      12    H8      22.184713   19.126804   23.209825 H          1 MOL1         0.0833
      13    C5      20.366587   19.449367   24.386910 C.3        1 MOL1         0.1219
      14    H9      20.895865   20.350581   24.727652 H          1 MOL1         0.0790
      15    C6      19.127537   19.900458   23.572781 C.3        1 MOL1        -0.1760
      16    H10     18.543503   19.022081   23.283846 H          1 MOL1         0.0833
      17    H11     18.461705   20.441133   24.258625 H          1 MOL1         0.0833
      18    C7      19.362663   20.831182   22.345704 C.3        1 MOL1        -0.1684
      19    H12     19.386805   21.864964   22.716672 H          1 MOL1         0.0833
      20    H13     18.485789   20.777511   21.686462 H          1 MOL1         0.0833
      21    C8      20.647765   20.623219   21.502144 C.3        1 MOL1        -0.1684
      22    H14     21.526986   20.801483   22.129039 H          1 MOL1         0.0833
      23    H15     20.692754   21.434623   20.762892 H          1 MOL1         0.0833
      24    O1      19.882510   18.754371   25.528294 O.3        1 MOL1        -0.5508
      25    H16     19.483498   17.927410   25.189148 H          1 MOL1         0.3780
@<TRIPOS>BOND
    1     1     2    1
    2     1     3    1
    3     1     4    1
    4     4     5    1
    5     4     6    1
    6     4     7    1
    7     7     8    1
    8     7     9    1
    9     7    10    1
   10    10    11    1
   11    10    12    1
   12    10    13    1
   13    13    14    1
   14    13    15    1
   15    15    16    1
   16    15    17    1
   17    15    18    1
   18    18    19    1
   19    18    20    1
   20     1    21    1
   21    18    21    1
   22    21    22    1
   23    21    23    1
   24    13    24    1
   25    24    25    1
@<TRIPOS>SUBSTRUCTURE
       1 MOL1            1 RESIDUE      1      MOL     
@<SCITEGIC>MOL_PROPERTY
VM2 Rank
SciTegic.value.IntegerValue
95

@<SCITEGIC>MOL_PROPERTY
Conf_Id
SciTegic.value.IntegerValue
184

@<SCITEGIC>MOL_PROPERTY
Probability
SciTegic.value.DoubleValue
0.00

@<SCITEGIC>MOL_PROPERTY
Sum Probability
SciTegic.value.DoubleValue
99.97

@<SCITEGIC>MOL_PROPERTY
Delta G
SciTegic.value.DoubleValue
4.165

@<SCITEGIC>MOL_PROPERTY
G
SciTegic.value.DoubleValue
66.240

@<SCITEGIC>MOL_PROPERTY
E
SciTegic.value.DoubleValue
33.577

@<SCITEGIC>MOL_PROPERTY
-TS
SciTegic.value.DoubleValue
32.664

@<SCITEGIC>MOL_PROPERTY
U+W
SciTegic.value.DoubleValue
13.009

@<SCITEGIC>MOL_PROPERTY
U
SciTegic.value.DoubleValue
14.560

@<SCITEGIC>MOL_PROPERTY
W
SciTegic.value.DoubleValue
-1.551

@<SCITEGIC>MOL_PROPERTY
W(PB)
SciTegic.value.DoubleValue
-3.681

@<SCITEGIC>MOL_PROPERTY
W(SA)
SciTegic.value.DoubleValue
2.130

@<SCITEGIC>MOL_PROPERTY
Valence
SciTegic.value.DoubleValue
19.306

@<SCITEGIC>MOL_PROPERTY
Coulomb
SciTegic.value.DoubleValue
-8.913

@<SCITEGIC>MOL_PROPERTY
VdW
SciTegic.value.DoubleValue
4.167

@<SCITEGIC>MOL_PROPERTY
VdW6
SciTegic.value.DoubleValue
-13.653

@<SCITEGIC>MOL_PROPERTY
VdW12
SciTegic.value.DoubleValue
17.820

@<SCITEGIC>MOL_PROPERTY
Bond
SciTegic.value.DoubleValue
0.720

@<SCITEGIC>MOL_PROPERTY
Angle
SciTegic.value.DoubleValue
9.343

@<SCITEGIC>MOL_PROPERTY
Pdih
SciTegic.value.DoubleValue
9.244

@<SCITEGIC>MOL_PROPERTY
Idih
SciTegic.value.DoubleValue
0.000

@<SCITEGIC>MOL_PROPERTY
Tether
SciTegic.value.DoubleValue
0.000

@<TRIPOS>MOLECULE
guest-s17_vm2.mol2 : vm2 ligand conformer 96
          25          25           1
SMALL
USER_CHARGES
 
@<TRIPOS>ATOM
       1    C1      21.378871   19.559819   21.242158 C.3        1 MOL1        -0.1684
       2    H1      21.942154   19.786193   20.326535 H          1 MOL1         0.0833
       3    H2      22.136462   19.626978   22.029415 H          1 MOL1         0.0833
       4    C2      20.879617   18.094904   21.132133 C.3        1 MOL1        -0.1684
       5    H3      20.217318   18.003599   20.260660 H          1 MOL1         0.0833
       6    H4      21.756023   17.474756   20.899331 H          1 MOL1         0.0833
       7    C3      20.175814   17.461238   22.367701 C.3        1 MOL1        -0.1684
       8    H5      20.293706   16.372345   22.283277 H          1 MOL1         0.0833
       9    H6      19.092113   17.605828   22.315225 H          1 MOL1         0.0833
      10    C4      20.681608   17.879827   23.774814 C.3        1 MOL1        -0.1760
      11    H7      20.162589   17.241917   24.502828 H          1 MOL1         0.0833
      12    H8      21.744793   17.622395   23.862303 H          1 MOL1         0.0833
      13    C5      20.499282   19.359599   24.219363 C.3        1 MOL1         0.1219
      14    H9      21.358505   19.950587   23.885773 H          1 MOL1         0.0790
      15    C6      19.209839   20.079886   23.750094 C.3        1 MOL1        -0.1760
      16    H10     18.335731   19.525184   24.115629 H          1 MOL1         0.0833
      17    H11     19.177563   21.052810   24.257674 H          1 MOL1         0.0833
      18    C7      19.030999   20.354371   22.227203 C.3        1 MOL1        -0.1684
      19    H12     18.348093   21.209406   22.130396 H          1 MOL1         0.0833
      20    H13     18.486629   19.536421   21.744875 H          1 MOL1         0.0833
      21    C8      20.306037   20.676477   21.404390 C.3        1 MOL1        -0.1684
      22    H14     20.785982   21.574743   21.815776 H          1 MOL1         0.0833
      23    H15     19.972532   20.959417   20.396590 H          1 MOL1         0.0833
      24    O1      20.501933   19.376880   25.642145 O.3        1 MOL1        -0.5508
      25    H16     20.452497   20.316996   25.913791 H          1 MOL1         0.3780
@<TRIPOS>BOND
    1     1     2    1
    2     1     3    1
    3     1     4    1
    4     4     5    1
    5     4     6    1
    6     4     7    1
    7     7     8    1
    8     7     9    1
    9     7    10    1
   10    10    11    1
   11    10    12    1
   12    10    13    1
   13    13    14    1
   14    13    15    1
   15    15    16    1
   16    15    17    1
   17    15    18    1
   18    18    19    1
   19    18    20    1
   20     1    21    1
   21    18    21    1
   22    21    22    1
   23    21    23    1
   24    13    24    1
   25    24    25    1
@<TRIPOS>SUBSTRUCTURE
       1 MOL1            1 RESIDUE      1      MOL     
@<SCITEGIC>MOL_PROPERTY
VM2 Rank
SciTegic.value.IntegerValue
96

@<SCITEGIC>MOL_PROPERTY
Conf_Id
SciTegic.value.IntegerValue
715

@<SCITEGIC>MOL_PROPERTY
Probability
SciTegic.value.DoubleValue
0.00

@<SCITEGIC>MOL_PROPERTY
Sum Probability
SciTegic.value.DoubleValue
99.97

@<SCITEGIC>MOL_PROPERTY
Delta G
SciTegic.value.DoubleValue
4.183

@<SCITEGIC>MOL_PROPERTY
G
SciTegic.value.DoubleValue
66.258

@<SCITEGIC>MOL_PROPERTY
E
SciTegic.value.DoubleValue
33.597

@<SCITEGIC>MOL_PROPERTY
-TS
SciTegic.value.DoubleValue
32.661

@<SCITEGIC>MOL_PROPERTY
U+W
SciTegic.value.DoubleValue
13.030

@<SCITEGIC>MOL_PROPERTY
U
SciTegic.value.DoubleValue
15.076

@<SCITEGIC>MOL_PROPERTY
W
SciTegic.value.DoubleValue
-2.046

@<SCITEGIC>MOL_PROPERTY
W(PB)
SciTegic.value.DoubleValue
-4.188

@<SCITEGIC>MOL_PROPERTY
W(SA)
SciTegic.value.DoubleValue
2.142

@<SCITEGIC>MOL_PROPERTY
Valence
SciTegic.value.DoubleValue
18.884

@<SCITEGIC>MOL_PROPERTY
Coulomb
SciTegic.value.DoubleValue
-8.074

@<SCITEGIC>MOL_PROPERTY
VdW
SciTegic.value.DoubleValue
4.266

@<SCITEGIC>MOL_PROPERTY
VdW6
SciTegic.value.DoubleValue
-13.486

@<SCITEGIC>MOL_PROPERTY
VdW12
SciTegic.value.DoubleValue
17.752

@<SCITEGIC>MOL_PROPERTY
Bond
SciTegic.value.DoubleValue
0.713

@<SCITEGIC>MOL_PROPERTY
Angle
SciTegic.value.DoubleValue
8.957

@<SCITEGIC>MOL_PROPERTY
Pdih
SciTegic.value.DoubleValue
9.214

@<SCITEGIC>MOL_PROPERTY
Idih
SciTegic.value.DoubleValue
0.000

@<SCITEGIC>MOL_PROPERTY
Tether
SciTegic.value.DoubleValue
0.000

@<TRIPOS>MOLECULE
guest-s17_vm2.mol2 : vm2 ligand conformer 97
          25          25           1
SMALL
USER_CHARGES
 
@<TRIPOS>ATOM
       1    C1      21.327688   19.720490   21.251960 C.3        1 MOL1        -0.1684
       2    H1      21.894735   19.959246   20.341821 H          1 MOL1         0.0833
       3    H2      21.900251   20.213004   22.044317 H          1 MOL1         0.0833
       4    C2      21.363845   18.172794   21.417922 C.3        1 MOL1        -0.1684
       5    H3      21.340773   17.734575   20.410761 H          1 MOL1         0.0833
       6    H4      22.335259   17.882254   21.840310 H          1 MOL1         0.0833
       7    C3      20.228805   17.495685   22.230145 C.3        1 MOL1        -0.1684
       8    H5      20.356399   16.408546   22.137040 H          1 MOL1         0.0833
       9    H6      19.269841   17.683769   21.737159 H          1 MOL1         0.0833
      10    C4      20.143506   17.819211   23.751517 C.3        1 MOL1        -0.1760
      11    H7      19.130368   17.589598   24.106766 H          1 MOL1         0.0833
      12    H8      20.806375   17.112527   24.267720 H          1 MOL1         0.0833
      13    C5      20.534559   19.243112   24.221914 C.3        1 MOL1         0.1219
      14    H9      21.562660   19.436670   23.898870 H          1 MOL1         0.0790
      15    C6      19.616679   20.413293   23.765006 C.3        1 MOL1        -0.1760
      16    H10     18.790503   20.495241   24.484055 H          1 MOL1         0.0833
      17    H11     20.181277   21.349851   23.856525 H          1 MOL1         0.0833
      18    C7      18.978392   20.345671   22.351133 C.3        1 MOL1        -0.1684
      19    H12     18.288936   21.195728   22.257511 H          1 MOL1         0.0833
      20    H13     18.318818   19.474060   22.293481 H          1 MOL1         0.0833
      21    C8      19.937036   20.396848   21.125619 C.3        1 MOL1        -0.1684
      22    H14     20.115995   21.455370   20.892439 H          1 MOL1         0.0833
      23    H15     19.415298   19.988839   20.249399 H          1 MOL1         0.0833
      24    O1      20.533490   19.235897   25.644785 O.3        1 MOL1        -0.5508
      25    H16     21.163365   18.539497   25.924678 H          1 MOL1         0.3780
@<TRIPOS>BOND
    1     1     2    1
    2     1     3    1
    3     1     4    1
    4     4     5    1
    5     4     6    1
    6     4     7    1
    7     7     8    1
    8     7     9    1
    9     7    10    1
   10    10    11    1
   11    10    12    1
   12    10    13    1
   13    13    14    1
   14    13    15    1
   15    15    16    1
   16    15    17    1
   17    15    18    1
   18    18    19    1
   19    18    20    1
   20     1    21    1
   21    18    21    1
   22    21    22    1
   23    21    23    1
   24    13    24    1
   25    24    25    1
@<TRIPOS>SUBSTRUCTURE
       1 MOL1            1 RESIDUE      1      MOL     
@<SCITEGIC>MOL_PROPERTY
VM2 Rank
SciTegic.value.IntegerValue
97

@<SCITEGIC>MOL_PROPERTY
Conf_Id
SciTegic.value.IntegerValue
330

@<SCITEGIC>MOL_PROPERTY
Probability
SciTegic.value.DoubleValue
0.00

@<SCITEGIC>MOL_PROPERTY
Sum Probability
SciTegic.value.DoubleValue
99.97

@<SCITEGIC>MOL_PROPERTY
Delta G
SciTegic.value.DoubleValue
4.186

@<SCITEGIC>MOL_PROPERTY
G
SciTegic.value.DoubleValue
66.261

@<SCITEGIC>MOL_PROPERTY
E
SciTegic.value.DoubleValue
33.601

@<SCITEGIC>MOL_PROPERTY
-TS
SciTegic.value.DoubleValue
32.661

@<SCITEGIC>MOL_PROPERTY
U+W
SciTegic.value.DoubleValue
13.033

@<SCITEGIC>MOL_PROPERTY
U
SciTegic.value.DoubleValue
15.076

@<SCITEGIC>MOL_PROPERTY
W
SciTegic.value.DoubleValue
-2.043

@<SCITEGIC>MOL_PROPERTY
W(PB)
SciTegic.value.DoubleValue
-4.186

@<SCITEGIC>MOL_PROPERTY
W(SA)
SciTegic.value.DoubleValue
2.143

@<SCITEGIC>MOL_PROPERTY
Valence
SciTegic.value.DoubleValue
18.884

@<SCITEGIC>MOL_PROPERTY
Coulomb
SciTegic.value.DoubleValue
-8.074

@<SCITEGIC>MOL_PROPERTY
VdW
SciTegic.value.DoubleValue
4.265

@<SCITEGIC>MOL_PROPERTY
VdW6
SciTegic.value.DoubleValue
-13.486

@<SCITEGIC>MOL_PROPERTY
VdW12
SciTegic.value.DoubleValue
17.751

@<SCITEGIC>MOL_PROPERTY
Bond
SciTegic.value.DoubleValue
0.713

@<SCITEGIC>MOL_PROPERTY
Angle
SciTegic.value.DoubleValue
8.958

@<SCITEGIC>MOL_PROPERTY
Pdih
SciTegic.value.DoubleValue
9.213

@<SCITEGIC>MOL_PROPERTY
Idih
SciTegic.value.DoubleValue
0.000

@<SCITEGIC>MOL_PROPERTY
Tether
SciTegic.value.DoubleValue
0.000

@<TRIPOS>MOLECULE
guest-s17_vm2.mol2 : vm2 ligand conformer 98
          25          25           1
SMALL
USER_CHARGES
 
@<TRIPOS>ATOM
       1    C1      21.378764   19.559001   21.242990 C.3        1 MOL1        -0.1684
       2    H1      21.942823   19.785215   20.327810 H          1 MOL1         0.0833
       3    H2      22.135879   19.624291   22.030962 H          1 MOL1         0.0833
       4    C2      20.876529   18.095207   21.131687 C.3        1 MOL1        -0.1684
       5    H3      20.211748   18.006381   20.261843 H          1 MOL1         0.0833
       6    H4      21.751242   17.473900   20.895603 H          1 MOL1         0.0833
       7    C3      20.175302   17.461220   22.368529 C.3        1 MOL1        -0.1684
       8    H5      20.292618   16.372321   22.282849 H          1 MOL1         0.0833
       9    H6      19.091518   17.606615   22.318652 H          1 MOL1         0.0833
      10    C4      20.686209   17.879154   23.773803 C.3        1 MOL1        -0.1760
      11    H7      20.178017   17.232136   24.500967 H          1 MOL1         0.0833
      12    H8      21.752172   17.629636   23.852446 H          1 MOL1         0.0833
      13    C5      20.497800   19.358252   24.219376 C.3        1 MOL1         0.1219
      14    H9      21.355401   19.952755   23.888099 H          1 MOL1         0.0790
      15    C6      19.208495   20.078157   23.749562 C.3        1 MOL1        -0.1760
      16    H10     18.331133   19.526996   24.111842 H          1 MOL1         0.0833
      17    H11     19.181300   21.049952   24.260492 H          1 MOL1         0.0833
      18    C7      19.031578   20.355362   22.226924 C.3        1 MOL1        -0.1684
      19    H12     18.349825   21.211396   22.130917 H          1 MOL1         0.0833
      20    H13     18.487106   19.538541   21.742646 H          1 MOL1         0.0833
      21    C8      20.307842   20.677259   21.406076 C.3        1 MOL1        -0.1684
      22    H14     20.788860   21.573672   21.820301 H          1 MOL1         0.0833
      23    H15     19.976003   20.963036   20.398535 H          1 MOL1         0.0833
      24    O1      20.501483   19.379389   25.641053 O.3        1 MOL1        -0.5508
      25    H16     19.710096   18.879255   25.927707 H          1 MOL1         0.3780
@<TRIPOS>BOND
    1     1     2    1
    2     1     3    1
    3     1     4    1
    4     4     5    1
    5     4     6    1
    6     4     7    1
    7     7     8    1
    8     7     9    1
    9     7    10    1
   10    10    11    1
   11    10    12    1
   12    10    13    1
   13    13    14    1
   14    13    15    1
   15    15    16    1
   16    15    17    1
   17    15    18    1
   18    18    19    1
   19    18    20    1
   20     1    21    1
   21    18    21    1
   22    21    22    1
   23    21    23    1
   24    13    24    1
   25    24    25    1
@<TRIPOS>SUBSTRUCTURE
       1 MOL1            1 RESIDUE      1      MOL     
@<SCITEGIC>MOL_PROPERTY
VM2 Rank
SciTegic.value.IntegerValue
98

@<SCITEGIC>MOL_PROPERTY
Conf_Id
SciTegic.value.IntegerValue
1261

@<SCITEGIC>MOL_PROPERTY
Probability
SciTegic.value.DoubleValue
0.00

@<SCITEGIC>MOL_PROPERTY
Sum Probability
SciTegic.value.DoubleValue
99.98

@<SCITEGIC>MOL_PROPERTY
Delta G
SciTegic.value.DoubleValue
4.200

@<SCITEGIC>MOL_PROPERTY
G
SciTegic.value.DoubleValue
66.276

@<SCITEGIC>MOL_PROPERTY
E
SciTegic.value.DoubleValue
33.617

@<SCITEGIC>MOL_PROPERTY
-TS
SciTegic.value.DoubleValue
32.659

@<SCITEGIC>MOL_PROPERTY
U+W
SciTegic.value.DoubleValue
13.049

@<SCITEGIC>MOL_PROPERTY
U
SciTegic.value.DoubleValue
15.005

@<SCITEGIC>MOL_PROPERTY
W
SciTegic.value.DoubleValue
-1.955

@<SCITEGIC>MOL_PROPERTY
W(PB)
SciTegic.value.DoubleValue
-4.087

@<SCITEGIC>MOL_PROPERTY
W(SA)
SciTegic.value.DoubleValue
2.131

@<SCITEGIC>MOL_PROPERTY
Valence
SciTegic.value.DoubleValue
19.235

@<SCITEGIC>MOL_PROPERTY
Coulomb
SciTegic.value.DoubleValue
-8.450

@<SCITEGIC>MOL_PROPERTY
VdW
SciTegic.value.DoubleValue
4.220

@<SCITEGIC>MOL_PROPERTY
VdW6
SciTegic.value.DoubleValue
-13.530

@<SCITEGIC>MOL_PROPERTY
VdW12
SciTegic.value.DoubleValue
17.749

@<SCITEGIC>MOL_PROPERTY
Bond
SciTegic.value.DoubleValue
0.710

@<SCITEGIC>MOL_PROPERTY
Angle
SciTegic.value.DoubleValue
8.936

@<SCITEGIC>MOL_PROPERTY
Pdih
SciTegic.value.DoubleValue
9.589

@<SCITEGIC>MOL_PROPERTY
Idih
SciTegic.value.DoubleValue
0.000

@<SCITEGIC>MOL_PROPERTY
Tether
SciTegic.value.DoubleValue
0.000

@<TRIPOS>MOLECULE
guest-s17_vm2.mol2 : vm2 ligand conformer 99
          25          25           1
SMALL
USER_CHARGES
 
@<TRIPOS>ATOM
       1    C1      21.327136   19.721102   21.252897 C.3        1 MOL1        -0.1684
       2    H1      21.894684   19.960588   20.343266 H          1 MOL1         0.0833
       3    H2      21.897919   20.214601   22.046026 H          1 MOL1         0.0833
       4    C2      21.365845   18.173637   21.419698 C.3        1 MOL1        -0.1684
       5    H3      21.346116   17.734632   20.412816 H          1 MOL1         0.0833
       6    H4      22.336631   17.885220   21.845035 H          1 MOL1         0.0833
       7    C3      20.230054   17.495421   22.229795 C.3        1 MOL1        -0.1684
       8    H5      20.359222   16.408409   22.137477 H          1 MOL1         0.0833
       9    H6      19.271886   17.682604   21.734772 H          1 MOL1         0.0833
      10    C4      20.141296   17.819435   23.750883 C.3        1 MOL1        -0.1760
      11    H7      19.128385   17.584969   24.102774 H          1 MOL1         0.0833
      12    H8      20.806869   17.117159   24.270496 H          1 MOL1         0.0833
      13    C5      20.532439   19.242959   24.221931 C.3        1 MOL1         0.1219
      14    H9      21.561904   19.432927   23.901344 H          1 MOL1         0.0790
      15    C6      19.619370   20.416996   23.763990 C.3        1 MOL1        -0.1760
      16    H10     18.794324   20.513073   24.482129 H          1 MOL1         0.0833
      17    H11     20.191656   21.349927   23.846767 H          1 MOL1         0.0833
      18    C7      18.978009   20.345279   22.351898 C.3        1 MOL1        -0.1684
      19    H12     18.288120   21.194897   22.256990 H          1 MOL1         0.0833
      20    H13     18.318968   19.473015   22.296800 H          1 MOL1         0.0833
      21    C8      19.935163   20.394468   21.125168 C.3        1 MOL1        -0.1684
      22    H14     20.112096   21.452610   20.888712 H          1 MOL1         0.0833
      23    H15     19.413513   19.982935   20.250540 H          1 MOL1         0.0833
      24    O1      20.534687   19.233703   25.643739 O.3        1 MOL1        -0.5508
      25    H16     19.619315   19.024315   25.920958 H          1 MOL1         0.3780
@<TRIPOS>BOND
    1     1     2    1
    2     1     3    1
    3     1     4    1
    4     4     5    1
    5     4     6    1
    6     4     7    1
    7     7     8    1
    8     7     9    1
    9     7    10    1
   10    10    11    1
   11    10    12    1
   12    10    13    1
   13    13    14    1
   14    13    15    1
   15    15    16    1
   16    15    17    1
   17    15    18    1
   18    18    19    1
   19    18    20    1
   20     1    21    1
   21    18    21    1
   22    21    22    1
   23    21    23    1
   24    13    24    1
   25    24    25    1
@<TRIPOS>SUBSTRUCTURE
       1 MOL1            1 RESIDUE      1      MOL     
@<SCITEGIC>MOL_PROPERTY
VM2 Rank
SciTegic.value.IntegerValue
99

@<SCITEGIC>MOL_PROPERTY
Conf_Id
SciTegic.value.IntegerValue
786

@<SCITEGIC>MOL_PROPERTY
Probability
SciTegic.value.DoubleValue
0.00

@<SCITEGIC>MOL_PROPERTY
Sum Probability
SciTegic.value.DoubleValue
99.98

@<SCITEGIC>MOL_PROPERTY
Delta G
SciTegic.value.DoubleValue
4.251

@<SCITEGIC>MOL_PROPERTY
G
SciTegic.value.DoubleValue
66.327

@<SCITEGIC>MOL_PROPERTY
E
SciTegic.value.DoubleValue
33.668

@<SCITEGIC>MOL_PROPERTY
-TS
SciTegic.value.DoubleValue
32.659

@<SCITEGIC>MOL_PROPERTY
U+W
SciTegic.value.DoubleValue
13.101

@<SCITEGIC>MOL_PROPERTY
U
SciTegic.value.DoubleValue
15.005

@<SCITEGIC>MOL_PROPERTY
W
SciTegic.value.DoubleValue
-1.904

@<SCITEGIC>MOL_PROPERTY
W(PB)
SciTegic.value.DoubleValue
-4.035

@<SCITEGIC>MOL_PROPERTY
W(SA)
SciTegic.value.DoubleValue
2.131

@<SCITEGIC>MOL_PROPERTY
Valence
SciTegic.value.DoubleValue
19.235

@<SCITEGIC>MOL_PROPERTY
Coulomb
SciTegic.value.DoubleValue
-8.450

@<SCITEGIC>MOL_PROPERTY
VdW
SciTegic.value.DoubleValue
4.220

@<SCITEGIC>MOL_PROPERTY
VdW6
SciTegic.value.DoubleValue
-13.530

@<SCITEGIC>MOL_PROPERTY
VdW12
SciTegic.value.DoubleValue
17.749

@<SCITEGIC>MOL_PROPERTY
Bond
SciTegic.value.DoubleValue
0.710

@<SCITEGIC>MOL_PROPERTY
Angle
SciTegic.value.DoubleValue
8.935

@<SCITEGIC>MOL_PROPERTY
Pdih
SciTegic.value.DoubleValue
9.590

@<SCITEGIC>MOL_PROPERTY
Idih
SciTegic.value.DoubleValue
0.000

@<SCITEGIC>MOL_PROPERTY
Tether
SciTegic.value.DoubleValue
0.000

@<TRIPOS>MOLECULE
guest-s17_vm2.mol2 : vm2 ligand conformer 100
          25          25           1
SMALL
USER_CHARGES
 
@<TRIPOS>ATOM
       1    C1      20.721528   19.500527   20.722500 C.3        1 MOL1        -0.1684
       2    H1      20.497021   19.037096   19.752132 H          1 MOL1         0.0833
       3    H2      21.322616   20.389777   20.489549 H          1 MOL1         0.0833
       4    C2      21.597738   18.495162   21.525886 C.3        1 MOL1        -0.1684
       5    H3      22.236199   17.973308   20.799997 H          1 MOL1         0.0833
       6    H4      22.314541   19.024615   22.161378 H          1 MOL1         0.0833
       7    C3      20.864875   17.415518   22.364917 C.3        1 MOL1        -0.1684
       8    H5      21.633950   16.731372   22.748720 H          1 MOL1         0.0833
       9    H6      20.236833   16.806598   21.700762 H          1 MOL1         0.0833
      10    C4      20.008037   17.882680   23.579783 C.3        1 MOL1        -0.1760
      11    H7      18.969119   18.050772   23.281598 H          1 MOL1         0.0833
      12    H8      19.944412   17.032472   24.271682 H          1 MOL1         0.0833
      13    C5      20.506120   19.105802   24.389983 C.3        1 MOL1         0.1219
      14    H9      21.527994   18.889974   24.733436 H          1 MOL1         0.0790
      15    C6      20.528628   20.487881   23.673280 C.3        1 MOL1        -0.1760
      16    H10     20.482123   21.267217   24.445144 H          1 MOL1         0.0833
      17    H11     21.503232   20.657826   23.207424 H          1 MOL1         0.0833
      18    C7      19.409401   20.790876   22.640111 C.3        1 MOL1        -0.1684
      19    H12     19.519723   21.843691   22.346914 H          1 MOL1         0.0833
      20    H13     18.432636   20.725599   23.138499 H          1 MOL1         0.0833
      21    C8      19.366795   19.945196   21.333883 C.3        1 MOL1        -0.1684
      22    H14     18.842733   20.545646   20.577883 H          1 MOL1         0.0833
      23    H15     18.721407   19.069835   21.457813 H          1 MOL1         0.0833
      24    O1      19.660878   19.219358   25.529656 O.3        1 MOL1        -0.5508
      25    H16     20.008731   19.960460   26.067251 H          1 MOL1         0.3780
@<TRIPOS>BOND
    1     1     2    1
    2     1     3    1
    3     1     4    1
    4     4     5    1
    5     4     6    1
    6     4     7    1
    7     7     8    1
    8     7     9    1
    9     7    10    1
   10    10    11    1
   11    10    12    1
   12    10    13    1
   13    13    14    1
   14    13    15    1
   15    15    16    1
   16    15    17    1
   17    15    18    1
   18    18    19    1
   19    18    20    1
   20     1    21    1
   21    18    21    1
   22    21    22    1
   23    21    23    1
   24    13    24    1
   25    24    25    1
@<TRIPOS>SUBSTRUCTURE
       1 MOL1            1 RESIDUE      1      MOL     
@<SCITEGIC>MOL_PROPERTY
VM2 Rank
SciTegic.value.IntegerValue
100

@<SCITEGIC>MOL_PROPERTY
Conf_Id
SciTegic.value.IntegerValue
1061

@<SCITEGIC>MOL_PROPERTY
Probability
SciTegic.value.DoubleValue
0.00

@<SCITEGIC>MOL_PROPERTY
Sum Probability
SciTegic.value.DoubleValue
99.98

@<SCITEGIC>MOL_PROPERTY
Delta G
SciTegic.value.DoubleValue
4.583

@<SCITEGIC>MOL_PROPERTY
G
SciTegic.value.DoubleValue
66.658

@<SCITEGIC>MOL_PROPERTY
E
SciTegic.value.DoubleValue
33.998

@<SCITEGIC>MOL_PROPERTY
-TS
SciTegic.value.DoubleValue
32.661

@<SCITEGIC>MOL_PROPERTY
U+W
SciTegic.value.DoubleValue
13.430

@<SCITEGIC>MOL_PROPERTY
U
SciTegic.value.DoubleValue
15.643

@<SCITEGIC>MOL_PROPERTY
W
SciTegic.value.DoubleValue
-2.213

@<SCITEGIC>MOL_PROPERTY
W(PB)
SciTegic.value.DoubleValue
-4.344

@<SCITEGIC>MOL_PROPERTY
W(SA)
SciTegic.value.DoubleValue
2.131

@<SCITEGIC>MOL_PROPERTY
Valence
SciTegic.value.DoubleValue
18.916

@<SCITEGIC>MOL_PROPERTY
Coulomb
SciTegic.value.DoubleValue
-7.506

@<SCITEGIC>MOL_PROPERTY
VdW
SciTegic.value.DoubleValue
4.232

@<SCITEGIC>MOL_PROPERTY
VdW6
SciTegic.value.DoubleValue
-13.632

@<SCITEGIC>MOL_PROPERTY
VdW12
SciTegic.value.DoubleValue
17.864

@<SCITEGIC>MOL_PROPERTY
Bond
SciTegic.value.DoubleValue
0.735

@<SCITEGIC>MOL_PROPERTY
Angle
SciTegic.value.DoubleValue
9.140

@<SCITEGIC>MOL_PROPERTY
Pdih
SciTegic.value.DoubleValue
9.042

@<SCITEGIC>MOL_PROPERTY
Idih
SciTegic.value.DoubleValue
0.000

@<SCITEGIC>MOL_PROPERTY
Tether
SciTegic.value.DoubleValue
0.000

@<TRIPOS>MOLECULE
guest-s17_vm2.mol2 : vm2 ligand conformer 101
          25          25           1
SMALL
USER_CHARGES
 
@<TRIPOS>ATOM
       1    C1      20.795536   19.287818   20.719675 C.3        1 MOL1        -0.1684
       2    H1      20.299400   19.420908   19.748634 H          1 MOL1         0.0833
       3    H2      21.856706   19.127509   20.486099 H          1 MOL1         0.0833
       4    C2      20.210705   17.997270   21.351560 C.3        1 MOL1        -0.1684
       5    H3      19.129570   18.113929   21.476782 H          1 MOL1         0.0833
       6    H4      20.297806   17.194353   20.606944 H          1 MOL1         0.0833
       7    C3      20.866954   17.476866   22.663709 C.3        1 MOL1        -0.1684
       8    H5      21.717301   16.843244   22.377375 H          1 MOL1         0.0833
       9    H6      20.160757   16.807728   23.173866 H          1 MOL1         0.0833
      10    C4      21.401873   18.522039   23.680263 C.3        1 MOL1        -0.1760
      11    H7      21.947559   17.972901   24.458706 H          1 MOL1         0.0833
      12    H8      22.183899   19.119420   23.203476 H          1 MOL1         0.0833
      13    C5      20.369058   19.448852   24.386392 C.3        1 MOL1         0.1219
      14    H9      20.900643   20.353311   24.715238 H          1 MOL1         0.0790
      15    C6      19.128236   19.895321   23.573024 C.3        1 MOL1        -0.1760
      16    H10     18.550048   19.011175   23.289294 H          1 MOL1         0.0833
      17    H11     18.459979   20.432414   24.259020 H          1 MOL1         0.0833
      18    C7      19.358683   20.824993   22.343833 C.3        1 MOL1        -0.1684
      19    H12     19.374221   21.859713   22.712547 H          1 MOL1         0.0833
      20    H13     18.483643   20.763099   21.682928 H          1 MOL1         0.0833
      21    C8      20.647594   20.624522   21.504064 C.3        1 MOL1        -0.1684
      22    H14     21.523855   20.805118   22.134564 H          1 MOL1         0.0833
      23    H15     20.691613   21.437159   20.766120 H          1 MOL1         0.0833
      24    O1      19.885361   18.765319   25.537480 O.3        1 MOL1        -0.5508
      25    H16     20.668421   18.529320   26.076333 H          1 MOL1         0.3780
@<TRIPOS>BOND
    1     1     2    1
    2     1     3    1
    3     1     4    1
    4     4     5    1
    5     4     6    1
    6     4     7    1
    7     7     8    1
    8     7     9    1
    9     7    10    1
   10    10    11    1
   11    10    12    1
   12    10    13    1
   13    13    14    1
   14    13    15    1
   15    15    16    1
   16    15    17    1
   17    15    18    1
   18    18    19    1
   19    18    20    1
   20     1    21    1
   21    18    21    1
   22    21    22    1
   23    21    23    1
   24    13    24    1
   25    24    25    1
@<TRIPOS>SUBSTRUCTURE
       1 MOL1            1 RESIDUE      1      MOL     
@<SCITEGIC>MOL_PROPERTY
VM2 Rank
SciTegic.value.IntegerValue
101

@<SCITEGIC>MOL_PROPERTY
Conf_Id
SciTegic.value.IntegerValue
144

@<SCITEGIC>MOL_PROPERTY
Probability
SciTegic.value.DoubleValue
0.00

@<SCITEGIC>MOL_PROPERTY
Sum Probability
SciTegic.value.DoubleValue
99.99

@<SCITEGIC>MOL_PROPERTY
Delta G
SciTegic.value.DoubleValue
4.618

@<SCITEGIC>MOL_PROPERTY
G
SciTegic.value.DoubleValue
66.694

@<SCITEGIC>MOL_PROPERTY
E
SciTegic.value.DoubleValue
34.034

@<SCITEGIC>MOL_PROPERTY
-TS
SciTegic.value.DoubleValue
32.660

@<SCITEGIC>MOL_PROPERTY
U+W
SciTegic.value.DoubleValue
13.466

@<SCITEGIC>MOL_PROPERTY
U
SciTegic.value.DoubleValue
15.643

@<SCITEGIC>MOL_PROPERTY
W
SciTegic.value.DoubleValue
-2.176

@<SCITEGIC>MOL_PROPERTY
W(PB)
SciTegic.value.DoubleValue
-4.307

@<SCITEGIC>MOL_PROPERTY
W(SA)
SciTegic.value.DoubleValue
2.131

@<SCITEGIC>MOL_PROPERTY
Valence
SciTegic.value.DoubleValue
18.916

@<SCITEGIC>MOL_PROPERTY
Coulomb
SciTegic.value.DoubleValue
-7.506

@<SCITEGIC>MOL_PROPERTY
VdW
SciTegic.value.DoubleValue
4.232

@<SCITEGIC>MOL_PROPERTY
VdW6
SciTegic.value.DoubleValue
-13.632

@<SCITEGIC>MOL_PROPERTY
VdW12
SciTegic.value.DoubleValue
17.864

@<SCITEGIC>MOL_PROPERTY
Bond
SciTegic.value.DoubleValue
0.735

@<SCITEGIC>MOL_PROPERTY
Angle
SciTegic.value.DoubleValue
9.140

@<SCITEGIC>MOL_PROPERTY
Pdih
SciTegic.value.DoubleValue
9.042

@<SCITEGIC>MOL_PROPERTY
Idih
SciTegic.value.DoubleValue
0.000

@<SCITEGIC>MOL_PROPERTY
Tether
SciTegic.value.DoubleValue
0.000

@<TRIPOS>MOLECULE
guest-s17_vm2.mol2 : vm2 ligand conformer 102
          25          25           1
SMALL
USER_CHARGES
 
@<TRIPOS>ATOM
       1    C1      20.355195   19.349349   20.666000 C.3        1 MOL1        -0.1684
       2    H1      21.075183   19.276192   19.839534 H          1 MOL1         0.0833
       3    H2      19.393210   19.592534   20.195057 H          1 MOL1         0.0833
       4    C2      20.254913   17.940805   21.321305 C.3        1 MOL1        -0.1684
       5    H3      19.242231   17.756001   21.693369 H          1 MOL1         0.0833
       6    H4      20.370882   17.202289   20.516302 H          1 MOL1         0.0833
       7    C3      21.283064   17.590795   22.429071 C.3        1 MOL1        -0.1684
       8    H5      22.298269   17.665969   22.016637 H          1 MOL1         0.0833
       9    H6      21.143616   16.528272   22.670928 H          1 MOL1         0.0833
      10    C4      21.222205   18.386158   23.767688 C.3        1 MOL1        -0.1760
      11    H7      21.680419   17.748377   24.534800 H          1 MOL1         0.0833
      12    H8      21.879546   19.259918   23.729856 H          1 MOL1         0.0833
      13    C5      19.827533   18.823650   24.283075 C.3        1 MOL1         0.1219
      14    H9      19.197332   17.926271   24.362629 H          1 MOL1         0.0790
      15    C6      19.044608   19.875437   23.444074 C.3        1 MOL1        -0.1760
      16    H10     18.383716   19.376482   22.729929 H          1 MOL1         0.0833
      17    H11     18.345403   20.382008   24.122767 H          1 MOL1         0.0833
      18    C7      19.857960   20.975245   22.708252 C.3        1 MOL1        -0.1684
      19    H12     20.435498   21.548369   23.446266 H          1 MOL1         0.0833
      20    H13     19.131657   21.684563   22.288962 H          1 MOL1         0.0833
      21    C8      20.805728   20.539818   21.552686 C.3        1 MOL1        -0.1684
      22    H14     20.936764   21.411352   20.896968 H          1 MOL1         0.0833
      23    H15     21.815637   20.348298   21.929018 H          1 MOL1         0.0833
      24    O1      20.012792   19.361743   25.587851 O.3        1 MOL1        -0.5508
      25    H16     20.445458   18.664388   26.122581 H          1 MOL1         0.3780
@<TRIPOS>BOND
    1     1     2    1
    2     1     3    1
    3     1     4    1
    4     4     5    1
    5     4     6    1
    6     4     7    1
    7     7     8    1
    8     7     9    1
    9     7    10    1
   10    10    11    1
   11    10    12    1
   12    10    13    1
   13    13    14    1
   14    13    15    1
   15    15    16    1
   16    15    17    1
   17    15    18    1
   18    18    19    1
   19    18    20    1
   20     1    21    1
   21    18    21    1
   22    21    22    1
   23    21    23    1
   24    13    24    1
   25    24    25    1
@<TRIPOS>SUBSTRUCTURE
       1 MOL1            1 RESIDUE      1      MOL     
@<SCITEGIC>MOL_PROPERTY
VM2 Rank
SciTegic.value.IntegerValue
102

@<SCITEGIC>MOL_PROPERTY
Conf_Id
SciTegic.value.IntegerValue
303

@<SCITEGIC>MOL_PROPERTY
Probability
SciTegic.value.DoubleValue
0.00

@<SCITEGIC>MOL_PROPERTY
Sum Probability
SciTegic.value.DoubleValue
99.99

@<SCITEGIC>MOL_PROPERTY
Delta G
SciTegic.value.DoubleValue
4.693

@<SCITEGIC>MOL_PROPERTY
G
SciTegic.value.DoubleValue
66.768

@<SCITEGIC>MOL_PROPERTY
E
SciTegic.value.DoubleValue
34.080

@<SCITEGIC>MOL_PROPERTY
-TS
SciTegic.value.DoubleValue
32.688

@<SCITEGIC>MOL_PROPERTY
U+W
SciTegic.value.DoubleValue
13.512

@<SCITEGIC>MOL_PROPERTY
U
SciTegic.value.DoubleValue
15.675

@<SCITEGIC>MOL_PROPERTY
W
SciTegic.value.DoubleValue
-2.162

@<SCITEGIC>MOL_PROPERTY
W(PB)
SciTegic.value.DoubleValue
-4.285

@<SCITEGIC>MOL_PROPERTY
W(SA)
SciTegic.value.DoubleValue
2.122

@<SCITEGIC>MOL_PROPERTY
Valence
SciTegic.value.DoubleValue
18.885

@<SCITEGIC>MOL_PROPERTY
Coulomb
SciTegic.value.DoubleValue
-7.469

@<SCITEGIC>MOL_PROPERTY
VdW
SciTegic.value.DoubleValue
4.260

@<SCITEGIC>MOL_PROPERTY
VdW6
SciTegic.value.DoubleValue
-13.645

@<SCITEGIC>MOL_PROPERTY
VdW12
SciTegic.value.DoubleValue
17.905

@<SCITEGIC>MOL_PROPERTY
Bond
SciTegic.value.DoubleValue
0.733

@<SCITEGIC>MOL_PROPERTY
Angle
SciTegic.value.DoubleValue
9.054

@<SCITEGIC>MOL_PROPERTY
Pdih
SciTegic.value.DoubleValue
9.097

@<SCITEGIC>MOL_PROPERTY
Idih
SciTegic.value.DoubleValue
0.000

@<SCITEGIC>MOL_PROPERTY
Tether
SciTegic.value.DoubleValue
0.000

@<TRIPOS>MOLECULE
guest-s17_vm2.mol2 : vm2 ligand conformer 103
          25          25           1
SMALL
USER_CHARGES
 
@<TRIPOS>ATOM
       1    C1      20.171224   19.142979   20.649052 C.3        1 MOL1        -0.1684
       2    H1      19.187736   19.073814   20.164684 H          1 MOL1         0.0833
       3    H2      20.911076   19.041516   19.843495 H          1 MOL1         0.0833
       4    C2      20.315364   17.946590   21.618449 C.3        1 MOL1        -0.1684
       5    H3      19.400638   17.850451   22.214327 H          1 MOL1         0.0833
       6    H4      20.364840   17.023145   21.025911 H          1 MOL1         0.0833
       7    C3      21.561431   18.023433   22.533912 C.3        1 MOL1        -0.1684
       8    H5      22.190068   18.884240   22.278713 H          1 MOL1         0.0833
       9    H6      22.192738   17.146629   22.336339 H          1 MOL1         0.0833
      10    C4      21.233860   18.049640   24.048833 C.3        1 MOL1        -0.1760
      11    H7      20.845076   17.066370   24.345146 H          1 MOL1         0.0833
      12    H8      22.182566   18.162460   24.589096 H          1 MOL1         0.0833
      13    C5      20.258578   19.140990   24.571199 C.3        1 MOL1         0.1219
      14    H9      20.538526   19.292929   25.623772 H          1 MOL1         0.0790
      15    C6      20.348069   20.539920   23.902180 C.3        1 MOL1        -0.1760
      16    H10     19.977308   21.257908   24.645305 H          1 MOL1         0.0833
      17    H11     21.401346   20.810573   23.755650 H          1 MOL1         0.0833
      18    C7      19.535788   20.785655   22.592407 C.3        1 MOL1        -0.1684
      19    H12     19.241294   21.843972   22.599075 H          1 MOL1         0.0833
      20    H13     18.590631   20.227805   22.582251 H          1 MOL1         0.0833
      21    C8      20.321324   20.553034   21.276959 C.3        1 MOL1        -0.1684
      22    H14     21.381204   20.796641   21.424231 H          1 MOL1         0.0833
      23    H15     19.966564   21.278684   20.532323 H          1 MOL1         0.0833
      24    O1      18.918363   18.660760   24.567010 O.3        1 MOL1        -0.5508
      25    H16     18.354719   19.413700   24.837071 H          1 MOL1         0.3780
@<TRIPOS>BOND
    1     1     2    1
    2     1     3    1
    3     1     4    1
    4     4     5    1
    5     4     6    1
    6     4     7    1
    7     7     8    1
    8     7     9    1
    9     7    10    1
   10    10    11    1
   11    10    12    1
   12    10    13    1
   13    13    14    1
   14    13    15    1
   15    15    16    1
   16    15    17    1
   17    15    18    1
   18    18    19    1
   19    18    20    1
   20     1    21    1
   21    18    21    1
   22    21    22    1
   23    21    23    1
   24    13    24    1
   25    24    25    1
@<TRIPOS>SUBSTRUCTURE
       1 MOL1            1 RESIDUE      1      MOL     
@<SCITEGIC>MOL_PROPERTY
VM2 Rank
SciTegic.value.IntegerValue
103

@<SCITEGIC>MOL_PROPERTY
Conf_Id
SciTegic.value.IntegerValue
1190

@<SCITEGIC>MOL_PROPERTY
Probability
SciTegic.value.DoubleValue
0.00

@<SCITEGIC>MOL_PROPERTY
Sum Probability
SciTegic.value.DoubleValue
99.99

@<SCITEGIC>MOL_PROPERTY
Delta G
SciTegic.value.DoubleValue
4.701

@<SCITEGIC>MOL_PROPERTY
G
SciTegic.value.DoubleValue
66.776

@<SCITEGIC>MOL_PROPERTY
E
SciTegic.value.DoubleValue
34.262

@<SCITEGIC>MOL_PROPERTY
-TS
SciTegic.value.DoubleValue
32.514

@<SCITEGIC>MOL_PROPERTY
U+W
SciTegic.value.DoubleValue
13.694

@<SCITEGIC>MOL_PROPERTY
U
SciTegic.value.DoubleValue
15.604

@<SCITEGIC>MOL_PROPERTY
W
SciTegic.value.DoubleValue
-1.910

@<SCITEGIC>MOL_PROPERTY
W(PB)
SciTegic.value.DoubleValue
-4.058

@<SCITEGIC>MOL_PROPERTY
W(SA)
SciTegic.value.DoubleValue
2.148

@<SCITEGIC>MOL_PROPERTY
Valence
SciTegic.value.DoubleValue
19.784

@<SCITEGIC>MOL_PROPERTY
Coulomb
SciTegic.value.DoubleValue
-7.373

@<SCITEGIC>MOL_PROPERTY
VdW
SciTegic.value.DoubleValue
3.193

@<SCITEGIC>MOL_PROPERTY
VdW6
SciTegic.value.DoubleValue
-13.422

@<SCITEGIC>MOL_PROPERTY
VdW12
SciTegic.value.DoubleValue
16.615

@<SCITEGIC>MOL_PROPERTY
Bond
SciTegic.value.DoubleValue
0.544

@<SCITEGIC>MOL_PROPERTY
Angle
SciTegic.value.DoubleValue
5.995

@<SCITEGIC>MOL_PROPERTY
Pdih
SciTegic.value.DoubleValue
13.244

@<SCITEGIC>MOL_PROPERTY
Idih
SciTegic.value.DoubleValue
0.000

@<SCITEGIC>MOL_PROPERTY
Tether
SciTegic.value.DoubleValue
0.000

@<TRIPOS>MOLECULE
guest-s17_vm2.mol2 : vm2 ligand conformer 104
          25          25           1
SMALL
USER_CHARGES
 
@<TRIPOS>ATOM
       1    C1      20.726726   19.502985   20.723676 C.3        1 MOL1        -0.1684
       2    H1      20.507214   19.041283   19.751345 H          1 MOL1         0.0833
       3    H2      21.328653   20.392918   20.495541 H          1 MOL1         0.0833
       4    C2      21.598782   18.496565   21.529971 C.3        1 MOL1        -0.1684
       5    H3      22.240959   17.975657   20.806682 H          1 MOL1         0.0833
       6    H4      22.311984   19.025518   22.170018 H          1 MOL1         0.0833
       7    C3      20.860753   17.416157   22.363506 C.3        1 MOL1        -0.1684
       8    H5      21.627147   16.728246   22.746017 H          1 MOL1         0.0833
       9    H6      20.232197   16.811552   21.695850 H          1 MOL1         0.0833
      10    C4      20.003488   17.882175   23.578464 C.3        1 MOL1        -0.1760
      11    H7      18.965941   18.055036   23.277468 H          1 MOL1         0.0833
      12    H8      19.936941   17.027388   24.264099 H          1 MOL1         0.0833
      13    C5      20.506081   19.104262   24.388424 C.3        1 MOL1         0.1219
      14    H9      21.530876   18.891296   24.724896 H          1 MOL1         0.0790
      15    C6      20.523425   20.487012   23.673687 C.3        1 MOL1        -0.1760
      16    H10     20.467364   21.259560   24.452246 H          1 MOL1         0.0833
      17    H11     21.499372   20.664994   23.213700 H          1 MOL1         0.0833
      18    C7      19.405736   20.788229   22.638025 C.3        1 MOL1        -0.1684
      19    H12     19.512928   21.842236   22.348148 H          1 MOL1         0.0833
      20    H13     18.428391   20.718338   23.134609 H          1 MOL1         0.0833
      21    C8      19.369054   19.945686   21.329601 C.3        1 MOL1        -0.1684
      22    H14     18.848044   20.547571   20.572638 H          1 MOL1         0.0833
      23    H15     18.723670   19.069635   21.448916 H          1 MOL1         0.0833
      24    O1      19.669957   19.219929   25.534646 O.3        1 MOL1        -0.5508
      25    H16     19.722405   18.365325   26.010397 H          1 MOL1         0.3780
@<TRIPOS>BOND
    1     1     2    1
    2     1     3    1
    3     1     4    1
    4     4     5    1
    5     4     6    1
    6     4     7    1
    7     7     8    1
    8     7     9    1
    9     7    10    1
   10    10    11    1
   11    10    12    1
   12    10    13    1
   13    13    14    1
   14    13    15    1
   15    15    16    1
   16    15    17    1
   17    15    18    1
   18    18    19    1
   19    18    20    1
   20     1    21    1
   21    18    21    1
   22    21    22    1
   23    21    23    1
   24    13    24    1
   25    24    25    1
@<TRIPOS>SUBSTRUCTURE
       1 MOL1            1 RESIDUE      1      MOL     
@<SCITEGIC>MOL_PROPERTY
VM2 Rank
SciTegic.value.IntegerValue
104

@<SCITEGIC>MOL_PROPERTY
Conf_Id
SciTegic.value.IntegerValue
436

@<SCITEGIC>MOL_PROPERTY
Probability
SciTegic.value.DoubleValue
0.00

@<SCITEGIC>MOL_PROPERTY
Sum Probability
SciTegic.value.DoubleValue
99.99

@<SCITEGIC>MOL_PROPERTY
Delta G
SciTegic.value.DoubleValue
4.702

@<SCITEGIC>MOL_PROPERTY
G
SciTegic.value.DoubleValue
66.777

@<SCITEGIC>MOL_PROPERTY
E
SciTegic.value.DoubleValue
34.090

@<SCITEGIC>MOL_PROPERTY
-TS
SciTegic.value.DoubleValue
32.688

@<SCITEGIC>MOL_PROPERTY
U+W
SciTegic.value.DoubleValue
13.522

@<SCITEGIC>MOL_PROPERTY
U
SciTegic.value.DoubleValue
15.675

@<SCITEGIC>MOL_PROPERTY
W
SciTegic.value.DoubleValue
-2.153

@<SCITEGIC>MOL_PROPERTY
W(PB)
SciTegic.value.DoubleValue
-4.273

@<SCITEGIC>MOL_PROPERTY
W(SA)
SciTegic.value.DoubleValue
2.120

@<SCITEGIC>MOL_PROPERTY
Valence
SciTegic.value.DoubleValue
18.885

@<SCITEGIC>MOL_PROPERTY
Coulomb
SciTegic.value.DoubleValue
-7.469

@<SCITEGIC>MOL_PROPERTY
VdW
SciTegic.value.DoubleValue
4.260

@<SCITEGIC>MOL_PROPERTY
VdW6
SciTegic.value.DoubleValue
-13.645

@<SCITEGIC>MOL_PROPERTY
VdW12
SciTegic.value.DoubleValue
17.904

@<SCITEGIC>MOL_PROPERTY
Bond
SciTegic.value.DoubleValue
0.733

@<SCITEGIC>MOL_PROPERTY
Angle
SciTegic.value.DoubleValue
9.054

@<SCITEGIC>MOL_PROPERTY
Pdih
SciTegic.value.DoubleValue
9.098

@<SCITEGIC>MOL_PROPERTY
Idih
SciTegic.value.DoubleValue
0.000

@<SCITEGIC>MOL_PROPERTY
Tether
SciTegic.value.DoubleValue
0.000

@<TRIPOS>MOLECULE
guest-s17_vm2.mol2 : vm2 ligand conformer 105
          25          25           1
SMALL
USER_CHARGES
 
@<TRIPOS>ATOM
       1    C1      20.102409   19.108740   20.756787 C.3        1 MOL1        -0.1684
       2    H1      19.067221   19.223926   20.408378 H          1 MOL1         0.0833
       3    H2      20.691747   18.888936   19.856207 H          1 MOL1         0.0833
       4    C2      20.184322   17.860121   21.682578 C.3        1 MOL1        -0.1684
       5    H3      19.258612   17.738887   22.253945 H          1 MOL1         0.0833
       6    H4      20.200468   16.975921   21.031092 H          1 MOL1         0.0833
       7    C3      21.396311   17.753914   22.645436 C.3        1 MOL1        -0.1684
       8    H5      22.324290   17.746506   22.058204 H          1 MOL1         0.0833
       9    H6      21.340962   16.764580   23.119486 H          1 MOL1         0.0833
      10    C4      21.528590   18.810022   23.785232 C.3        1 MOL1        -0.1760
      11    H7      22.152581   18.365042   24.571044 H          1 MOL1         0.0833
      12    H8      22.123793   19.663557   23.449416 H          1 MOL1         0.0833
      13    C5      20.236333   19.341900   24.457549 C.3        1 MOL1         0.1219
      14    H9      20.568593   20.019850   25.256932 H          1 MOL1         0.0790
      15    C6      19.240960   20.150882   23.579656 C.3        1 MOL1        -0.1760
      16    H10     18.497874   19.491879   23.121064 H          1 MOL1         0.0833
      17    H11     18.649583   20.768094   24.268063 H          1 MOL1         0.0833
      18    C7      19.828088   21.098425   22.497750 C.3        1 MOL1        -0.1684
      19    H12     20.467521   21.848285   22.982712 H          1 MOL1         0.0833
      20    H13     18.985137   21.662112   22.075363 H          1 MOL1         0.0833
      21    C8      20.608401   20.467624   21.307636 C.3        1 MOL1        -0.1684
      22    H14     21.675705   20.390375   21.536516 H          1 MOL1         0.0833
      23    H15     20.575770   21.191480   20.481970 H          1 MOL1         0.0833
      24    O1      19.538586   18.251372   25.047376 O.3        1 MOL1        -0.5508
      25    H16     20.205122   17.723999   25.532747 H          1 MOL1         0.3780
@<TRIPOS>BOND
    1     1     2    1
    2     1     3    1
    3     1     4    1
    4     4     5    1
    5     4     6    1
    6     4     7    1
    7     7     8    1
    8     7     9    1
    9     7    10    1
   10    10    11    1
   11    10    12    1
   12    10    13    1
   13    13    14    1
   14    13    15    1
   15    15    16    1
   16    15    17    1
   17    15    18    1
   18    18    19    1
   19    18    20    1
   20     1    21    1
   21    18    21    1
   22    21    22    1
   23    21    23    1
   24    13    24    1
   25    24    25    1
@<TRIPOS>SUBSTRUCTURE
       1 MOL1            1 RESIDUE      1      MOL     
@<SCITEGIC>MOL_PROPERTY
VM2 Rank
SciTegic.value.IntegerValue
105

@<SCITEGIC>MOL_PROPERTY
Conf_Id
SciTegic.value.IntegerValue
788

@<SCITEGIC>MOL_PROPERTY
Probability
SciTegic.value.DoubleValue
0.00

@<SCITEGIC>MOL_PROPERTY
Sum Probability
SciTegic.value.DoubleValue
99.99

@<SCITEGIC>MOL_PROPERTY
Delta G
SciTegic.value.DoubleValue
4.752

@<SCITEGIC>MOL_PROPERTY
G
SciTegic.value.DoubleValue
66.827

@<SCITEGIC>MOL_PROPERTY
E
SciTegic.value.DoubleValue
34.160

@<SCITEGIC>MOL_PROPERTY
-TS
SciTegic.value.DoubleValue
32.668

@<SCITEGIC>MOL_PROPERTY
U+W
SciTegic.value.DoubleValue
13.592

@<SCITEGIC>MOL_PROPERTY
U
SciTegic.value.DoubleValue
15.621

@<SCITEGIC>MOL_PROPERTY
W
SciTegic.value.DoubleValue
-2.029

@<SCITEGIC>MOL_PROPERTY
W(PB)
SciTegic.value.DoubleValue
-4.146

@<SCITEGIC>MOL_PROPERTY
W(SA)
SciTegic.value.DoubleValue
2.117

@<SCITEGIC>MOL_PROPERTY
Valence
SciTegic.value.DoubleValue
18.961

@<SCITEGIC>MOL_PROPERTY
Coulomb
SciTegic.value.DoubleValue
-7.191

@<SCITEGIC>MOL_PROPERTY
VdW
SciTegic.value.DoubleValue
3.851

@<SCITEGIC>MOL_PROPERTY
VdW6
SciTegic.value.DoubleValue
-13.971

@<SCITEGIC>MOL_PROPERTY
VdW12
SciTegic.value.DoubleValue
17.822

@<SCITEGIC>MOL_PROPERTY
Bond
SciTegic.value.DoubleValue
0.726

@<SCITEGIC>MOL_PROPERTY
Angle
SciTegic.value.DoubleValue
9.582

@<SCITEGIC>MOL_PROPERTY
Pdih
SciTegic.value.DoubleValue
8.652

@<SCITEGIC>MOL_PROPERTY
Idih
SciTegic.value.DoubleValue
0.000

@<SCITEGIC>MOL_PROPERTY
Tether
SciTegic.value.DoubleValue
0.000

@<TRIPOS>MOLECULE
guest-s17_vm2.mol2 : vm2 ligand conformer 106
          25          25           1
SMALL
USER_CHARGES
 
@<TRIPOS>ATOM
       1    C1      20.080644   19.093163   20.759678 C.3        1 MOL1        -0.1684
       2    H1      19.454894   18.253141   20.429419 H          1 MOL1         0.0833
       3    H2      20.317580   19.658033   19.847833 H          1 MOL1         0.0833
       4    C2      21.421664   18.542831   21.311789 C.3        1 MOL1        -0.1684
       5    H3      21.922549   18.010049   20.492025 H          1 MOL1         0.0833
       6    H4      22.096337   19.378306   21.522248 H          1 MOL1         0.0833
       7    C3      21.355919   17.562629   22.519288 C.3        1 MOL1        -0.1684
       8    H5      22.343283   17.524901   22.998914 H          1 MOL1         0.0833
       9    H6      21.188477   16.554996   22.115111 H          1 MOL1         0.0833
      10    C4      20.269653   17.800474   23.603968 C.3        1 MOL1        -0.1760
      11    H7      19.277903   17.700915   23.153093 H          1 MOL1         0.0833
      12    H8      20.320069   16.958828   24.306585 H          1 MOL1         0.0833
      13    C5      20.365072   19.094797   24.459268 C.3        1 MOL1         0.1219
      14    H9      21.091887   18.887464   25.257879 H          1 MOL1         0.0790
      15    C6      20.856189   20.389783   23.761663 C.3        1 MOL1        -0.1760
      16    H10     20.962851   21.162711   24.533725 H          1 MOL1         0.0833
      17    H11     21.883933   20.234835   23.422116 H          1 MOL1         0.0833
      18    C7      19.987992   20.995734   22.616654 C.3        1 MOL1        -0.1684
      19    H12     20.613352   21.667863   22.013986 H          1 MOL1         0.0833
      20    H13     19.231032   21.639764   23.084419 H          1 MOL1         0.0833
      21    C8      19.231061   20.022326   21.674943 C.3        1 MOL1        -0.1684
      22    H14     18.592786   20.627400   21.016919 H          1 MOL1         0.0833
      23    H15     18.513268   19.439526   22.260787 H          1 MOL1         0.0833
      24    O1      19.095806   19.341262   25.052748 O.3        1 MOL1        -0.5508
      25    H16     19.169526   20.196448   25.523067 H          1 MOL1         0.3780
@<TRIPOS>BOND
    1     1     2    1
    2     1     3    1
    3     1     4    1
    4     4     5    1
    5     4     6    1
    6     4     7    1
    7     7     8    1
    8     7     9    1
    9     7    10    1
   10    10    11    1
   11    10    12    1
   12    10    13    1
   13    13    14    1
   14    13    15    1
   15    15    16    1
   16    15    17    1
   17    15    18    1
   18    18    19    1
   19    18    20    1
   20     1    21    1
   21    18    21    1
   22    21    22    1
   23    21    23    1
   24    13    24    1
   25    24    25    1
@<TRIPOS>SUBSTRUCTURE
       1 MOL1            1 RESIDUE      1      MOL     
@<SCITEGIC>MOL_PROPERTY
VM2 Rank
SciTegic.value.IntegerValue
106

@<SCITEGIC>MOL_PROPERTY
Conf_Id
SciTegic.value.IntegerValue
964

@<SCITEGIC>MOL_PROPERTY
Probability
SciTegic.value.DoubleValue
0.00

@<SCITEGIC>MOL_PROPERTY
Sum Probability
SciTegic.value.DoubleValue
100.00

@<SCITEGIC>MOL_PROPERTY
Delta G
SciTegic.value.DoubleValue
4.771

@<SCITEGIC>MOL_PROPERTY
G
SciTegic.value.DoubleValue
66.846

@<SCITEGIC>MOL_PROPERTY
E
SciTegic.value.DoubleValue
34.179

@<SCITEGIC>MOL_PROPERTY
-TS
SciTegic.value.DoubleValue
32.667

@<SCITEGIC>MOL_PROPERTY
U+W
SciTegic.value.DoubleValue
13.611

@<SCITEGIC>MOL_PROPERTY
U
SciTegic.value.DoubleValue
15.621

@<SCITEGIC>MOL_PROPERTY
W
SciTegic.value.DoubleValue
-2.010

@<SCITEGIC>MOL_PROPERTY
W(PB)
SciTegic.value.DoubleValue
-4.125

@<SCITEGIC>MOL_PROPERTY
W(SA)
SciTegic.value.DoubleValue
2.115

@<SCITEGIC>MOL_PROPERTY
Valence
SciTegic.value.DoubleValue
18.961

@<SCITEGIC>MOL_PROPERTY
Coulomb
SciTegic.value.DoubleValue
-7.191

@<SCITEGIC>MOL_PROPERTY
VdW
SciTegic.value.DoubleValue
3.851

@<SCITEGIC>MOL_PROPERTY
VdW6
SciTegic.value.DoubleValue
-13.971

@<SCITEGIC>MOL_PROPERTY
VdW12
SciTegic.value.DoubleValue
17.822

@<SCITEGIC>MOL_PROPERTY
Bond
SciTegic.value.DoubleValue
0.726

@<SCITEGIC>MOL_PROPERTY
Angle
SciTegic.value.DoubleValue
9.582

@<SCITEGIC>MOL_PROPERTY
Pdih
SciTegic.value.DoubleValue
8.652

@<SCITEGIC>MOL_PROPERTY
Idih
SciTegic.value.DoubleValue
0.000

@<SCITEGIC>MOL_PROPERTY
Tether
SciTegic.value.DoubleValue
0.000

@<TRIPOS>MOLECULE
guest-s17_vm2.mol2 : vm2 ligand conformer 107
          25          25           1
SMALL
USER_CHARGES
 
@<TRIPOS>ATOM
       1    C1      20.107739   19.107619   20.654229 C.3        1 MOL1        -0.1684
       2    H1      19.357260   18.443714   20.204051 H          1 MOL1         0.0833
       3    H2      20.533315   19.687593   19.824105 H          1 MOL1         0.0833
       4    C2      21.234190   18.240886   21.274722 C.3        1 MOL1        -0.1684
       5    H3      21.485010   17.462190   20.541525 H          1 MOL1         0.0833
       6    H4      22.154072   18.828778   21.386543 H          1 MOL1         0.0833
       7    C3      20.882023   17.548079   22.615570 C.3        1 MOL1        -0.1684
       8    H5      21.427402   16.594746   22.630018 H          1 MOL1         0.0833
       9    H6      19.820873   17.268141   22.643074 H          1 MOL1         0.0833
      10    C4      21.308660   18.325398   23.899652 C.3        1 MOL1        -0.1760
      11    H7      21.563273   17.570260   24.654565 H          1 MOL1         0.0833
      12    H8      22.242202   18.874484   23.724266 H          1 MOL1         0.0833
      13    C5      20.267484   19.262563   24.571371 C.3        1 MOL1         0.1219
      14    H9      20.599676   19.379354   25.613190 H          1 MOL1         0.0790
      15    C6      20.167972   20.711426   24.016518 C.3        1 MOL1        -0.1760
      16    H10     19.211565   21.147412   24.333187 H          1 MOL1         0.0833
      17    H11     20.938756   21.312449   24.516259 H          1 MOL1         0.0833
      18    C7      20.333265   20.926471   22.490614 C.3        1 MOL1        -0.1684
      19    H12     21.380176   20.764946   22.209129 H          1 MOL1         0.0833
      20    H13     20.145494   21.986523   22.272685 H          1 MOL1         0.0833
      21    C8      19.380328   20.070827   21.620961 C.3        1 MOL1        -0.1684
      22    H14     18.740164   20.739260   21.029574 H          1 MOL1         0.0833
      23    H15     18.687943   19.498332   22.248143 H          1 MOL1         0.0833
      24    O1      18.982341   18.649731   24.616362 O.3        1 MOL1        -0.5508
      25    H16     18.389020   19.271784   25.083787 H          1 MOL1         0.3780
@<TRIPOS>BOND
    1     1     2    1
    2     1     3    1
    3     1     4    1
    4     4     5    1
    5     4     6    1
    6     4     7    1
    7     7     8    1
    8     7     9    1
    9     7    10    1
   10    10    11    1
   11    10    12    1
   12    10    13    1
   13    13    14    1
   14    13    15    1
   15    15    16    1
   16    15    17    1
   17    15    18    1
   18    18    19    1
   19    18    20    1
   20     1    21    1
   21    18    21    1
   22    21    22    1
   23    21    23    1
   24    13    24    1
   25    24    25    1
@<TRIPOS>SUBSTRUCTURE
       1 MOL1            1 RESIDUE      1      MOL     
@<SCITEGIC>MOL_PROPERTY
VM2 Rank
SciTegic.value.IntegerValue
107

@<SCITEGIC>MOL_PROPERTY
Conf_Id
SciTegic.value.IntegerValue
622

@<SCITEGIC>MOL_PROPERTY
Probability
SciTegic.value.DoubleValue
0.00

@<SCITEGIC>MOL_PROPERTY
Sum Probability
SciTegic.value.DoubleValue
100.00

@<SCITEGIC>MOL_PROPERTY
Delta G
SciTegic.value.DoubleValue
5.059

@<SCITEGIC>MOL_PROPERTY
G
SciTegic.value.DoubleValue
67.134

@<SCITEGIC>MOL_PROPERTY
E
SciTegic.value.DoubleValue
34.614

@<SCITEGIC>MOL_PROPERTY
-TS
SciTegic.value.DoubleValue
32.520

@<SCITEGIC>MOL_PROPERTY
U+W
SciTegic.value.DoubleValue
14.046

@<SCITEGIC>MOL_PROPERTY
U
SciTegic.value.DoubleValue
16.200

@<SCITEGIC>MOL_PROPERTY
W
SciTegic.value.DoubleValue
-2.154

@<SCITEGIC>MOL_PROPERTY
W(PB)
SciTegic.value.DoubleValue
-4.283

@<SCITEGIC>MOL_PROPERTY
W(SA)
SciTegic.value.DoubleValue
2.129

@<SCITEGIC>MOL_PROPERTY
Valence
SciTegic.value.DoubleValue
19.712

@<SCITEGIC>MOL_PROPERTY
Coulomb
SciTegic.value.DoubleValue
-6.683

@<SCITEGIC>MOL_PROPERTY
VdW
SciTegic.value.DoubleValue
3.172

@<SCITEGIC>MOL_PROPERTY
VdW6
SciTegic.value.DoubleValue
-13.375

@<SCITEGIC>MOL_PROPERTY
VdW12
SciTegic.value.DoubleValue
16.546

@<SCITEGIC>MOL_PROPERTY
Bond
SciTegic.value.DoubleValue
0.548

@<SCITEGIC>MOL_PROPERTY
Angle
SciTegic.value.DoubleValue
6.059

@<SCITEGIC>MOL_PROPERTY
Pdih
SciTegic.value.DoubleValue
13.105

@<SCITEGIC>MOL_PROPERTY
Idih
SciTegic.value.DoubleValue
0.000

@<SCITEGIC>MOL_PROPERTY
Tether
SciTegic.value.DoubleValue
0.000

@<TRIPOS>MOLECULE
guest-s17_vm2.mol2 : vm2 ligand conformer 108
          25          25           1
SMALL
USER_CHARGES
 
@<TRIPOS>ATOM
       1    C1      20.171395   19.141645   20.648525 C.3        1 MOL1        -0.1684
       2    H1      19.187944   19.073673   20.163912 H          1 MOL1         0.0833
       3    H2      20.911532   19.038729   19.843418 H          1 MOL1         0.0833
       4    C2      20.313352   17.946219   21.619234 C.3        1 MOL1        -0.1684
       5    H3      19.398366   17.854022   22.214887 H          1 MOL1         0.0833
       6    H4      20.360735   17.021840   21.027942 H          1 MOL1         0.0833
       7    C3      21.560698   18.023330   22.532851 C.3        1 MOL1        -0.1684
       8    H5      22.189843   18.882735   22.274113 H          1 MOL1         0.0833
       9    H6      22.191178   17.145803   22.335616 H          1 MOL1         0.0833
      10    C4      21.238679   18.054647   24.048529 C.3        1 MOL1        -0.1760
      11    H7      20.867222   17.066998   24.351263 H          1 MOL1         0.0833
      12    H8      22.189837   18.181229   24.581775 H          1 MOL1         0.0833
      13    C5      20.257757   19.141752   24.570982 C.3        1 MOL1         0.1219
      14    H9      20.537677   19.295055   25.623370 H          1 MOL1         0.0790
      15    C6      20.344290   20.542010   23.903661 C.3        1 MOL1        -0.1760
      16    H10     19.959110   21.252438   24.646550 H          1 MOL1         0.0833
      17    H11     21.396098   20.821751   23.765086 H          1 MOL1         0.0833
      18    C7      19.536288   20.785377   22.591026 C.3        1 MOL1        -0.1684
      19    H12     19.239746   21.842981   22.596495 H          1 MOL1         0.0833
      20    H13     18.591683   20.226051   22.585018 H          1 MOL1         0.0833
      21    C8      20.323062   20.551563   21.276420 C.3        1 MOL1        -0.1684
      22    H14     21.382944   20.793939   21.425439 H          1 MOL1         0.0833
      23    H15     19.970162   21.277715   20.531422 H          1 MOL1         0.0833
      24    O1      18.918479   18.656457   24.568771 O.3        1 MOL1        -0.5508
      25    H16     18.928882   17.796591   25.035662 H          1 MOL1         0.3780
@<TRIPOS>BOND
    1     1     2    1
    2     1     3    1
    3     1     4    1
    4     4     5    1
    5     4     6    1
    6     4     7    1
    7     7     8    1
    8     7     9    1
    9     7    10    1
   10    10    11    1
   11    10    12    1
   12    10    13    1
   13    13    14    1
   14    13    15    1
   15    15    16    1
   16    15    17    1
   17    15    18    1
   18    18    19    1
   19    18    20    1
   20     1    21    1
   21    18    21    1
   22    21    22    1
   23    21    23    1
   24    13    24    1
   25    24    25    1
@<TRIPOS>SUBSTRUCTURE
       1 MOL1            1 RESIDUE      1      MOL     
@<SCITEGIC>MOL_PROPERTY
VM2 Rank
SciTegic.value.IntegerValue
108

@<SCITEGIC>MOL_PROPERTY
Conf_Id
SciTegic.value.IntegerValue
1449

@<SCITEGIC>MOL_PROPERTY
Probability
SciTegic.value.DoubleValue
0.00

@<SCITEGIC>MOL_PROPERTY
Sum Probability
SciTegic.value.DoubleValue
100.00

@<SCITEGIC>MOL_PROPERTY
Delta G
SciTegic.value.DoubleValue
5.102

@<SCITEGIC>MOL_PROPERTY
G
SciTegic.value.DoubleValue
67.178

@<SCITEGIC>MOL_PROPERTY
E
SciTegic.value.DoubleValue
34.658

@<SCITEGIC>MOL_PROPERTY
-TS
SciTegic.value.DoubleValue
32.520

@<SCITEGIC>MOL_PROPERTY
U+W
SciTegic.value.DoubleValue
14.090

@<SCITEGIC>MOL_PROPERTY
U
SciTegic.value.DoubleValue
16.200

@<SCITEGIC>MOL_PROPERTY
W
SciTegic.value.DoubleValue
-2.110

@<SCITEGIC>MOL_PROPERTY
W(PB)
SciTegic.value.DoubleValue
-4.247

@<SCITEGIC>MOL_PROPERTY
W(SA)
SciTegic.value.DoubleValue
2.137

@<SCITEGIC>MOL_PROPERTY
Valence
SciTegic.value.DoubleValue
19.712

@<SCITEGIC>MOL_PROPERTY
Coulomb
SciTegic.value.DoubleValue
-6.683

@<SCITEGIC>MOL_PROPERTY
VdW
SciTegic.value.DoubleValue
3.172

@<SCITEGIC>MOL_PROPERTY
VdW6
SciTegic.value.DoubleValue
-13.375

@<SCITEGIC>MOL_PROPERTY
VdW12
SciTegic.value.DoubleValue
16.546

@<SCITEGIC>MOL_PROPERTY
Bond
SciTegic.value.DoubleValue
0.548

@<SCITEGIC>MOL_PROPERTY
Angle
SciTegic.value.DoubleValue
6.059

@<SCITEGIC>MOL_PROPERTY
Pdih
SciTegic.value.DoubleValue
13.104

@<SCITEGIC>MOL_PROPERTY
Idih
SciTegic.value.DoubleValue
0.000

@<SCITEGIC>MOL_PROPERTY
Tether
SciTegic.value.DoubleValue
0.000

@<TRIPOS>MOLECULE
guest-s17_vm2.mol2 : vm2 ligand conformer 109
          25          25           1
SMALL
USER_CHARGES
 
@<TRIPOS>ATOM
       1    C1      20.090166   19.096899   20.753521 C.3        1 MOL1        -0.1684
       2    H1      19.467720   18.258100   20.414053 H          1 MOL1         0.0833
       3    H2      20.334848   19.665942   19.846325 H          1 MOL1         0.0833
       4    C2      21.426404   18.544717   21.314949 C.3        1 MOL1        -0.1684
       5    H3      21.934074   18.014697   20.497568 H          1 MOL1         0.0833
       6    H4      22.099430   19.379155   21.534149 H          1 MOL1         0.0833
       7    C3      21.349937   17.560325   22.518040 C.3        1 MOL1        -0.1684
       8    H5      22.335729   17.514137   23.000219 H          1 MOL1         0.0833
       9    H6      21.176967   16.555473   22.109222 H          1 MOL1         0.0833
      10    C4      20.262655   17.801651   23.600670 C.3        1 MOL1        -0.1760
      11    H7      19.272123   17.708489   23.145978 H          1 MOL1         0.0833
      12    H8      20.309889   16.955945   24.298770 H          1 MOL1         0.0833
      13    C5      20.367300   19.093679   24.458762 C.3        1 MOL1         0.1219
      14    H9      21.105339   18.884990   25.246659 H          1 MOL1         0.0790
      15    C6      20.849199   20.391890   23.760947 C.3        1 MOL1        -0.1760
      16    H10     20.939564   21.162439   24.537551 H          1 MOL1         0.0833
      17    H11     21.880336   20.249052   23.426786 H          1 MOL1         0.0833
      18    C7      19.979305   20.994482   22.615215 C.3        1 MOL1        -0.1684
      19    H12     20.599852   21.676571   22.018956 H          1 MOL1         0.0833
      20    H13     19.215248   21.627565   23.086627 H          1 MOL1         0.0833
      21    C8      19.232205   20.021525   21.665375 C.3        1 MOL1        -0.1684
      22    H14     18.597359   20.627057   21.004478 H          1 MOL1         0.0833
      23    H15     18.511013   19.436815   22.244750 H          1 MOL1         0.0833
      24    O1      19.106828   19.337831   25.072521 O.3        1 MOL1        -0.5508
      25    H16     18.861912   18.518413   25.549195 H          1 MOL1         0.3780
@<TRIPOS>BOND
    1     1     2    1
    2     1     3    1
    3     1     4    1
    4     4     5    1
    5     4     6    1
    6     4     7    1
    7     7     8    1
    8     7     9    1
    9     7    10    1
   10    10    11    1
   11    10    12    1
   12    10    13    1
   13    13    14    1
   14    13    15    1
   15    15    16    1
   16    15    17    1
   17    15    18    1
   18    18    19    1
   19    18    20    1
   20     1    21    1
   21    18    21    1
   22    21    22    1
   23    21    23    1
   24    13    24    1
   25    24    25    1
@<TRIPOS>SUBSTRUCTURE
       1 MOL1            1 RESIDUE      1      MOL     
@<SCITEGIC>MOL_PROPERTY
VM2 Rank
SciTegic.value.IntegerValue
109

@<SCITEGIC>MOL_PROPERTY
Conf_Id
SciTegic.value.IntegerValue
1302

@<SCITEGIC>MOL_PROPERTY
Probability
SciTegic.value.DoubleValue
0.00

@<SCITEGIC>MOL_PROPERTY
Sum Probability
SciTegic.value.DoubleValue
100.00

@<SCITEGIC>MOL_PROPERTY
Delta G
SciTegic.value.DoubleValue
5.128

@<SCITEGIC>MOL_PROPERTY
G
SciTegic.value.DoubleValue
67.204

@<SCITEGIC>MOL_PROPERTY
E
SciTegic.value.DoubleValue
34.496

@<SCITEGIC>MOL_PROPERTY
-TS
SciTegic.value.DoubleValue
32.708

@<SCITEGIC>MOL_PROPERTY
U+W
SciTegic.value.DoubleValue
13.928

@<SCITEGIC>MOL_PROPERTY
U
SciTegic.value.DoubleValue
16.068

@<SCITEGIC>MOL_PROPERTY
W
SciTegic.value.DoubleValue
-2.140

@<SCITEGIC>MOL_PROPERTY
W(PB)
SciTegic.value.DoubleValue
-4.259

@<SCITEGIC>MOL_PROPERTY
W(SA)
SciTegic.value.DoubleValue
2.119

@<SCITEGIC>MOL_PROPERTY
Valence
SciTegic.value.DoubleValue
18.913

@<SCITEGIC>MOL_PROPERTY
Coulomb
SciTegic.value.DoubleValue
-6.661

@<SCITEGIC>MOL_PROPERTY
VdW
SciTegic.value.DoubleValue
3.815

@<SCITEGIC>MOL_PROPERTY
VdW6
SciTegic.value.DoubleValue
-13.862

@<SCITEGIC>MOL_PROPERTY
VdW12
SciTegic.value.DoubleValue
17.677

@<SCITEGIC>MOL_PROPERTY
Bond
SciTegic.value.DoubleValue
0.725

@<SCITEGIC>MOL_PROPERTY
Angle
SciTegic.value.DoubleValue
9.706

@<SCITEGIC>MOL_PROPERTY
Pdih
SciTegic.value.DoubleValue
8.483

@<SCITEGIC>MOL_PROPERTY
Idih
SciTegic.value.DoubleValue
0.000

@<SCITEGIC>MOL_PROPERTY
Tether
SciTegic.value.DoubleValue
0.000

@<TRIPOS>MOLECULE
guest-s17_vm2.mol2 : vm2 ligand conformer 110
          25          25           1
SMALL
USER_CHARGES
 
@<TRIPOS>ATOM
       1    C1      20.111030   19.112915   20.750844 C.3        1 MOL1        -0.1684
       2    H1      19.078983   19.229402   20.393666 H          1 MOL1         0.0833
       3    H2      20.708317   18.895995   19.854810 H          1 MOL1         0.0833
       4    C2      20.184541   17.861328   21.673144 C.3        1 MOL1        -0.1684
       5    H3      19.255444   17.738721   22.238322 H          1 MOL1         0.0833
       6    H4      20.203369   16.979261   21.018861 H          1 MOL1         0.0833
       7    C3      21.389699   17.748615   22.643656 C.3        1 MOL1        -0.1684
       8    H5      22.321357   17.731084   22.062662 H          1 MOL1         0.0833
       9    H6      21.321811   16.761627   23.121203 H          1 MOL1         0.0833
      10    C4      21.525735   18.803767   23.784132 C.3        1 MOL1        -0.1760
      11    H7      22.137117   18.348723   24.574178 H          1 MOL1         0.0833
      12    H8      22.131727   19.651638   23.453675 H          1 MOL1         0.0833
      13    C5      20.237533   19.344369   24.457045 C.3        1 MOL1         0.1219
      14    H9      20.576780   20.031451   25.245628 H          1 MOL1         0.0790
      15    C6      19.237165   20.144820   23.576619 C.3        1 MOL1        -0.1760
      16    H10     18.499599   19.482163   23.114601 H          1 MOL1         0.0833
      17    H11     18.640851   20.762401   24.260578 H          1 MOL1         0.0833
      18    C7      19.821925   21.095528   22.496471 C.3        1 MOL1        -0.1684
      19    H12     20.454135   21.850148   22.983580 H          1 MOL1         0.0833
      20    H13     18.977084   21.653118   22.069721 H          1 MOL1         0.0833
      21    C8      20.612223   20.469766   21.310661 C.3        1 MOL1        -0.1684
      22    H14     21.677603   20.392290   21.547868 H          1 MOL1         0.0833
      23    H15     20.585777   21.196637   20.487423 H          1 MOL1         0.0833
      24    O1      19.544150   18.261892   25.067426 O.3        1 MOL1        -0.5508
      25    H16     18.771058   18.646652   25.528877 H          1 MOL1         0.3780
@<TRIPOS>BOND
    1     1     2    1
    2     1     3    1
    3     1     4    1
    4     4     5    1
    5     4     6    1
    6     4     7    1
    7     7     8    1
    8     7     9    1
    9     7    10    1
   10    10    11    1
   11    10    12    1
   12    10    13    1
   13    13    14    1
   14    13    15    1
   15    15    16    1
   16    15    17    1
   17    15    18    1
   18    18    19    1
   19    18    20    1
   20     1    21    1
   21    18    21    1
   22    21    22    1
   23    21    23    1
   24    13    24    1
   25    24    25    1
@<TRIPOS>SUBSTRUCTURE
       1 MOL1            1 RESIDUE      1      MOL     
@<SCITEGIC>MOL_PROPERTY
VM2 Rank
SciTegic.value.IntegerValue
110

@<SCITEGIC>MOL_PROPERTY
Conf_Id
SciTegic.value.IntegerValue
1530

@<SCITEGIC>MOL_PROPERTY
Probability
SciTegic.value.DoubleValue
0.00

@<SCITEGIC>MOL_PROPERTY
Sum Probability
SciTegic.value.DoubleValue
100.00

@<SCITEGIC>MOL_PROPERTY
Delta G
SciTegic.value.DoubleValue
5.158

@<SCITEGIC>MOL_PROPERTY
G
SciTegic.value.DoubleValue
67.233

@<SCITEGIC>MOL_PROPERTY
E
SciTegic.value.DoubleValue
34.525

@<SCITEGIC>MOL_PROPERTY
-TS
SciTegic.value.DoubleValue
32.708

@<SCITEGIC>MOL_PROPERTY
U+W
SciTegic.value.DoubleValue
13.957

@<SCITEGIC>MOL_PROPERTY
U
SciTegic.value.DoubleValue
16.068

@<SCITEGIC>MOL_PROPERTY
W
SciTegic.value.DoubleValue
-2.110

@<SCITEGIC>MOL_PROPERTY
W(PB)
SciTegic.value.DoubleValue
-4.237

@<SCITEGIC>MOL_PROPERTY
W(SA)
SciTegic.value.DoubleValue
2.127

@<SCITEGIC>MOL_PROPERTY
Valence
SciTegic.value.DoubleValue
18.913

@<SCITEGIC>MOL_PROPERTY
Coulomb
SciTegic.value.DoubleValue
-6.661

@<SCITEGIC>MOL_PROPERTY
VdW
SciTegic.value.DoubleValue
3.815

@<SCITEGIC>MOL_PROPERTY
VdW6
SciTegic.value.DoubleValue
-13.862

@<SCITEGIC>MOL_PROPERTY
VdW12
SciTegic.value.DoubleValue
17.677

@<SCITEGIC>MOL_PROPERTY
Bond
SciTegic.value.DoubleValue
0.725

@<SCITEGIC>MOL_PROPERTY
Angle
SciTegic.value.DoubleValue
9.705

@<SCITEGIC>MOL_PROPERTY
Pdih
SciTegic.value.DoubleValue
8.483

@<SCITEGIC>MOL_PROPERTY
Idih
SciTegic.value.DoubleValue
0.000

@<SCITEGIC>MOL_PROPERTY
Tether
SciTegic.value.DoubleValue
0.000

@<TRIPOS>MOLECULE
guest-s17_vm2.mol2 : vm2 ligand conformer 111
          25          25           1
SMALL
USER_CHARGES
 
@<TRIPOS>ATOM
       1    C1      20.151733   19.141078   20.753021 C.3        1 MOL1        -0.1684
       2    H1      21.062368   19.483808   20.243312 H          1 MOL1         0.0833
       3    H2      19.448692   18.872272   19.953041 H          1 MOL1         0.0833
       4    C2      20.465775   17.854067   21.557297 C.3        1 MOL1        -0.1684
       5    H3      19.559549   17.461856   22.033143 H          1 MOL1         0.0833
       6    H4      20.759345   17.085855   20.829083 H          1 MOL1         0.0833
       7    C3      21.623869   17.996606   22.577087 C.3        1 MOL1        -0.1684
       8    H5      22.299163   18.806089   22.279519 H          1 MOL1         0.0833
       9    H6      22.243544   17.092366   22.505572 H          1 MOL1         0.0833
      10    C4      21.219776   18.143416   24.070939 C.3        1 MOL1        -0.1760
      11    H7      20.930791   17.150954   24.440259 H          1 MOL1         0.0833
      12    H8      22.124323   18.404465   24.635282 H          1 MOL1         0.0833
      13    C5      20.101428   19.138403   24.483600 C.3        1 MOL1         0.1219
      14    H9      20.131907   19.154501   25.582649 H          1 MOL1         0.0790
      15    C6      20.262773   20.623249   24.061248 C.3        1 MOL1        -0.1760
      16    H10     19.365619   21.155730   24.403202 H          1 MOL1         0.0833
      17    H11     21.090930   21.050784   24.640699 H          1 MOL1         0.0833
      18    C7      20.491874   20.985438   22.567298 C.3        1 MOL1        -0.1684
      19    H12     21.536096   20.816095   22.283782 H          1 MOL1         0.0833
      20    H13     20.363641   22.073121   22.483106 H          1 MOL1         0.0833
      21    C8      19.533511   20.318925   21.548100 C.3        1 MOL1        -0.1684
      22    H14     19.244305   21.084317   20.815288 H          1 MOL1         0.0833
      23    H15     18.594964   20.014637   22.027101 H          1 MOL1         0.0833
      24    O1      18.813261   18.641818   24.141409 O.3        1 MOL1        -0.5508
      25    H16     18.807230   17.693468   24.379074 H          1 MOL1         0.3780
@<TRIPOS>BOND
    1     1     2    1
    2     1     3    1
    3     1     4    1
    4     4     5    1
    5     4     6    1
    6     4     7    1
    7     7     8    1
    8     7     9    1
    9     7    10    1
   10    10    11    1
   11    10    12    1
   12    10    13    1
   13    13    14    1
   14    13    15    1
   15    15    16    1
   16    15    17    1
   17    15    18    1
   18    18    19    1
   19    18    20    1
   20     1    21    1
   21    18    21    1
   22    21    22    1
   23    21    23    1
   24    13    24    1
   25    24    25    1
@<TRIPOS>SUBSTRUCTURE
       1 MOL1            1 RESIDUE      1      MOL     
@<SCITEGIC>MOL_PROPERTY
VM2 Rank
SciTegic.value.IntegerValue
111

@<SCITEGIC>MOL_PROPERTY
Conf_Id
SciTegic.value.IntegerValue
185

@<SCITEGIC>MOL_PROPERTY
Probability
SciTegic.value.DoubleValue
0.00

@<SCITEGIC>MOL_PROPERTY
Sum Probability
SciTegic.value.DoubleValue
100.00

@<SCITEGIC>MOL_PROPERTY
Delta G
SciTegic.value.DoubleValue
5.540

@<SCITEGIC>MOL_PROPERTY
G
SciTegic.value.DoubleValue
67.615

@<SCITEGIC>MOL_PROPERTY
E
SciTegic.value.DoubleValue
34.890

@<SCITEGIC>MOL_PROPERTY
-TS
SciTegic.value.DoubleValue
32.725

@<SCITEGIC>MOL_PROPERTY
U+W
SciTegic.value.DoubleValue
14.323

@<SCITEGIC>MOL_PROPERTY
U
SciTegic.value.DoubleValue
16.214

@<SCITEGIC>MOL_PROPERTY
W
SciTegic.value.DoubleValue
-1.891

@<SCITEGIC>MOL_PROPERTY
W(PB)
SciTegic.value.DoubleValue
-4.002

@<SCITEGIC>MOL_PROPERTY
W(SA)
SciTegic.value.DoubleValue
2.111

@<SCITEGIC>MOL_PROPERTY
Valence
SciTegic.value.DoubleValue
19.752

@<SCITEGIC>MOL_PROPERTY
Coulomb
SciTegic.value.DoubleValue
-6.007

@<SCITEGIC>MOL_PROPERTY
VdW
SciTegic.value.DoubleValue
2.468

@<SCITEGIC>MOL_PROPERTY
VdW6
SciTegic.value.DoubleValue
-13.673

@<SCITEGIC>MOL_PROPERTY
VdW12
SciTegic.value.DoubleValue
16.141

@<SCITEGIC>MOL_PROPERTY
Bond
SciTegic.value.DoubleValue
0.503

@<SCITEGIC>MOL_PROPERTY
Angle
SciTegic.value.DoubleValue
8.543

@<SCITEGIC>MOL_PROPERTY
Pdih
SciTegic.value.DoubleValue
10.705

@<SCITEGIC>MOL_PROPERTY
Idih
SciTegic.value.DoubleValue
0.000

@<SCITEGIC>MOL_PROPERTY
Tether
SciTegic.value.DoubleValue
0.000

@<TRIPOS>MOLECULE
guest-s17_vm2.mol2 : vm2 ligand conformer 112
          25          25           1
SMALL
USER_CHARGES
 
@<TRIPOS>ATOM
       1    C1      20.151335   19.142350   20.753003 C.3        1 MOL1        -0.1684
       2    H1      21.060976   19.487766   20.243332 H          1 MOL1         0.0833
       3    H2      19.449378   18.870801   19.952997 H          1 MOL1         0.0833
       4    C2      20.469706   17.856673   21.557582 C.3        1 MOL1        -0.1684
       5    H3      19.564823   17.463805   22.036901 H          1 MOL1         0.0833
       6    H4      20.763931   17.087555   20.830693 H          1 MOL1         0.0833
       7    C3      21.626157   18.002081   22.578828 C.3        1 MOL1        -0.1684
       8    H5      22.294855   18.820470   22.291527 H          1 MOL1         0.0833
       9    H6      22.253139   17.103400   22.502306 H          1 MOL1         0.0833
      10    C4      21.210435   18.130635   24.070874 C.3        1 MOL1        -0.1760
      11    H7      20.892766   17.138939   24.418695 H          1 MOL1         0.0833
      12    H8      22.111945   18.365195   24.651093 H          1 MOL1         0.0833
      13    C5      20.102283   19.136041   24.483608 C.3        1 MOL1         0.1219
      14    H9      20.132933   19.151665   25.582659 H          1 MOL1         0.0790
      15    C6      20.278163   20.619885   24.061392 C.3        1 MOL1        -0.1760
      16    H10     19.401843   21.172114   24.424708 H          1 MOL1         0.0833
      17    H11     21.126177   21.029550   24.625201 H          1 MOL1         0.0833
      18    C7      20.486538   20.988004   22.565563 C.3        1 MOL1        -0.1684
      19    H12     21.529819   20.829629   22.271768 H          1 MOL1         0.0833
      20    H13     20.349147   22.075023   22.486357 H          1 MOL1         0.0833
      21    C8      19.528913   20.318272   21.547781 C.3        1 MOL1        -0.1684
      22    H14     19.239810   21.082553   20.813667 H          1 MOL1         0.0833
      23    H15     18.589810   20.012512   22.023280 H          1 MOL1         0.0833
      24    O1      18.810469   18.649059   24.141369 O.3        1 MOL1        -0.5508
      25    H16     18.175290   19.355391   24.372745 H          1 MOL1         0.3780
@<TRIPOS>BOND
    1     1     2    1
    2     1     3    1
    3     1     4    1
    4     4     5    1
    5     4     6    1
    6     4     7    1
    7     7     8    1
    8     7     9    1
    9     7    10    1
   10    10    11    1
   11    10    12    1
   12    10    13    1
   13    13    14    1
   14    13    15    1
   15    15    16    1
   16    15    17    1
   17    15    18    1
   18    18    19    1
   19    18    20    1
   20     1    21    1
   21    18    21    1
   22    21    22    1
   23    21    23    1
   24    13    24    1
   25    24    25    1
@<TRIPOS>SUBSTRUCTURE
       1 MOL1            1 RESIDUE      1      MOL     
@<SCITEGIC>MOL_PROPERTY
VM2 Rank
SciTegic.value.IntegerValue
112

@<SCITEGIC>MOL_PROPERTY
Conf_Id
SciTegic.value.IntegerValue
1236

@<SCITEGIC>MOL_PROPERTY
Probability
SciTegic.value.DoubleValue
0.00

@<SCITEGIC>MOL_PROPERTY
Sum Probability
SciTegic.value.DoubleValue
100.00

@<SCITEGIC>MOL_PROPERTY
Delta G
SciTegic.value.DoubleValue
5.550

@<SCITEGIC>MOL_PROPERTY
G
SciTegic.value.DoubleValue
67.626

@<SCITEGIC>MOL_PROPERTY
E
SciTegic.value.DoubleValue
34.900

@<SCITEGIC>MOL_PROPERTY
-TS
SciTegic.value.DoubleValue
32.726

@<SCITEGIC>MOL_PROPERTY
U+W
SciTegic.value.DoubleValue
14.333

@<SCITEGIC>MOL_PROPERTY
U
SciTegic.value.DoubleValue
16.214

@<SCITEGIC>MOL_PROPERTY
W
SciTegic.value.DoubleValue
-1.881

@<SCITEGIC>MOL_PROPERTY
W(PB)
SciTegic.value.DoubleValue
-3.986

@<SCITEGIC>MOL_PROPERTY
W(SA)
SciTegic.value.DoubleValue
2.105

@<SCITEGIC>MOL_PROPERTY
Valence
SciTegic.value.DoubleValue
19.752

@<SCITEGIC>MOL_PROPERTY
Coulomb
SciTegic.value.DoubleValue
-6.007

@<SCITEGIC>MOL_PROPERTY
VdW
SciTegic.value.DoubleValue
2.468

@<SCITEGIC>MOL_PROPERTY
VdW6
SciTegic.value.DoubleValue
-13.673

@<SCITEGIC>MOL_PROPERTY
VdW12
SciTegic.value.DoubleValue
16.141

@<SCITEGIC>MOL_PROPERTY
Bond
SciTegic.value.DoubleValue
0.503

@<SCITEGIC>MOL_PROPERTY
Angle
SciTegic.value.DoubleValue
8.543

@<SCITEGIC>MOL_PROPERTY
Pdih
SciTegic.value.DoubleValue
10.706

@<SCITEGIC>MOL_PROPERTY
Idih
SciTegic.value.DoubleValue
0.000

@<SCITEGIC>MOL_PROPERTY
Tether
SciTegic.value.DoubleValue
0.000

@<TRIPOS>MOLECULE
guest-s17_vm2.mol2 : vm2 ligand conformer 113
          25          25           1
SMALL
USER_CHARGES
 
@<TRIPOS>ATOM
       1    C1      19.493722   18.821125   21.291043 C.3        1 MOL1        -0.1684
       2    H1      18.858657   18.261396   21.984148 H          1 MOL1         0.0833
       3    H2      19.002062   18.677621   20.319046 H          1 MOL1         0.0833
       4    C2      20.884745   18.141279   21.217367 C.3        1 MOL1        -0.1684
       5    H3      20.723137   17.121557   20.841903 H          1 MOL1         0.0833
       6    H4      21.497676   18.640233   20.454623 H          1 MOL1         0.0833
       7    C3      21.701152   18.027916   22.537221 C.3        1 MOL1        -0.1684
       8    H5      22.409592   18.857615   22.635150 H          1 MOL1         0.0833
       9    H6      22.346584   17.144461   22.438495 H          1 MOL1         0.0833
      10    C4      20.890221   17.874203   23.852439 C.3        1 MOL1        -0.1760
      11    H7      20.159968   17.062109   23.739082 H          1 MOL1         0.0833
      12    H8      21.594501   17.513694   24.613342 H          1 MOL1         0.0833
      13    C5      20.193336   19.130023   24.458790 C.3        1 MOL1         0.1219
      14    H9      20.408006   19.091699   25.536520 H          1 MOL1         0.0790
      15    C6      20.650579   20.537844   23.990082 C.3        1 MOL1        -0.1760
      16    H10     20.040280   21.266812   24.539803 H          1 MOL1         0.0833
      17    H11     21.674724   20.701210   24.349489 H          1 MOL1         0.0833
      18    C7      20.600705   20.927506   22.479786 C.3        1 MOL1        -0.1684
      19    H12     21.564971   20.723163   22.001770 H          1 MOL1         0.0833
      20    H13     20.521765   22.022366   22.436494 H          1 MOL1         0.0833
      21    C8      19.465523   20.346720   21.597179 C.3        1 MOL1        -0.1684
      22    H14     19.523404   20.868198   20.631796 H          1 MOL1         0.0833
      23    H15     18.488033   20.626022   22.012580 H          1 MOL1         0.0833
      24    O1      18.784016   19.036384   24.336094 O.3        1 MOL1        -0.5508
      25    H16     18.607357   19.286892   23.406979 H          1 MOL1         0.3780
@<TRIPOS>BOND
    1     1     2    1
    2     1     3    1
    3     1     4    1
    4     4     5    1
    5     4     6    1
    6     4     7    1
    7     7     8    1
    8     7     9    1
    9     7    10    1
   10    10    11    1
   11    10    12    1
   12    10    13    1
   13    13    14    1
   14    13    15    1
   15    15    16    1
   16    15    17    1
   17    15    18    1
   18    18    19    1
   19    18    20    1
   20     1    21    1
   21    18    21    1
   22    21    22    1
   23    21    23    1
   24    13    24    1
   25    24    25    1
@<TRIPOS>SUBSTRUCTURE
       1 MOL1            1 RESIDUE      1      MOL     
@<SCITEGIC>MOL_PROPERTY
VM2 Rank
SciTegic.value.IntegerValue
113

@<SCITEGIC>MOL_PROPERTY
Conf_Id
SciTegic.value.IntegerValue
698

@<SCITEGIC>MOL_PROPERTY
Probability
SciTegic.value.DoubleValue
0.00

@<SCITEGIC>MOL_PROPERTY
Sum Probability
SciTegic.value.DoubleValue
100.00

@<SCITEGIC>MOL_PROPERTY
Delta G
SciTegic.value.DoubleValue
7.422

@<SCITEGIC>MOL_PROPERTY
G
SciTegic.value.DoubleValue
69.498

@<SCITEGIC>MOL_PROPERTY
E
SciTegic.value.DoubleValue
36.284

@<SCITEGIC>MOL_PROPERTY
-TS
SciTegic.value.DoubleValue
33.214

@<SCITEGIC>MOL_PROPERTY
U+W
SciTegic.value.DoubleValue
15.716

@<SCITEGIC>MOL_PROPERTY
U
SciTegic.value.DoubleValue
16.593

@<SCITEGIC>MOL_PROPERTY
W
SciTegic.value.DoubleValue
-0.877

@<SCITEGIC>MOL_PROPERTY
W(PB)
SciTegic.value.DoubleValue
-2.981

@<SCITEGIC>MOL_PROPERTY
W(SA)
SciTegic.value.DoubleValue
2.104

@<SCITEGIC>MOL_PROPERTY
Valence
SciTegic.value.DoubleValue
22.340

@<SCITEGIC>MOL_PROPERTY
Coulomb
SciTegic.value.DoubleValue
-9.762

@<SCITEGIC>MOL_PROPERTY
VdW
SciTegic.value.DoubleValue
4.015

@<SCITEGIC>MOL_PROPERTY
VdW6
SciTegic.value.DoubleValue
-15.368

@<SCITEGIC>MOL_PROPERTY
VdW12
SciTegic.value.DoubleValue
19.383

@<SCITEGIC>MOL_PROPERTY
Bond
SciTegic.value.DoubleValue
0.782

@<SCITEGIC>MOL_PROPERTY
Angle
SciTegic.value.DoubleValue
10.778

@<SCITEGIC>MOL_PROPERTY
Pdih
SciTegic.value.DoubleValue
10.779

@<SCITEGIC>MOL_PROPERTY
Idih
SciTegic.value.DoubleValue
0.000

@<SCITEGIC>MOL_PROPERTY
Tether
SciTegic.value.DoubleValue
0.000

@<TRIPOS>MOLECULE
guest-s17_vm2.mol2 : vm2 ligand conformer 114
          25          25           1
SMALL
USER_CHARGES
 
@<TRIPOS>ATOM
       1    C1      19.466168   18.962360   21.277281 C.3        1 MOL1        -0.1684
       2    H1      18.608840   18.958090   21.956966 H          1 MOL1         0.0833
       3    H2      19.018547   18.745295   20.297680 H          1 MOL1         0.0833
       4    C2      20.452803   17.801976   21.596670 C.3        1 MOL1        -0.1684
       5    H3      19.900640   16.943411   22.001684 H          1 MOL1         0.0833
       6    H4      20.857418   17.452310   20.636840 H          1 MOL1         0.0833
       7    C3      21.673281   18.119303   22.499271 C.3        1 MOL1        -0.1684
       8    H5      22.266298   18.913142   22.032137 H          1 MOL1         0.0833
       9    H6      22.341595   17.248104   22.464762 H          1 MOL1         0.0833
      10    C4      21.428151   18.440827   24.006538 C.3        1 MOL1        -0.1760
      11    H7      21.446921   17.489410   24.554723 H          1 MOL1         0.0833
      12    H8      22.296792   18.997721   24.380792 H          1 MOL1         0.0833
      13    C5      20.144442   19.189343   24.456571 C.3        1 MOL1         0.1219
      14    H9      20.262563   19.358347   25.536635 H          1 MOL1         0.0790
      15    C6      19.841641   20.592398   23.848176 C.3        1 MOL1        -0.1760
      16    H10     18.758333   20.715294   23.717960 H          1 MOL1         0.0833
      17    H11     20.117032   21.327992   24.614993 H          1 MOL1         0.0833
      18    C7      20.570841   21.018339   22.545150 C.3        1 MOL1        -0.1684
      19    H12     21.649763   20.867816   22.659812 H          1 MOL1         0.0833
      20    H13     20.468716   22.107722   22.446987 H          1 MOL1         0.0833
      21    C8      20.056372   20.394293   21.215761 C.3        1 MOL1        -0.1684
      22    H14     19.264657   21.050474   20.829058 H          1 MOL1         0.0833
      23    H15     20.857936   20.429458   20.465644 H          1 MOL1         0.0833
      24    O1      19.030302   18.324163   24.314582 O.3        1 MOL1        -0.5508
      25    H16     19.079065   18.021425   23.385504 H          1 MOL1         0.3780
@<TRIPOS>BOND
    1     1     2    1
    2     1     3    1
    3     1     4    1
    4     4     5    1
    5     4     6    1
    6     4     7    1
    7     7     8    1
    8     7     9    1
    9     7    10    1
   10    10    11    1
   11    10    12    1
   12    10    13    1
   13    13    14    1
   14    13    15    1
   15    15    16    1
   16    15    17    1
   17    15    18    1
   18    18    19    1
   19    18    20    1
   20     1    21    1
   21    18    21    1
   22    21    22    1
   23    21    23    1
   24    13    24    1
   25    24    25    1
@<TRIPOS>SUBSTRUCTURE
       1 MOL1            1 RESIDUE      1      MOL     
@<SCITEGIC>MOL_PROPERTY
VM2 Rank
SciTegic.value.IntegerValue
114

@<SCITEGIC>MOL_PROPERTY
Conf_Id
SciTegic.value.IntegerValue
1504

@<SCITEGIC>MOL_PROPERTY
Probability
SciTegic.value.DoubleValue
0.00

@<SCITEGIC>MOL_PROPERTY
Sum Probability
SciTegic.value.DoubleValue
100.00

@<SCITEGIC>MOL_PROPERTY
Delta G
SciTegic.value.DoubleValue
7.438

@<SCITEGIC>MOL_PROPERTY
G
SciTegic.value.DoubleValue
69.513

@<SCITEGIC>MOL_PROPERTY
E
SciTegic.value.DoubleValue
36.299

@<SCITEGIC>MOL_PROPERTY
-TS
SciTegic.value.DoubleValue
33.214

@<SCITEGIC>MOL_PROPERTY
U+W
SciTegic.value.DoubleValue
15.732

@<SCITEGIC>MOL_PROPERTY
U
SciTegic.value.DoubleValue
16.593

@<SCITEGIC>MOL_PROPERTY
W
SciTegic.value.DoubleValue
-0.862

@<SCITEGIC>MOL_PROPERTY
W(PB)
SciTegic.value.DoubleValue
-2.960

@<SCITEGIC>MOL_PROPERTY
W(SA)
SciTegic.value.DoubleValue
2.098

@<SCITEGIC>MOL_PROPERTY
Valence
SciTegic.value.DoubleValue
22.340

@<SCITEGIC>MOL_PROPERTY
Coulomb
SciTegic.value.DoubleValue
-9.762

@<SCITEGIC>MOL_PROPERTY
VdW
SciTegic.value.DoubleValue
4.015

@<SCITEGIC>MOL_PROPERTY
VdW6
SciTegic.value.DoubleValue
-15.368

@<SCITEGIC>MOL_PROPERTY
VdW12
SciTegic.value.DoubleValue
19.384

@<SCITEGIC>MOL_PROPERTY
Bond
SciTegic.value.DoubleValue
0.782

@<SCITEGIC>MOL_PROPERTY
Angle
SciTegic.value.DoubleValue
10.778

@<SCITEGIC>MOL_PROPERTY
Pdih
SciTegic.value.DoubleValue
10.780

@<SCITEGIC>MOL_PROPERTY
Idih
SciTegic.value.DoubleValue
0.000

@<SCITEGIC>MOL_PROPERTY
Tether
SciTegic.value.DoubleValue
0.000

@<TRIPOS>MOLECULE
guest-s17_vm2.mol2 : vm2 ligand conformer 115
          25          25           1
SMALL
USER_CHARGES
 
@<TRIPOS>ATOM
       1    C1      21.499292   19.574440   21.579277 C.3        1 MOL1        -0.1684
       2    H1      22.209436   19.870008   20.795327 H          1 MOL1         0.0833
       3    H2      22.115711   19.509629   22.481054 H          1 MOL1         0.0833
       4    C2      20.957152   18.165406   21.225891 C.3        1 MOL1        -0.1684
       5    H3      20.385371   18.214619   20.289498 H          1 MOL1         0.0833
       6    H4      21.828208   17.533339   21.005809 H          1 MOL1         0.0833
       7    C3      20.111789   17.433552   22.308221 C.3        1 MOL1        -0.1684
       8    H5      20.235911   16.355695   22.136319 H          1 MOL1         0.0833
       9    H6      19.040266   17.600191   22.155147 H          1 MOL1         0.0833
      10    C4      20.480218   17.721616   23.788439 C.3        1 MOL1        -0.1760
      11    H7      20.017180   16.925267   24.385574 H          1 MOL1         0.0833
      12    H8      21.560637   17.582543   23.923410 H          1 MOL1         0.0833
      13    C5      20.032107   19.072100   24.429657 C.3        1 MOL1         0.1219
      14    H9      19.604194   18.794261   25.403821 H          1 MOL1         0.0790
      15    C6      18.918918   19.908703   23.736205 C.3        1 MOL1        -0.1760
      16    H10     17.970672   19.366879   23.843625 H          1 MOL1         0.0833
      17    H11     18.793821   20.819387   24.336557 H          1 MOL1         0.0833
      18    C7      19.051660   20.349016   22.245654 C.3        1 MOL1        -0.1684
      19    H12     18.410026   21.231020   22.116278 H          1 MOL1         0.0833
      20    H13     18.601275   19.604973   21.580480 H          1 MOL1         0.0833
      21    C8      20.459553   20.720642   21.718751 C.3        1 MOL1        -0.1684
      22    H14     20.884658   21.516142   22.345671 H          1 MOL1         0.0833
      23    H15     20.324868   21.167089   20.724309 H          1 MOL1         0.0833
      24    O1      21.153311   19.897524   24.727904 O.3        1 MOL1        -0.5508
      25    H16     21.784873   19.344907   25.230669 H          1 MOL1         0.3780
@<TRIPOS>BOND
    1     1     2    1
    2     1     3    1
    3     1     4    1
    4     4     5    1
    5     4     6    1
    6     4     7    1
    7     7     8    1
    8     7     9    1
    9     7    10    1
   10    10    11    1
   11    10    12    1
   12    10    13    1
   13    13    14    1
   14    13    15    1
   15    15    16    1
   16    15    17    1
   17    15    18    1
   18    18    19    1
   19    18    20    1
   20     1    21    1
   21    18    21    1
   22    21    22    1
   23    21    23    1
   24    13    24    1
   25    24    25    1
@<TRIPOS>SUBSTRUCTURE
       1 MOL1            1 RESIDUE      1      MOL     
@<SCITEGIC>MOL_PROPERTY
VM2 Rank
SciTegic.value.IntegerValue
115

@<SCITEGIC>MOL_PROPERTY
Conf_Id
SciTegic.value.IntegerValue
959

@<SCITEGIC>MOL_PROPERTY
Probability
SciTegic.value.DoubleValue
0.00

@<SCITEGIC>MOL_PROPERTY
Sum Probability
SciTegic.value.DoubleValue
100.00

@<SCITEGIC>MOL_PROPERTY
Delta G
SciTegic.value.DoubleValue
9.476

@<SCITEGIC>MOL_PROPERTY
G
SciTegic.value.DoubleValue
71.552

@<SCITEGIC>MOL_PROPERTY
E
SciTegic.value.DoubleValue
38.748

@<SCITEGIC>MOL_PROPERTY
-TS
SciTegic.value.DoubleValue
32.804

@<SCITEGIC>MOL_PROPERTY
U+W
SciTegic.value.DoubleValue
18.181

@<SCITEGIC>MOL_PROPERTY
U
SciTegic.value.DoubleValue
20.127

@<SCITEGIC>MOL_PROPERTY
W
SciTegic.value.DoubleValue
-1.947

@<SCITEGIC>MOL_PROPERTY
W(PB)
SciTegic.value.DoubleValue
-4.072

@<SCITEGIC>MOL_PROPERTY
W(SA)
SciTegic.value.DoubleValue
2.126

@<SCITEGIC>MOL_PROPERTY
Valence
SciTegic.value.DoubleValue
21.806

@<SCITEGIC>MOL_PROPERTY
Coulomb
SciTegic.value.DoubleValue
-5.640

@<SCITEGIC>MOL_PROPERTY
VdW
SciTegic.value.DoubleValue
3.961

@<SCITEGIC>MOL_PROPERTY
VdW6
SciTegic.value.DoubleValue
-14.712

@<SCITEGIC>MOL_PROPERTY
VdW12
SciTegic.value.DoubleValue
18.674

@<SCITEGIC>MOL_PROPERTY
Bond
SciTegic.value.DoubleValue
0.774

@<SCITEGIC>MOL_PROPERTY
Angle
SciTegic.value.DoubleValue
10.670

@<SCITEGIC>MOL_PROPERTY
Pdih
SciTegic.value.DoubleValue
10.362

@<SCITEGIC>MOL_PROPERTY
Idih
SciTegic.value.DoubleValue
0.000

@<SCITEGIC>MOL_PROPERTY
Tether
SciTegic.value.DoubleValue
0.000

