@<TRIPOS>MOLECULE
guest-s15_vm2.mol2 : vm2 ligand conformer 1
          29          28           1
SMALL
USER_CHARGES
 
@<TRIPOS>ATOM
       1    C1      19.530624   19.931294   18.743931 C.3        1 MOL1        -0.2426
       2    H1      20.358597   20.651930   18.723962 H          1 MOL1         0.0959
       3    H2      19.523170   19.399722   17.783499 H          1 MOL1         0.0959
       4    H3      18.590647   20.492521   18.825923 H          1 MOL1         0.0959
       5    C2      19.687693   18.938448   19.915017 C.3        1 MOL1        -0.1410
       6    H4      20.618959   18.368862   19.787670 H          1 MOL1         0.0948
       7    H5      18.864636   18.210579   19.888802 H          1 MOL1         0.0948
       8    C3      19.701113   19.661546   21.279898 C.3        1 MOL1        -0.1435
       9    H6      20.523902   20.389564   21.300518 H          1 MOL1         0.0948
      10    H7      18.769413   20.231231   21.401533 H          1 MOL1         0.0948
      11    C4      19.858377   18.670461   22.455088 C.3        1 MOL1        -0.1435
      12    H8      20.789749   18.100624   22.331399 H          1 MOL1         0.0948
      13    H9      19.035136   17.942914   22.433878 H          1 MOL1         0.0948
      14    C5      19.872406   19.394282   23.820396 C.3        1 MOL1        -0.1435
      15    H10     20.698108   20.119161   23.842059 H          1 MOL1         0.0948
      16    H11     18.941835   19.966186   23.933667 H          1 MOL1         0.0948
      17    C6      20.028864   18.399089   24.995764 C.3        1 MOL1        -0.1500
      18    H12     20.935412   17.800299   24.835366 H          1 MOL1         0.0948
      19    H13     19.185536   17.695694   25.001814 H          1 MOL1         0.0948
      20    C7      20.131375   19.098939   26.368231 C.3        1 MOL1         0.1162
      21    H14     20.961866   19.810569   26.329234 H          1 MOL1         0.0910
      22    C8      20.428061   18.070829   27.471534 C.3        1 MOL1        -0.2491
      23    H15     19.620812   17.332181   27.553367 H          1 MOL1         0.0959
      24    H16     21.362268   17.534384   27.263582 H          1 MOL1         0.0959
      25    H17     20.538353   18.565956   28.444208 H          1 MOL1         0.0959
      26    N1      18.897488   19.891112   26.704142 N.4        1 MOL1        -0.5987
      27    H18     18.711957   20.610359   25.999907 H          1 MOL1         0.3605
      28    H19     18.990923   20.363824   27.607740 H          1 MOL1         0.3605
      29    H20     18.070993   19.289690   26.756575 H          1 MOL1         0.3605
@<TRIPOS>BOND
    1     1     2    1
    2     1     3    1
    3     1     4    1
    4     1     5    1
    5     5     6    1
    6     5     7    1
    7     5     8    1
    8     8     9    1
    9     8    10    1
   10     8    11    1
   11    11    12    1
   12    11    13    1
   13    11    14    1
   14    14    15    1
   15    14    16    1
   16    14    17    1
   17    17    18    1
   18    17    19    1
   19    17    20    1
   20    20    21    1
   21    20    22    1
   22    22    23    1
   23    22    24    1
   24    22    25    1
   25    20    26    1
   26    26    27    1
   27    26    28    1
   28    26    29    1
@<TRIPOS>SUBSTRUCTURE
       1 MOL1            1 RESIDUE      1      MOL     
@<SCITEGIC>MOL_PROPERTY
VM2 Rank
SciTegic.value.IntegerValue
1

@<SCITEGIC>MOL_PROPERTY
Conf_Id
SciTegic.value.IntegerValue
715

@<SCITEGIC>MOL_PROPERTY
Probability
SciTegic.value.DoubleValue
10.34

@<SCITEGIC>MOL_PROPERTY
Sum Probability
SciTegic.value.DoubleValue
10.34

@<SCITEGIC>MOL_PROPERTY
Delta G
SciTegic.value.DoubleValue
0.000

@<SCITEGIC>MOL_PROPERTY
G
SciTegic.value.DoubleValue
33.702

@<SCITEGIC>MOL_PROPERTY
E
SciTegic.value.DoubleValue
-3.682

@<SCITEGIC>MOL_PROPERTY
-TS
SciTegic.value.DoubleValue
37.385

@<SCITEGIC>MOL_PROPERTY
U+W
SciTegic.value.DoubleValue
-27.827

@<SCITEGIC>MOL_PROPERTY
U
SciTegic.value.DoubleValue
23.963

@<SCITEGIC>MOL_PROPERTY
W
SciTegic.value.DoubleValue
-51.787

@<SCITEGIC>MOL_PROPERTY
W(PB)
SciTegic.value.DoubleValue
-54.341

@<SCITEGIC>MOL_PROPERTY
W(SA)
SciTegic.value.DoubleValue
2.554

@<SCITEGIC>MOL_PROPERTY
Valence
SciTegic.value.DoubleValue
3.166

@<SCITEGIC>MOL_PROPERTY
Coulomb
SciTegic.value.DoubleValue
19.734

@<SCITEGIC>MOL_PROPERTY
VdW
SciTegic.value.DoubleValue
1.062

@<SCITEGIC>MOL_PROPERTY
VdW6
SciTegic.value.DoubleValue
-7.938

@<SCITEGIC>MOL_PROPERTY
VdW12
SciTegic.value.DoubleValue
9.001

@<SCITEGIC>MOL_PROPERTY
Bond
SciTegic.value.DoubleValue
0.188

@<SCITEGIC>MOL_PROPERTY
Angle
SciTegic.value.DoubleValue
0.880

@<SCITEGIC>MOL_PROPERTY
Pdih
SciTegic.value.DoubleValue
2.098

@<SCITEGIC>MOL_PROPERTY
Idih
SciTegic.value.DoubleValue
0.000

@<SCITEGIC>MOL_PROPERTY
Tether
SciTegic.value.DoubleValue
0.000

@<TRIPOS>MOLECULE
guest-s15_vm2.mol2 : vm2 ligand conformer 2
          29          28           1
SMALL
USER_CHARGES
 
@<TRIPOS>ATOM
       1    C1      19.030768   19.352240   18.849839 C.3        1 MOL1        -0.2426
       2    H1      19.531805   19.484103   17.882046 H          1 MOL1         0.0959
       3    H2      18.500431   18.391272   18.826730 H          1 MOL1         0.0959
       4    H3      18.285709   20.151608   18.955423 H          1 MOL1         0.0959
       5    C2      20.054944   19.392808   20.003645 C.3        1 MOL1        -0.1410
       6    H4      20.592574   20.351094   19.980423 H          1 MOL1         0.0948
       7    H5      20.805541   18.604302   19.852776 H          1 MOL1         0.0948
       8    C3      19.375093   19.209464   21.378454 C.3        1 MOL1        -0.1435
       9    H6      18.624339   19.998542   21.523774 H          1 MOL1         0.0948
      10    H7      18.837026   18.251561   21.395948 H          1 MOL1         0.0948
      11    C4      20.397689   19.249230   22.536402 C.3        1 MOL1        -0.1435
      12    H8      20.935493   20.207277   22.517381 H          1 MOL1         0.0948
      13    H9      21.148202   18.460120   22.389787 H          1 MOL1         0.0948
      14    C5      19.717316   19.065603   23.911754 C.3        1 MOL1        -0.1435
      15    H10     18.967922   19.855891   24.051154 H          1 MOL1         0.0948
      16    H11     19.179126   18.108667   23.919079 H          1 MOL1         0.0948
      17    C6      20.749003   19.103143   25.069156 C.3        1 MOL1        -0.1500
      18    H12     21.313054   20.043769   25.018853 H          1 MOL1         0.0948
      19    H13     21.485414   18.301471   24.924936 H          1 MOL1         0.0948
      20    C7      20.143353   18.972248   26.486625 C.3        1 MOL1         0.1162
      21    H14     20.969312   19.044739   27.200987 H          1 MOL1         0.0910
      22    C8      19.461276   17.609867   26.701180 C.3        1 MOL1        -0.2491
      23    H15     18.561155   17.504959   26.083939 H          1 MOL1         0.0959
      24    H16     20.145331   16.788258   26.454996 H          1 MOL1         0.0959
      25    H17     19.163369   17.491394   27.750189 H          1 MOL1         0.0959
      26    N1      19.206558   20.101398   26.816946 N.4        1 MOL1        -0.5987
      27    H18     18.391244   20.099945   26.199044 H          1 MOL1         0.3605
      28    H19     19.666354   21.011256   26.719633 H          1 MOL1         0.3605
      29    H20     18.863167   20.033179   27.779286 H          1 MOL1         0.3605
@<TRIPOS>BOND
    1     1     2    1
    2     1     3    1
    3     1     4    1
    4     1     5    1
    5     5     6    1
    6     5     7    1
    7     5     8    1
    8     8     9    1
    9     8    10    1
   10     8    11    1
   11    11    12    1
   12    11    13    1
   13    11    14    1
   14    14    15    1
   15    14    16    1
   16    14    17    1
   17    17    18    1
   18    17    19    1
   19    17    20    1
   20    20    21    1
   21    20    22    1
   22    22    23    1
   23    22    24    1
   24    22    25    1
   25    20    26    1
   26    26    27    1
   27    26    28    1
   28    26    29    1
@<TRIPOS>SUBSTRUCTURE
       1 MOL1            1 RESIDUE      1      MOL     
@<SCITEGIC>MOL_PROPERTY
VM2 Rank
SciTegic.value.IntegerValue
2

@<SCITEGIC>MOL_PROPERTY
Conf_Id
SciTegic.value.IntegerValue
441

@<SCITEGIC>MOL_PROPERTY
Probability
SciTegic.value.DoubleValue
5.07

@<SCITEGIC>MOL_PROPERTY
Sum Probability
SciTegic.value.DoubleValue
15.41

@<SCITEGIC>MOL_PROPERTY
Delta G
SciTegic.value.DoubleValue
0.424

@<SCITEGIC>MOL_PROPERTY
G
SciTegic.value.DoubleValue
34.126

@<SCITEGIC>MOL_PROPERTY
E
SciTegic.value.DoubleValue
-3.404

@<SCITEGIC>MOL_PROPERTY
-TS
SciTegic.value.DoubleValue
37.530

@<SCITEGIC>MOL_PROPERTY
U+W
SciTegic.value.DoubleValue
-27.549

@<SCITEGIC>MOL_PROPERTY
U
SciTegic.value.DoubleValue
24.513

@<SCITEGIC>MOL_PROPERTY
W
SciTegic.value.DoubleValue
-52.062

@<SCITEGIC>MOL_PROPERTY
W(PB)
SciTegic.value.DoubleValue
-54.559

@<SCITEGIC>MOL_PROPERTY
W(SA)
SciTegic.value.DoubleValue
2.497

@<SCITEGIC>MOL_PROPERTY
Valence
SciTegic.value.DoubleValue
3.677

@<SCITEGIC>MOL_PROPERTY
Coulomb
SciTegic.value.DoubleValue
19.662

@<SCITEGIC>MOL_PROPERTY
VdW
SciTegic.value.DoubleValue
1.174

@<SCITEGIC>MOL_PROPERTY
VdW6
SciTegic.value.DoubleValue
-8.570

@<SCITEGIC>MOL_PROPERTY
VdW12
SciTegic.value.DoubleValue
9.743

@<SCITEGIC>MOL_PROPERTY
Bond
SciTegic.value.DoubleValue
0.224

@<SCITEGIC>MOL_PROPERTY
Angle
SciTegic.value.DoubleValue
1.211

@<SCITEGIC>MOL_PROPERTY
Pdih
SciTegic.value.DoubleValue
2.243

@<SCITEGIC>MOL_PROPERTY
Idih
SciTegic.value.DoubleValue
0.000

@<SCITEGIC>MOL_PROPERTY
Tether
SciTegic.value.DoubleValue
0.000

@<TRIPOS>MOLECULE
guest-s15_vm2.mol2 : vm2 ligand conformer 3
          29          28           1
SMALL
USER_CHARGES
 
@<TRIPOS>ATOM
       1    C1      20.203068   19.467350   18.690427 C.3        1 MOL1        -0.2426
       2    H1      20.598494   20.491409   18.704453 H          1 MOL1         0.0959
       3    H2      21.052457   18.773364   18.643789 H          1 MOL1         0.0959
       4    H3      19.616855   19.344934   17.770416 H          1 MOL1         0.0959
       5    C2      19.330225   19.192838   19.933263 C.3        1 MOL1        -0.1410
       6    H4      18.922115   18.174077   19.874358 H          1 MOL1         0.0948
       7    H5      18.471596   19.878880   19.934501 H          1 MOL1         0.0948
       8    C3      20.132032   19.358504   21.243070 C.3        1 MOL1        -0.1435
       9    H6      20.990440   18.672578   21.236049 H          1 MOL1         0.0948
      10    H7      20.539766   20.377484   21.296441 H          1 MOL1         0.0948
      11    C4      19.261265   19.084330   22.489945 C.3        1 MOL1        -0.1435
      12    H8      18.854140   18.065091   22.436049 H          1 MOL1         0.0948
      13    H9      18.402649   19.770052   22.494733 H          1 MOL1         0.0948
      14    C5      20.063807   19.250707   23.800215 C.3        1 MOL1        -0.1435
      15    H10     20.923334   18.567933   23.781338 H          1 MOL1         0.0948
      16    H11     20.466556   20.271570   23.856289 H          1 MOL1         0.0948
      17    C6      19.190221   18.970845   25.047754 C.3        1 MOL1        -0.1500
      18    H12     18.839170   17.930499   25.028356 H          1 MOL1         0.0948
      19    H13     18.293744   19.602754   24.995315 H          1 MOL1         0.0948
      20    C7      19.908591   19.252366   26.387207 C.3        1 MOL1         0.1162
      21    H14     20.285068   20.279706   26.365538 H          1 MOL1         0.0910
      22    C8      21.097236   18.302406   26.619541 C.3        1 MOL1        -0.2491
      23    H15     20.778930   17.252984   26.586203 H          1 MOL1         0.0959
      24    H16     21.878704   18.449130   25.865122 H          1 MOL1         0.0959
      25    H17     21.554229   18.488136   27.599348 H          1 MOL1         0.0959
      26    N1      18.949555   19.176655   27.542578 N.4        1 MOL1        -0.5987
      27    H18     19.412338   19.401272   28.428081 H          1 MOL1         0.3605
      28    H19     18.549873   18.238951   27.636095 H          1 MOL1         0.3605
      29    H20     18.171523   19.833199   27.430626 H          1 MOL1         0.3605
@<TRIPOS>BOND
    1     1     2    1
    2     1     3    1
    3     1     4    1
    4     1     5    1
    5     5     6    1
    6     5     7    1
    7     5     8    1
    8     8     9    1
    9     8    10    1
   10     8    11    1
   11    11    12    1
   12    11    13    1
   13    11    14    1
   14    14    15    1
   15    14    16    1
   16    14    17    1
   17    17    18    1
   18    17    19    1
   19    17    20    1
   20    20    21    1
   21    20    22    1
   22    22    23    1
   23    22    24    1
   24    22    25    1
   25    20    26    1
   26    26    27    1
   27    26    28    1
   28    26    29    1
@<TRIPOS>SUBSTRUCTURE
       1 MOL1            1 RESIDUE      1      MOL     
@<SCITEGIC>MOL_PROPERTY
VM2 Rank
SciTegic.value.IntegerValue
3

@<SCITEGIC>MOL_PROPERTY
Conf_Id
SciTegic.value.IntegerValue
58

@<SCITEGIC>MOL_PROPERTY
Probability
SciTegic.value.DoubleValue
5.05

@<SCITEGIC>MOL_PROPERTY
Sum Probability
SciTegic.value.DoubleValue
20.46

@<SCITEGIC>MOL_PROPERTY
Delta G
SciTegic.value.DoubleValue
0.427

@<SCITEGIC>MOL_PROPERTY
G
SciTegic.value.DoubleValue
34.129

@<SCITEGIC>MOL_PROPERTY
E
SciTegic.value.DoubleValue
-3.270

@<SCITEGIC>MOL_PROPERTY
-TS
SciTegic.value.DoubleValue
37.399

@<SCITEGIC>MOL_PROPERTY
U+W
SciTegic.value.DoubleValue
-27.414

@<SCITEGIC>MOL_PROPERTY
U
SciTegic.value.DoubleValue
24.279

@<SCITEGIC>MOL_PROPERTY
W
SciTegic.value.DoubleValue
-51.694

@<SCITEGIC>MOL_PROPERTY
W(PB)
SciTegic.value.DoubleValue
-54.271

@<SCITEGIC>MOL_PROPERTY
W(SA)
SciTegic.value.DoubleValue
2.577

@<SCITEGIC>MOL_PROPERTY
Valence
SciTegic.value.DoubleValue
3.709

@<SCITEGIC>MOL_PROPERTY
Coulomb
SciTegic.value.DoubleValue
19.380

@<SCITEGIC>MOL_PROPERTY
VdW
SciTegic.value.DoubleValue
1.191

@<SCITEGIC>MOL_PROPERTY
VdW6
SciTegic.value.DoubleValue
-8.093

@<SCITEGIC>MOL_PROPERTY
VdW12
SciTegic.value.DoubleValue
9.284

@<SCITEGIC>MOL_PROPERTY
Bond
SciTegic.value.DoubleValue
0.200

@<SCITEGIC>MOL_PROPERTY
Angle
SciTegic.value.DoubleValue
1.161

@<SCITEGIC>MOL_PROPERTY
Pdih
SciTegic.value.DoubleValue
2.348

@<SCITEGIC>MOL_PROPERTY
Idih
SciTegic.value.DoubleValue
0.000

@<SCITEGIC>MOL_PROPERTY
Tether
SciTegic.value.DoubleValue
0.000

@<TRIPOS>MOLECULE
guest-s15_vm2.mol2 : vm2 ligand conformer 4
          29          28           1
SMALL
USER_CHARGES
 
@<TRIPOS>ATOM
       1    C1      18.828585   18.794351   19.403861 C.3        1 MOL1        -0.2426
       2    H1      17.943770   19.429992   19.538374 H          1 MOL1         0.0959
       3    H2      18.881309   18.512040   18.344400 H          1 MOL1         0.0959
       4    H3      18.682874   17.874268   19.983237 H          1 MOL1         0.0959
       5    C2      20.115601   19.536079   19.830421 C.3        1 MOL1        -0.1410
       6    H4      20.282357   20.378559   19.144722 H          1 MOL1         0.0948
       7    H5      20.981774   18.869620   19.715073 H          1 MOL1         0.0948
       8    C3      20.061612   20.078277   21.279047 C.3        1 MOL1        -0.1435
       9    H6      20.961845   20.682021   21.458970 H          1 MOL1         0.0948
      10    H7      19.206184   20.759815   21.383785 H          1 MOL1         0.0948
      11    C4      19.977066   18.965453   22.351021 C.3        1 MOL1        -0.1435
      12    H8      20.804684   18.256822   22.209330 H          1 MOL1         0.0948
      13    H9      19.045525   18.397647   22.227516 H          1 MOL1         0.0948
      14    C5      20.030888   19.543784   23.783150 C.3        1 MOL1        -0.1435
      15    H10     20.965895   20.105524   23.916816 H          1 MOL1         0.0948
      16    H11     19.207145   20.258232   23.913061 H          1 MOL1         0.0948
      17    C6      19.940833   18.430618   24.855146 C.3        1 MOL1        -0.1500
      18    H12     20.738881   17.698237   24.673930 H          1 MOL1         0.0948
      19    H13     18.990249   17.890642   24.751169 H          1 MOL1         0.0948
      20    C7      20.077461   18.969045   26.295750 C.3        1 MOL1         0.1162
      21    H14     21.019017   19.522216   26.367335 H          1 MOL1         0.0910
      22    C8      20.123654   17.805578   27.299001 C.3        1 MOL1        -0.2491
      23    H15     20.257360   18.179648   28.321549 H          1 MOL1         0.0959
      24    H16     19.197632   17.217801   27.268214 H          1 MOL1         0.0959
      25    H17     20.962396   17.133573   27.078358 H          1 MOL1         0.0959
      26    N1      18.980300   19.932816   26.656603 N.4        1 MOL1        -0.5987
      27    H18     18.965447   20.736375   26.022758 H          1 MOL1         0.3605
      28    H19     19.097878   20.294551   27.607388 H          1 MOL1         0.3605
      29    H20     18.060858   19.485611   26.610001 H          1 MOL1         0.3605
@<TRIPOS>BOND
    1     1     2    1
    2     1     3    1
    3     1     4    1
    4     1     5    1
    5     5     6    1
    6     5     7    1
    7     5     8    1
    8     8     9    1
    9     8    10    1
   10     8    11    1
   11    11    12    1
   12    11    13    1
   13    11    14    1
   14    14    15    1
   15    14    16    1
   16    14    17    1
   17    17    18    1
   18    17    19    1
   19    17    20    1
   20    20    21    1
   21    20    22    1
   22    22    23    1
   23    22    24    1
   24    22    25    1
   25    20    26    1
   26    26    27    1
   27    26    28    1
   28    26    29    1
@<TRIPOS>SUBSTRUCTURE
       1 MOL1            1 RESIDUE      1      MOL     
@<SCITEGIC>MOL_PROPERTY
VM2 Rank
SciTegic.value.IntegerValue
4

@<SCITEGIC>MOL_PROPERTY
Conf_Id
SciTegic.value.IntegerValue
1629

@<SCITEGIC>MOL_PROPERTY
Probability
SciTegic.value.DoubleValue
3.88

@<SCITEGIC>MOL_PROPERTY
Sum Probability
SciTegic.value.DoubleValue
24.34

@<SCITEGIC>MOL_PROPERTY
Delta G
SciTegic.value.DoubleValue
0.584

@<SCITEGIC>MOL_PROPERTY
G
SciTegic.value.DoubleValue
34.287

@<SCITEGIC>MOL_PROPERTY
E
SciTegic.value.DoubleValue
-3.209

@<SCITEGIC>MOL_PROPERTY
-TS
SciTegic.value.DoubleValue
37.496

@<SCITEGIC>MOL_PROPERTY
U+W
SciTegic.value.DoubleValue
-27.354

@<SCITEGIC>MOL_PROPERTY
U
SciTegic.value.DoubleValue
24.589

@<SCITEGIC>MOL_PROPERTY
W
SciTegic.value.DoubleValue
-51.942

@<SCITEGIC>MOL_PROPERTY
W(PB)
SciTegic.value.DoubleValue
-54.477

@<SCITEGIC>MOL_PROPERTY
W(SA)
SciTegic.value.DoubleValue
2.535

@<SCITEGIC>MOL_PROPERTY
Valence
SciTegic.value.DoubleValue
3.670

@<SCITEGIC>MOL_PROPERTY
Coulomb
SciTegic.value.DoubleValue
19.723

@<SCITEGIC>MOL_PROPERTY
VdW
SciTegic.value.DoubleValue
1.196

@<SCITEGIC>MOL_PROPERTY
VdW6
SciTegic.value.DoubleValue
-8.561

@<SCITEGIC>MOL_PROPERTY
VdW12
SciTegic.value.DoubleValue
9.756

@<SCITEGIC>MOL_PROPERTY
Bond
SciTegic.value.DoubleValue
0.223

@<SCITEGIC>MOL_PROPERTY
Angle
SciTegic.value.DoubleValue
1.119

@<SCITEGIC>MOL_PROPERTY
Pdih
SciTegic.value.DoubleValue
2.328

@<SCITEGIC>MOL_PROPERTY
Idih
SciTegic.value.DoubleValue
0.000

@<SCITEGIC>MOL_PROPERTY
Tether
SciTegic.value.DoubleValue
0.000

@<TRIPOS>MOLECULE
guest-s15_vm2.mol2 : vm2 ligand conformer 5
          29          28           1
SMALL
USER_CHARGES
 
@<TRIPOS>ATOM
       1    C1      20.485425   18.896889   19.301265 C.3        1 MOL1        -0.2426
       2    H1      21.278359   19.655432   19.331282 H          1 MOL1         0.0959
       3    H2      20.827951   18.018331   19.861860 H          1 MOL1         0.0959
       4    H3      20.353694   18.590036   18.255596 H          1 MOL1         0.0959
       5    C2      19.161668   19.453997   19.872081 C.3        1 MOL1        -0.1410
       6    H4      18.393763   18.667941   19.859205 H          1 MOL1         0.0948
       7    H5      18.797485   20.250566   19.208298 H          1 MOL1         0.0948
       8    C3      19.301338   20.025837   21.303484 C.3        1 MOL1        -0.1435
       9    H6      20.055472   20.824901   21.307214 H          1 MOL1         0.0948
      10    H7      18.349626   20.497555   21.584557 H          1 MOL1         0.0948
      11    C4      19.667679   18.957315   22.361187 C.3        1 MOL1        -0.1435
      12    H8      20.650841   18.526247   22.131099 H          1 MOL1         0.0948
      13    H9      18.940168   18.135022   22.318993 H          1 MOL1         0.0948
      14    C5      19.695217   19.549308   23.788483 C.3        1 MOL1        -0.1435
      15    H10     20.422977   20.371738   23.829338 H          1 MOL1         0.0948
      16    H11     18.711889   19.980651   24.018305 H          1 MOL1         0.0948
      17    C6      20.064470   18.480634   24.845857 C.3        1 MOL1        -0.1500
      18    H12     21.024104   18.024065   24.568826 H          1 MOL1         0.0948
      19    H13     19.318987   17.674327   24.835140 H          1 MOL1         0.0948
      20    C7      20.182670   19.059943   26.272163 C.3        1 MOL1         0.1162
      21    H14     20.911946   19.875657   26.251735 H          1 MOL1         0.0910
      22    C8      20.689146   17.983885   27.245757 C.3        1 MOL1        -0.2491
      23    H15     19.989528   17.140656   27.304470 H          1 MOL1         0.0959
      24    H16     21.664695   17.596833   26.925983 H          1 MOL1         0.0959
      25    H17     20.810208   18.398566   28.254119 H          1 MOL1         0.0959
      26    N1      18.888386   19.648191   26.763722 N.4        1 MOL1        -0.5987
      27    H18     18.990344   20.044858   27.702298 H          1 MOL1         0.3605
      28    H19     18.150265   18.940561   26.808221 H          1 MOL1         0.3605
      29    H20     18.561043   20.397693   26.148273 H          1 MOL1         0.3605
@<TRIPOS>BOND
    1     1     2    1
    2     1     3    1
    3     1     4    1
    4     1     5    1
    5     5     6    1
    6     5     7    1
    7     5     8    1
    8     8     9    1
    9     8    10    1
   10     8    11    1
   11    11    12    1
   12    11    13    1
   13    11    14    1
   14    14    15    1
   15    14    16    1
   16    14    17    1
   17    17    18    1
   18    17    19    1
   19    17    20    1
   20    20    21    1
   21    20    22    1
   22    22    23    1
   23    22    24    1
   24    22    25    1
   25    20    26    1
   26    26    27    1
   27    26    28    1
   28    26    29    1
@<TRIPOS>SUBSTRUCTURE
       1 MOL1            1 RESIDUE      1      MOL     
@<SCITEGIC>MOL_PROPERTY
VM2 Rank
SciTegic.value.IntegerValue
5

@<SCITEGIC>MOL_PROPERTY
Conf_Id
SciTegic.value.IntegerValue
1243

@<SCITEGIC>MOL_PROPERTY
Probability
SciTegic.value.DoubleValue
3.83

@<SCITEGIC>MOL_PROPERTY
Sum Probability
SciTegic.value.DoubleValue
28.17

@<SCITEGIC>MOL_PROPERTY
Delta G
SciTegic.value.DoubleValue
0.591

@<SCITEGIC>MOL_PROPERTY
G
SciTegic.value.DoubleValue
34.293

@<SCITEGIC>MOL_PROPERTY
E
SciTegic.value.DoubleValue
-3.202

@<SCITEGIC>MOL_PROPERTY
-TS
SciTegic.value.DoubleValue
37.495

@<SCITEGIC>MOL_PROPERTY
U+W
SciTegic.value.DoubleValue
-27.346

@<SCITEGIC>MOL_PROPERTY
U
SciTegic.value.DoubleValue
24.574

@<SCITEGIC>MOL_PROPERTY
W
SciTegic.value.DoubleValue
-51.920

@<SCITEGIC>MOL_PROPERTY
W(PB)
SciTegic.value.DoubleValue
-54.457

@<SCITEGIC>MOL_PROPERTY
W(SA)
SciTegic.value.DoubleValue
2.537

@<SCITEGIC>MOL_PROPERTY
Valence
SciTegic.value.DoubleValue
3.669

@<SCITEGIC>MOL_PROPERTY
Coulomb
SciTegic.value.DoubleValue
19.705

@<SCITEGIC>MOL_PROPERTY
VdW
SciTegic.value.DoubleValue
1.200

@<SCITEGIC>MOL_PROPERTY
VdW6
SciTegic.value.DoubleValue
-8.560

@<SCITEGIC>MOL_PROPERTY
VdW12
SciTegic.value.DoubleValue
9.760

@<SCITEGIC>MOL_PROPERTY
Bond
SciTegic.value.DoubleValue
0.223

@<SCITEGIC>MOL_PROPERTY
Angle
SciTegic.value.DoubleValue
1.119

@<SCITEGIC>MOL_PROPERTY
Pdih
SciTegic.value.DoubleValue
2.327

@<SCITEGIC>MOL_PROPERTY
Idih
SciTegic.value.DoubleValue
0.000

@<SCITEGIC>MOL_PROPERTY
Tether
SciTegic.value.DoubleValue
0.000

@<TRIPOS>MOLECULE
guest-s15_vm2.mol2 : vm2 ligand conformer 6
          29          28           1
SMALL
USER_CHARGES
 
@<TRIPOS>ATOM
       1    C1      20.675012   18.987735   19.135352 C.3        1 MOL1        -0.2426
       2    H1      20.335659   18.840168   18.101859 H          1 MOL1         0.0959
       3    H2      21.326049   19.871517   19.153454 H          1 MOL1         0.0959
       4    H3      21.275877   18.114386   19.420764 H          1 MOL1         0.0959
       5    C2      19.470780   19.166600   20.083928 C.3        1 MOL1        -0.1410
       6    H4      18.821350   18.282281   20.019664 H          1 MOL1         0.0948
       7    H5      18.870679   20.025610   19.752488 H          1 MOL1         0.0948
       8    C3      19.921067   19.377212   21.546482 C.3        1 MOL1        -0.1435
       9    H6      20.526953   18.517430   21.860334 H          1 MOL1         0.0948
      10    H7      20.567754   20.263475   21.605824 H          1 MOL1         0.0948
      11    C4      18.713685   19.552139   22.498920 C.3        1 MOL1        -0.1435
      12    H8      18.096511   18.643158   22.486562 H          1 MOL1         0.0948
      13    H9      18.075827   20.362530   22.119707 H          1 MOL1         0.0948
      14    C5      19.114285   19.887801   23.956704 C.3        1 MOL1        -0.1435
      15    H10     19.729294   20.798355   23.968111 H          1 MOL1         0.0948
      16    H11     18.198465   20.126430   24.513137 H          1 MOL1         0.0948
      17    C6      19.869894   18.737944   24.671557 C.3        1 MOL1        -0.1500
      18    H12     20.796868   18.519379   24.127323 H          1 MOL1         0.0948
      19    H13     19.264942   17.821951   24.644036 H          1 MOL1         0.0948
      20    C7      20.234228   19.075092   26.133891 C.3        1 MOL1         0.1162
      21    H14     20.804605   20.009059   26.138711 H          1 MOL1         0.0910
      22    C8      21.116050   17.968100   26.733555 C.3        1 MOL1        -0.2491
      23    H15     22.035605   17.841938   26.148525 H          1 MOL1         0.0959
      24    H16     21.407623   18.217835   27.761189 H          1 MOL1         0.0959
      25    H17     20.588121   17.006379   26.752009 H          1 MOL1         0.0959
      26    N1      19.020998   19.303378   26.993611 N.4        1 MOL1        -0.5987
      27    H18     18.431123   18.468020   27.035520 H          1 MOL1         0.3605
      28    H19     18.446006   20.069663   26.633372 H          1 MOL1         0.3605
      29    H20     19.282990   19.542577   27.954228 H          1 MOL1         0.3605
@<TRIPOS>BOND
    1     1     2    1
    2     1     3    1
    3     1     4    1
    4     1     5    1
    5     5     6    1
    6     5     7    1
    7     5     8    1
    8     8     9    1
    9     8    10    1
   10     8    11    1
   11    11    12    1
   12    11    13    1
   13    11    14    1
   14    14    15    1
   15    14    16    1
   16    14    17    1
   17    17    18    1
   18    17    19    1
   19    17    20    1
   20    20    21    1
   21    20    22    1
   22    22    23    1
   23    22    24    1
   24    22    25    1
   25    20    26    1
   26    26    27    1
   27    26    28    1
   28    26    29    1
@<TRIPOS>SUBSTRUCTURE
       1 MOL1            1 RESIDUE      1      MOL     
@<SCITEGIC>MOL_PROPERTY
VM2 Rank
SciTegic.value.IntegerValue
6

@<SCITEGIC>MOL_PROPERTY
Conf_Id
SciTegic.value.IntegerValue
986

@<SCITEGIC>MOL_PROPERTY
Probability
SciTegic.value.DoubleValue
3.47

@<SCITEGIC>MOL_PROPERTY
Sum Probability
SciTegic.value.DoubleValue
31.64

@<SCITEGIC>MOL_PROPERTY
Delta G
SciTegic.value.DoubleValue
0.651

@<SCITEGIC>MOL_PROPERTY
G
SciTegic.value.DoubleValue
34.353

@<SCITEGIC>MOL_PROPERTY
E
SciTegic.value.DoubleValue
-3.102

@<SCITEGIC>MOL_PROPERTY
-TS
SciTegic.value.DoubleValue
37.455

@<SCITEGIC>MOL_PROPERTY
U+W
SciTegic.value.DoubleValue
-27.247

@<SCITEGIC>MOL_PROPERTY
U
SciTegic.value.DoubleValue
24.711

@<SCITEGIC>MOL_PROPERTY
W
SciTegic.value.DoubleValue
-51.957

@<SCITEGIC>MOL_PROPERTY
W(PB)
SciTegic.value.DoubleValue
-54.510

@<SCITEGIC>MOL_PROPERTY
W(SA)
SciTegic.value.DoubleValue
2.553

@<SCITEGIC>MOL_PROPERTY
Valence
SciTegic.value.DoubleValue
3.735

@<SCITEGIC>MOL_PROPERTY
Coulomb
SciTegic.value.DoubleValue
19.760

@<SCITEGIC>MOL_PROPERTY
VdW
SciTegic.value.DoubleValue
1.216

@<SCITEGIC>MOL_PROPERTY
VdW6
SciTegic.value.DoubleValue
-8.624

@<SCITEGIC>MOL_PROPERTY
VdW12
SciTegic.value.DoubleValue
9.840

@<SCITEGIC>MOL_PROPERTY
Bond
SciTegic.value.DoubleValue
0.236

@<SCITEGIC>MOL_PROPERTY
Angle
SciTegic.value.DoubleValue
1.168

@<SCITEGIC>MOL_PROPERTY
Pdih
SciTegic.value.DoubleValue
2.331

@<SCITEGIC>MOL_PROPERTY
Idih
SciTegic.value.DoubleValue
0.000

@<SCITEGIC>MOL_PROPERTY
Tether
SciTegic.value.DoubleValue
0.000

@<TRIPOS>MOLECULE
guest-s15_vm2.mol2 : vm2 ligand conformer 7
          29          28           1
SMALL
USER_CHARGES
 
@<TRIPOS>ATOM
       1    C1      19.704496   20.025462   19.021278 C.3        1 MOL1        -0.2426
       2    H1      19.242344   19.129887   18.585829 H          1 MOL1         0.0959
       3    H2      18.930287   20.797995   19.116361 H          1 MOL1         0.0959
       4    H3      20.461099   20.391556   18.315180 H          1 MOL1         0.0959
       5    C2      20.343971   19.709781   20.389941 C.3        1 MOL1        -0.1410
       6    H4      20.826740   20.614995   20.784159 H          1 MOL1         0.0948
       7    H5      21.136295   18.959671   20.257829 H          1 MOL1         0.0948
       8    C3      19.299471   19.192045   21.403323 C.3        1 MOL1        -0.1435
       9    H6      18.508585   19.944170   21.530523 H          1 MOL1         0.0948
      10    H7      18.817912   18.288997   21.003298 H          1 MOL1         0.0948
      11    C4      19.936304   18.874312   22.774894 C.3        1 MOL1        -0.1435
      12    H8      20.422354   19.778991   23.163540 H          1 MOL1         0.0948
      13    H9      20.724225   18.119297   22.646255 H          1 MOL1         0.0948
      14    C5      18.887100   18.357842   23.788371 C.3        1 MOL1        -0.1435
      15    H10     18.109097   19.118135   23.938883 H          1 MOL1         0.0948
      16    H11     18.377186   17.482649   23.362483 H          1 MOL1         0.0948
      17    C6      19.503196   17.951452   25.151595 C.3        1 MOL1        -0.1500
      18    H12     20.203574   17.121393   24.988982 H          1 MOL1         0.0948
      19    H13     18.708872   17.559393   25.800606 H          1 MOL1         0.0948
      20    C7      20.240705   19.096439   25.881404 C.3        1 MOL1         0.1162
      21    H14     21.040829   19.461454   25.230796 H          1 MOL1         0.0910
      22    C8      20.878540   18.579367   27.180459 C.3        1 MOL1        -0.2491
      23    H15     21.436829   19.378429   27.683649 H          1 MOL1         0.0959
      24    H16     20.116557   18.204766   27.875423 H          1 MOL1         0.0959
      25    H17     21.581193   17.763098   26.971334 H          1 MOL1         0.0959
      26    N1      19.342217   20.269300   26.162734 N.4        1 MOL1        -0.5987
      27    H18     18.941109   20.644846   25.299014 H          1 MOL1         0.3605
      28    H19     19.851193   21.029654   26.622520 H          1 MOL1         0.3605
      29    H20     18.565663   20.005212   26.774871 H          1 MOL1         0.3605
@<TRIPOS>BOND
    1     1     2    1
    2     1     3    1
    3     1     4    1
    4     1     5    1
    5     5     6    1
    6     5     7    1
    7     5     8    1
    8     8     9    1
    9     8    10    1
   10     8    11    1
   11    11    12    1
   12    11    13    1
   13    11    14    1
   14    14    15    1
   15    14    16    1
   16    14    17    1
   17    17    18    1
   18    17    19    1
   19    17    20    1
   20    20    21    1
   21    20    22    1
   22    22    23    1
   23    22    24    1
   24    22    25    1
   25    20    26    1
   26    26    27    1
   27    26    28    1
   28    26    29    1
@<TRIPOS>SUBSTRUCTURE
       1 MOL1            1 RESIDUE      1      MOL     
@<SCITEGIC>MOL_PROPERTY
VM2 Rank
SciTegic.value.IntegerValue
7

@<SCITEGIC>MOL_PROPERTY
Conf_Id
SciTegic.value.IntegerValue
1223

@<SCITEGIC>MOL_PROPERTY
Probability
SciTegic.value.DoubleValue
3.44

@<SCITEGIC>MOL_PROPERTY
Sum Probability
SciTegic.value.DoubleValue
35.08

@<SCITEGIC>MOL_PROPERTY
Delta G
SciTegic.value.DoubleValue
0.656

@<SCITEGIC>MOL_PROPERTY
G
SciTegic.value.DoubleValue
34.358

@<SCITEGIC>MOL_PROPERTY
E
SciTegic.value.DoubleValue
-3.220

@<SCITEGIC>MOL_PROPERTY
-TS
SciTegic.value.DoubleValue
37.578

@<SCITEGIC>MOL_PROPERTY
U+W
SciTegic.value.DoubleValue
-27.365

@<SCITEGIC>MOL_PROPERTY
U
SciTegic.value.DoubleValue
24.672

@<SCITEGIC>MOL_PROPERTY
W
SciTegic.value.DoubleValue
-52.037

@<SCITEGIC>MOL_PROPERTY
W(PB)
SciTegic.value.DoubleValue
-54.587

@<SCITEGIC>MOL_PROPERTY
W(SA)
SciTegic.value.DoubleValue
2.550

@<SCITEGIC>MOL_PROPERTY
Valence
SciTegic.value.DoubleValue
3.465

@<SCITEGIC>MOL_PROPERTY
Coulomb
SciTegic.value.DoubleValue
20.280

@<SCITEGIC>MOL_PROPERTY
VdW
SciTegic.value.DoubleValue
0.927

@<SCITEGIC>MOL_PROPERTY
VdW6
SciTegic.value.DoubleValue
-8.843

@<SCITEGIC>MOL_PROPERTY
VdW12
SciTegic.value.DoubleValue
9.770

@<SCITEGIC>MOL_PROPERTY
Bond
SciTegic.value.DoubleValue
0.217

@<SCITEGIC>MOL_PROPERTY
Angle
SciTegic.value.DoubleValue
1.094

@<SCITEGIC>MOL_PROPERTY
Pdih
SciTegic.value.DoubleValue
2.153

@<SCITEGIC>MOL_PROPERTY
Idih
SciTegic.value.DoubleValue
0.000

@<SCITEGIC>MOL_PROPERTY
Tether
SciTegic.value.DoubleValue
0.000

@<TRIPOS>MOLECULE
guest-s15_vm2.mol2 : vm2 ligand conformer 8
          29          28           1
SMALL
USER_CHARGES
 
@<TRIPOS>ATOM
       1    C1      18.621619   18.916870   19.291894 C.3        1 MOL1        -0.2426
       2    H1      17.874766   19.712829   19.409815 H          1 MOL1         0.0959
       3    H2      18.857336   18.831438   18.223164 H          1 MOL1         0.0959
       4    H3      18.166883   17.970795   19.613445 H          1 MOL1         0.0959
       5    C2      19.894814   19.225874   20.107631 C.3        1 MOL1        -0.1410
       6    H4      20.345356   20.158530   19.740158 H          1 MOL1         0.0948
       7    H5      20.634945   18.430059   19.943968 H          1 MOL1         0.0948
       8    C3      19.590515   19.352126   21.616776 C.3        1 MOL1        -0.1435
       9    H6      18.851946   20.149944   21.775460 H          1 MOL1         0.0948
      10    H7      19.133025   18.418296   21.968726 H          1 MOL1         0.0948
      11    C4      20.867258   19.657805   22.436174 C.3        1 MOL1        -0.1435
      12    H8      21.352462   20.552525   22.022139 H          1 MOL1         0.0948
      13    H9      21.587177   18.835756   22.321117 H          1 MOL1         0.0948
      14    C5      20.592663   19.900734   23.940471 C.3        1 MOL1        -0.1435
      15    H10     21.531123   20.213420   24.419142 H          1 MOL1         0.0948
      16    H11     19.893947   20.741093   24.048094 H          1 MOL1         0.0948
      17    C6      20.043668   18.651691   24.676196 C.3        1 MOL1        -0.1500
      18    H12     20.700295   17.797289   24.464681 H          1 MOL1         0.0948
      19    H13     19.050687   18.390050   24.289356 H          1 MOL1         0.0948
      20    C7      19.958413   18.847532   26.205165 C.3        1 MOL1         0.1162
      21    H14     20.952061   19.123254   26.571604 H          1 MOL1         0.0910
      22    C8      19.537839   17.537261   26.889686 C.3        1 MOL1        -0.2491
      23    H15     18.542357   17.217267   26.557187 H          1 MOL1         0.0959
      24    H16     20.248825   16.733125   26.662481 H          1 MOL1         0.0959
      25    H17     19.511309   17.659702   27.979505 H          1 MOL1         0.0959
      26    N1      19.029211   19.966106   26.590006 N.4        1 MOL1        -0.5987
      27    H18     19.001508   20.096914   27.605277 H          1 MOL1         0.3605
      28    H19     18.072316   19.779973   26.278274 H          1 MOL1         0.3605
      29    H20     19.322229   20.854429   26.174376 H          1 MOL1         0.3605
@<TRIPOS>BOND
    1     1     2    1
    2     1     3    1
    3     1     4    1
    4     1     5    1
    5     5     6    1
    6     5     7    1
    7     5     8    1
    8     8     9    1
    9     8    10    1
   10     8    11    1
   11    11    12    1
   12    11    13    1
   13    11    14    1
   14    14    15    1
   15    14    16    1
   16    14    17    1
   17    17    18    1
   18    17    19    1
   19    17    20    1
   20    20    21    1
   21    20    22    1
   22    22    23    1
   23    22    24    1
   24    22    25    1
   25    20    26    1
   26    26    27    1
   27    26    28    1
   28    26    29    1
@<TRIPOS>SUBSTRUCTURE
       1 MOL1            1 RESIDUE      1      MOL     
@<SCITEGIC>MOL_PROPERTY
VM2 Rank
SciTegic.value.IntegerValue
8

@<SCITEGIC>MOL_PROPERTY
Conf_Id
SciTegic.value.IntegerValue
1132

@<SCITEGIC>MOL_PROPERTY
Probability
SciTegic.value.DoubleValue
3.40

@<SCITEGIC>MOL_PROPERTY
Sum Probability
SciTegic.value.DoubleValue
38.48

@<SCITEGIC>MOL_PROPERTY
Delta G
SciTegic.value.DoubleValue
0.663

@<SCITEGIC>MOL_PROPERTY
G
SciTegic.value.DoubleValue
34.365

@<SCITEGIC>MOL_PROPERTY
E
SciTegic.value.DoubleValue
-3.137

@<SCITEGIC>MOL_PROPERTY
-TS
SciTegic.value.DoubleValue
37.502

@<SCITEGIC>MOL_PROPERTY
U+W
SciTegic.value.DoubleValue
-27.282

@<SCITEGIC>MOL_PROPERTY
U
SciTegic.value.DoubleValue
24.741

@<SCITEGIC>MOL_PROPERTY
W
SciTegic.value.DoubleValue
-52.022

@<SCITEGIC>MOL_PROPERTY
W(PB)
SciTegic.value.DoubleValue
-54.547

@<SCITEGIC>MOL_PROPERTY
W(SA)
SciTegic.value.DoubleValue
2.525

@<SCITEGIC>MOL_PROPERTY
Valence
SciTegic.value.DoubleValue
3.693

@<SCITEGIC>MOL_PROPERTY
Coulomb
SciTegic.value.DoubleValue
19.919

@<SCITEGIC>MOL_PROPERTY
VdW
SciTegic.value.DoubleValue
1.129

@<SCITEGIC>MOL_PROPERTY
VdW6
SciTegic.value.DoubleValue
-8.666

@<SCITEGIC>MOL_PROPERTY
VdW12
SciTegic.value.DoubleValue
9.794

@<SCITEGIC>MOL_PROPERTY
Bond
SciTegic.value.DoubleValue
0.229

@<SCITEGIC>MOL_PROPERTY
Angle
SciTegic.value.DoubleValue
1.104

@<SCITEGIC>MOL_PROPERTY
Pdih
SciTegic.value.DoubleValue
2.361

@<SCITEGIC>MOL_PROPERTY
Idih
SciTegic.value.DoubleValue
0.000

@<SCITEGIC>MOL_PROPERTY
Tether
SciTegic.value.DoubleValue
0.000

@<TRIPOS>MOLECULE
guest-s15_vm2.mol2 : vm2 ligand conformer 9
          29          28           1
SMALL
USER_CHARGES
 
@<TRIPOS>ATOM
       1    C1      19.169431   20.265853   19.241598 C.3        1 MOL1        -0.2426
       2    H1      19.957708   21.029167   19.206643 H          1 MOL1         0.0959
       3    H2      19.390623   19.510422   18.476330 H          1 MOL1         0.0959
       4    H3      18.220533   20.748536   18.973927 H          1 MOL1         0.0959
       5    C2      19.079079   19.626382   20.643354 C.3        1 MOL1        -0.1410
       6    H4      18.264155   18.889204   20.655450 H          1 MOL1         0.0948
       7    H5      18.816752   20.404075   21.372656 H          1 MOL1         0.0948
       8    C3      20.407743   18.943115   21.044465 C.3        1 MOL1        -0.1435
       9    H6      20.691993   18.228497   20.259710 H          1 MOL1         0.0948
      10    H7      21.211459   19.691168   21.085498 H          1 MOL1         0.0948
      11    C4      20.333924   18.185693   22.393014 C.3        1 MOL1        -0.1435
      12    H8      21.274963   17.636166   22.533647 H          1 MOL1         0.0948
      13    H9      19.538866   17.428710   22.346406 H          1 MOL1         0.0948
      14    C5      20.103313   19.111622   23.611506 C.3        1 MOL1        -0.1435
      15    H10     20.871062   19.897671   23.624600 H          1 MOL1         0.0948
      16    H11     19.132206   19.612349   23.513854 H          1 MOL1         0.0948
      17    C6      20.148953   18.324519   24.943847 C.3        1 MOL1        -0.1500
      18    H12     21.105497   17.788746   25.007345 H          1 MOL1         0.0948
      19    H13     19.360474   17.560154   24.950673 H          1 MOL1         0.0948
      20    C7      20.004445   19.231293   26.185246 C.3        1 MOL1         0.1162
      21    H14     20.783904   19.998272   26.142392 H          1 MOL1         0.0910
      22    C8      20.203062   18.412640   27.470811 C.3        1 MOL1        -0.2491
      23    H15     19.442150   17.627489   27.563022 H          1 MOL1         0.0959
      24    H16     21.190422   17.934311   27.479836 H          1 MOL1         0.0959
      25    H17     20.137915   19.057543   28.355833 H          1 MOL1         0.0959
      26    N1      18.686050   19.954882   26.220160 N.4        1 MOL1        -0.5987
      27    H18     18.559249   20.540946   25.390678 H          1 MOL1         0.3605
      28    H19     18.615845   20.564644   27.039888 H          1 MOL1         0.3605
      29    H20     17.901504   19.298664   26.257952 H          1 MOL1         0.3605
@<TRIPOS>BOND
    1     1     2    1
    2     1     3    1
    3     1     4    1
    4     1     5    1
    5     5     6    1
    6     5     7    1
    7     5     8    1
    8     8     9    1
    9     8    10    1
   10     8    11    1
   11    11    12    1
   12    11    13    1
   13    11    14    1
   14    14    15    1
   15    14    16    1
   16    14    17    1
   17    17    18    1
   18    17    19    1
   19    17    20    1
   20    20    21    1
   21    20    22    1
   22    22    23    1
   23    22    24    1
   24    22    25    1
   25    20    26    1
   26    26    27    1
   27    26    28    1
   28    26    29    1
@<TRIPOS>SUBSTRUCTURE
       1 MOL1            1 RESIDUE      1      MOL     
@<SCITEGIC>MOL_PROPERTY
VM2 Rank
SciTegic.value.IntegerValue
9

@<SCITEGIC>MOL_PROPERTY
Conf_Id
SciTegic.value.IntegerValue
1585

@<SCITEGIC>MOL_PROPERTY
Probability
SciTegic.value.DoubleValue
3.25

@<SCITEGIC>MOL_PROPERTY
Sum Probability
SciTegic.value.DoubleValue
41.74

@<SCITEGIC>MOL_PROPERTY
Delta G
SciTegic.value.DoubleValue
0.689

@<SCITEGIC>MOL_PROPERTY
G
SciTegic.value.DoubleValue
34.391

@<SCITEGIC>MOL_PROPERTY
E
SciTegic.value.DoubleValue
-3.086

@<SCITEGIC>MOL_PROPERTY
-TS
SciTegic.value.DoubleValue
37.478

@<SCITEGIC>MOL_PROPERTY
U+W
SciTegic.value.DoubleValue
-27.231

@<SCITEGIC>MOL_PROPERTY
U
SciTegic.value.DoubleValue
25.011

@<SCITEGIC>MOL_PROPERTY
W
SciTegic.value.DoubleValue
-52.242

@<SCITEGIC>MOL_PROPERTY
W(PB)
SciTegic.value.DoubleValue
-54.753

@<SCITEGIC>MOL_PROPERTY
W(SA)
SciTegic.value.DoubleValue
2.511

@<SCITEGIC>MOL_PROPERTY
Valence
SciTegic.value.DoubleValue
3.709

@<SCITEGIC>MOL_PROPERTY
Coulomb
SciTegic.value.DoubleValue
20.124

@<SCITEGIC>MOL_PROPERTY
VdW
SciTegic.value.DoubleValue
1.178

@<SCITEGIC>MOL_PROPERTY
VdW6
SciTegic.value.DoubleValue
-8.623

@<SCITEGIC>MOL_PROPERTY
VdW12
SciTegic.value.DoubleValue
9.801

@<SCITEGIC>MOL_PROPERTY
Bond
SciTegic.value.DoubleValue
0.228

@<SCITEGIC>MOL_PROPERTY
Angle
SciTegic.value.DoubleValue
1.140

@<SCITEGIC>MOL_PROPERTY
Pdih
SciTegic.value.DoubleValue
2.340

@<SCITEGIC>MOL_PROPERTY
Idih
SciTegic.value.DoubleValue
0.000

@<SCITEGIC>MOL_PROPERTY
Tether
SciTegic.value.DoubleValue
0.000

@<TRIPOS>MOLECULE
guest-s15_vm2.mol2 : vm2 ligand conformer 10
          29          28           1
SMALL
USER_CHARGES
 
@<TRIPOS>ATOM
       1    C1      19.808777   20.325762   19.184531 C.3        1 MOL1        -0.2426
       2    H1      18.877554   20.902935   19.254842 H          1 MOL1         0.0959
       3    H2      20.594088   20.996688   18.812801 H          1 MOL1         0.0959
       4    H3      19.663843   19.531965   18.440141 H          1 MOL1         0.0959
       5    C2      20.200139   19.736096   20.556076 C.3        1 MOL1        -0.1410
       6    H4      20.375915   20.559854   21.260453 H          1 MOL1         0.0948
       7    H5      21.148943   19.189945   20.460327 H          1 MOL1         0.0948
       8    C3      19.105388   18.789637   21.102622 C.3        1 MOL1        -0.1435
       9    H6      18.171029   19.349054   21.248354 H          1 MOL1         0.0948
      10    H7      18.889454   18.020790   20.347931 H          1 MOL1         0.0948
      11    C4      19.499130   18.083210   22.423053 C.3        1 MOL1        -0.1435
      12    H8      20.424213   17.510129   22.271092 H          1 MOL1         0.0948
      13    H9      18.719150   17.349891   22.670542 H          1 MOL1         0.0948
      14    C5      19.674481   19.053706   23.615699 C.3        1 MOL1        -0.1435
      15    H10     20.505694   19.743233   23.417962 H          1 MOL1         0.0948
      16    H11     18.767587   19.664055   23.718984 H          1 MOL1         0.0948
      17    C6      19.953451   18.292778   24.934640 C.3        1 MOL1        -0.1500
      18    H12     20.828618   17.644870   24.791731 H          1 MOL1         0.0948
      19    H13     19.108495   17.631453   25.168480 H          1 MOL1         0.0948
      20    C7      20.221084   19.234695   26.128410 C.3        1 MOL1         0.1162
      21    H14     21.049943   19.898104   25.862845 H          1 MOL1         0.0910
      22    C8      20.630277   18.423429   27.368034 C.3        1 MOL1        -0.2491
      23    H15     19.829068   17.740849   27.678028 H          1 MOL1         0.0959
      24    H16     21.528002   17.826452   27.164401 H          1 MOL1         0.0959
      25    H17     20.857365   19.088900   28.210047 H          1 MOL1         0.0959
      26    N1      19.043274   20.116689   26.440935 N.4        1 MOL1        -0.5987
      27    H18     19.245354   20.747960   27.221529 H          1 MOL1         0.3605
      28    H19     18.221394   19.563732   26.698430 H          1 MOL1         0.3605
      29    H20     18.786421   20.695832   25.637011 H          1 MOL1         0.3605
@<TRIPOS>BOND
    1     1     2    1
    2     1     3    1
    3     1     4    1
    4     1     5    1
    5     5     6    1
    6     5     7    1
    7     5     8    1
    8     8     9    1
    9     8    10    1
   10     8    11    1
   11    11    12    1
   12    11    13    1
   13    11    14    1
   14    14    15    1
   15    14    16    1
   16    14    17    1
   17    17    18    1
   18    17    19    1
   19    17    20    1
   20    20    21    1
   21    20    22    1
   22    22    23    1
   23    22    24    1
   24    22    25    1
   25    20    26    1
   26    26    27    1
   27    26    28    1
   28    26    29    1
@<TRIPOS>SUBSTRUCTURE
       1 MOL1            1 RESIDUE      1      MOL     
@<SCITEGIC>MOL_PROPERTY
VM2 Rank
SciTegic.value.IntegerValue
10

@<SCITEGIC>MOL_PROPERTY
Conf_Id
SciTegic.value.IntegerValue
1118

@<SCITEGIC>MOL_PROPERTY
Probability
SciTegic.value.DoubleValue
3.19

@<SCITEGIC>MOL_PROPERTY
Sum Probability
SciTegic.value.DoubleValue
44.92

@<SCITEGIC>MOL_PROPERTY
Delta G
SciTegic.value.DoubleValue
0.701

@<SCITEGIC>MOL_PROPERTY
G
SciTegic.value.DoubleValue
34.404

@<SCITEGIC>MOL_PROPERTY
E
SciTegic.value.DoubleValue
-3.082

@<SCITEGIC>MOL_PROPERTY
-TS
SciTegic.value.DoubleValue
37.486

@<SCITEGIC>MOL_PROPERTY
U+W
SciTegic.value.DoubleValue
-27.227

@<SCITEGIC>MOL_PROPERTY
U
SciTegic.value.DoubleValue
24.820

@<SCITEGIC>MOL_PROPERTY
W
SciTegic.value.DoubleValue
-52.047

@<SCITEGIC>MOL_PROPERTY
W(PB)
SciTegic.value.DoubleValue
-54.562

@<SCITEGIC>MOL_PROPERTY
W(SA)
SciTegic.value.DoubleValue
2.514

@<SCITEGIC>MOL_PROPERTY
Valence
SciTegic.value.DoubleValue
3.711

@<SCITEGIC>MOL_PROPERTY
Coulomb
SciTegic.value.DoubleValue
19.938

@<SCITEGIC>MOL_PROPERTY
VdW
SciTegic.value.DoubleValue
1.171

@<SCITEGIC>MOL_PROPERTY
VdW6
SciTegic.value.DoubleValue
-8.614

@<SCITEGIC>MOL_PROPERTY
VdW12
SciTegic.value.DoubleValue
9.786

@<SCITEGIC>MOL_PROPERTY
Bond
SciTegic.value.DoubleValue
0.226

@<SCITEGIC>MOL_PROPERTY
Angle
SciTegic.value.DoubleValue
1.142

@<SCITEGIC>MOL_PROPERTY
Pdih
SciTegic.value.DoubleValue
2.342

@<SCITEGIC>MOL_PROPERTY
Idih
SciTegic.value.DoubleValue
0.000

@<SCITEGIC>MOL_PROPERTY
Tether
SciTegic.value.DoubleValue
0.000

@<TRIPOS>MOLECULE
guest-s15_vm2.mol2 : vm2 ligand conformer 11
          29          28           1
SMALL
USER_CHARGES
 
@<TRIPOS>ATOM
       1    C1      20.202279   19.677334   18.979566 C.3        1 MOL1        -0.2426
       2    H1      21.209964   19.243784   18.936510 H          1 MOL1         0.0959
       3    H2      19.497124   18.945627   18.564097 H          1 MOL1         0.0959
       4    H3      20.188729   20.563750   18.332165 H          1 MOL1         0.0959
       5    C2      19.821982   20.053928   20.427100 C.3        1 MOL1        -0.1410
       6    H4      18.824457   20.515223   20.433744 H          1 MOL1         0.0948
       7    H5      20.524144   20.811177   20.803169 H          1 MOL1         0.0948
       8    C3      19.833413   18.822849   21.359971 C.3        1 MOL1        -0.1435
       9    H6      19.132130   18.067924   20.978279 H          1 MOL1         0.0948
      10    H7      20.831773   18.363984   21.348575 H          1 MOL1         0.0948
      11    C4      19.452982   19.195994   22.810379 C.3        1 MOL1        -0.1435
      12    H8      18.453024   19.651342   22.821220 H          1 MOL1         0.0948
      13    H9      20.153971   19.955501   23.181450 H          1 MOL1         0.0948
      14    C5      19.468896   17.961410   23.743089 C.3        1 MOL1        -0.1435
      15    H10     18.804592   17.190103   23.329491 H          1 MOL1         0.0948
      16    H11     20.473250   17.517781   23.757068 H          1 MOL1         0.0948
      17    C6      19.007779   18.281479   25.188470 C.3        1 MOL1        -0.1500
      18    H12     19.030318   17.358590   25.783063 H          1 MOL1         0.0948
      19    H13     17.956350   18.596064   25.154765 H          1 MOL1         0.0948
      20    C7      19.828726   19.374820   25.912201 C.3        1 MOL1         0.1162
      21    H14     19.792051   20.288667   25.311979 H          1 MOL1         0.0910
      22    C8      21.302248   18.968475   26.091442 C.3        1 MOL1        -0.2491
      23    H15     21.850656   19.738418   26.647965 H          1 MOL1         0.0959
      24    H16     21.388956   18.023492   26.642014 H          1 MOL1         0.0959
      25    H17     21.802492   18.849589   25.123269 H          1 MOL1         0.0959
      26    N1      19.217695   19.719711   27.241782 N.4        1 MOL1        -0.5987
      27    H18     18.248137   20.033923   27.141210 H          1 MOL1         0.3605
      28    H19     19.734691   20.471030   27.707541 H          1 MOL1         0.3605
      29    H20     19.215934   18.913719   27.872756 H          1 MOL1         0.3605
@<TRIPOS>BOND
    1     1     2    1
    2     1     3    1
    3     1     4    1
    4     1     5    1
    5     5     6    1
    6     5     7    1
    7     5     8    1
    8     8     9    1
    9     8    10    1
   10     8    11    1
   11    11    12    1
   12    11    13    1
   13    11    14    1
   14    14    15    1
   15    14    16    1
   16    14    17    1
   17    17    18    1
   18    17    19    1
   19    17    20    1
   20    20    21    1
   21    20    22    1
   22    22    23    1
   23    22    24    1
   24    22    25    1
   25    20    26    1
   26    26    27    1
   27    26    28    1
   28    26    29    1
@<TRIPOS>SUBSTRUCTURE
       1 MOL1            1 RESIDUE      1      MOL     
@<SCITEGIC>MOL_PROPERTY
VM2 Rank
SciTegic.value.IntegerValue
11

@<SCITEGIC>MOL_PROPERTY
Conf_Id
SciTegic.value.IntegerValue
1361

@<SCITEGIC>MOL_PROPERTY
Probability
SciTegic.value.DoubleValue
2.24

@<SCITEGIC>MOL_PROPERTY
Sum Probability
SciTegic.value.DoubleValue
47.16

@<SCITEGIC>MOL_PROPERTY
Delta G
SciTegic.value.DoubleValue
0.912

@<SCITEGIC>MOL_PROPERTY
G
SciTegic.value.DoubleValue
34.614

@<SCITEGIC>MOL_PROPERTY
E
SciTegic.value.DoubleValue
-3.060

@<SCITEGIC>MOL_PROPERTY
-TS
SciTegic.value.DoubleValue
37.674

@<SCITEGIC>MOL_PROPERTY
U+W
SciTegic.value.DoubleValue
-27.205

@<SCITEGIC>MOL_PROPERTY
U
SciTegic.value.DoubleValue
24.848

@<SCITEGIC>MOL_PROPERTY
W
SciTegic.value.DoubleValue
-52.052

@<SCITEGIC>MOL_PROPERTY
W(PB)
SciTegic.value.DoubleValue
-54.585

@<SCITEGIC>MOL_PROPERTY
W(SA)
SciTegic.value.DoubleValue
2.533

@<SCITEGIC>MOL_PROPERTY
Valence
SciTegic.value.DoubleValue
3.959

@<SCITEGIC>MOL_PROPERTY
Coulomb
SciTegic.value.DoubleValue
19.891

@<SCITEGIC>MOL_PROPERTY
VdW
SciTegic.value.DoubleValue
0.998

@<SCITEGIC>MOL_PROPERTY
VdW6
SciTegic.value.DoubleValue
-9.070

@<SCITEGIC>MOL_PROPERTY
VdW12
SciTegic.value.DoubleValue
10.067

@<SCITEGIC>MOL_PROPERTY
Bond
SciTegic.value.DoubleValue
0.229

@<SCITEGIC>MOL_PROPERTY
Angle
SciTegic.value.DoubleValue
1.422

@<SCITEGIC>MOL_PROPERTY
Pdih
SciTegic.value.DoubleValue
2.308

@<SCITEGIC>MOL_PROPERTY
Idih
SciTegic.value.DoubleValue
0.000

@<SCITEGIC>MOL_PROPERTY
Tether
SciTegic.value.DoubleValue
0.000

@<TRIPOS>MOLECULE
guest-s15_vm2.mol2 : vm2 ligand conformer 12
          29          28           1
SMALL
USER_CHARGES
 
@<TRIPOS>ATOM
       1    C1      19.100013   20.045720   19.397683 C.3        1 MOL1        -0.2426
       2    H1      19.703269   20.961684   19.443769 H          1 MOL1         0.0959
       3    H2      18.734330   19.935921   18.368532 H          1 MOL1         0.0959
       4    H3      18.224919   20.176757   20.046137 H          1 MOL1         0.0959
       5    C2      19.932588   18.810756   19.810237 C.3        1 MOL1        -0.1410
       6    H4      20.722565   18.650878   19.063150 H          1 MOL1         0.0948
       7    H5      19.299374   17.912903   19.785165 H          1 MOL1         0.0948
       8    C3      20.589110   18.949438   21.204924 C.3        1 MOL1        -0.1435
       9    H6      21.246772   18.084454   21.367913 H          1 MOL1         0.0948
      10    H7      21.236537   19.837064   21.218900 H          1 MOL1         0.0948
      11    C4      19.565636   19.031515   22.362727 C.3        1 MOL1        -0.1435
      12    H8      18.887515   18.168344   22.314687 H          1 MOL1         0.0948
      13    H9      18.946409   19.931083   22.250069 H          1 MOL1         0.0948
      14    C5      20.261941   19.064418   23.742176 C.3        1 MOL1        -0.1435
      15    H10     20.882322   18.165206   23.850814 H          1 MOL1         0.0948
      16    H11     20.938855   19.928705   23.790126 H          1 MOL1         0.0948
      17    C6      19.237429   19.145571   24.900493 C.3        1 MOL1        -0.1500
      18    H12     18.600584   18.250963   24.895019 H          1 MOL1         0.0948
      19    H13     18.573387   20.001306   24.720261 H          1 MOL1         0.0948
      20    C7      19.884723   19.314680   26.293992 C.3        1 MOL1         0.1162
      21    H14     20.545741   20.186265   26.261953 H          1 MOL1         0.0910
      22    C8      20.717747   18.085784   26.700398 C.3        1 MOL1        -0.2491
      23    H15     20.110570   17.172102   26.685078 H          1 MOL1         0.0959
      24    H16     21.571828   17.942717   26.028504 H          1 MOL1         0.0959
      25    H17     21.120010   18.209773   27.713398 H          1 MOL1         0.0959
      26    N1      18.846812   19.608117   27.341369 N.4        1 MOL1        -0.5987
      27    H18     19.274476   19.760119   28.259372 H          1 MOL1         0.3605
      28    H19     18.183552   18.834441   27.437732 H          1 MOL1         0.3605
      29    H20     18.308182   20.448867   27.113502 H          1 MOL1         0.3605
@<TRIPOS>BOND
    1     1     2    1
    2     1     3    1
    3     1     4    1
    4     1     5    1
    5     5     6    1
    6     5     7    1
    7     5     8    1
    8     8     9    1
    9     8    10    1
   10     8    11    1
   11    11    12    1
   12    11    13    1
   13    11    14    1
   14    14    15    1
   15    14    16    1
   16    14    17    1
   17    17    18    1
   18    17    19    1
   19    17    20    1
   20    20    21    1
   21    20    22    1
   22    22    23    1
   23    22    24    1
   24    22    25    1
   25    20    26    1
   26    26    27    1
   27    26    28    1
   28    26    29    1
@<TRIPOS>SUBSTRUCTURE
       1 MOL1            1 RESIDUE      1      MOL     
@<SCITEGIC>MOL_PROPERTY
VM2 Rank
SciTegic.value.IntegerValue
12

@<SCITEGIC>MOL_PROPERTY
Conf_Id
SciTegic.value.IntegerValue
1356

@<SCITEGIC>MOL_PROPERTY
Probability
SciTegic.value.DoubleValue
1.85

@<SCITEGIC>MOL_PROPERTY
Sum Probability
SciTegic.value.DoubleValue
49.01

@<SCITEGIC>MOL_PROPERTY
Delta G
SciTegic.value.DoubleValue
1.026

@<SCITEGIC>MOL_PROPERTY
G
SciTegic.value.DoubleValue
34.728

@<SCITEGIC>MOL_PROPERTY
E
SciTegic.value.DoubleValue
-2.781

@<SCITEGIC>MOL_PROPERTY
-TS
SciTegic.value.DoubleValue
37.509

@<SCITEGIC>MOL_PROPERTY
U+W
SciTegic.value.DoubleValue
-26.925

@<SCITEGIC>MOL_PROPERTY
U
SciTegic.value.DoubleValue
24.926

@<SCITEGIC>MOL_PROPERTY
W
SciTegic.value.DoubleValue
-51.852

@<SCITEGIC>MOL_PROPERTY
W(PB)
SciTegic.value.DoubleValue
-54.366

@<SCITEGIC>MOL_PROPERTY
W(SA)
SciTegic.value.DoubleValue
2.514

@<SCITEGIC>MOL_PROPERTY
Valence
SciTegic.value.DoubleValue
4.212

@<SCITEGIC>MOL_PROPERTY
Coulomb
SciTegic.value.DoubleValue
19.386

@<SCITEGIC>MOL_PROPERTY
VdW
SciTegic.value.DoubleValue
1.329

@<SCITEGIC>MOL_PROPERTY
VdW6
SciTegic.value.DoubleValue
-8.714

@<SCITEGIC>MOL_PROPERTY
VdW12
SciTegic.value.DoubleValue
10.043

@<SCITEGIC>MOL_PROPERTY
Bond
SciTegic.value.DoubleValue
0.235

@<SCITEGIC>MOL_PROPERTY
Angle
SciTegic.value.DoubleValue
1.399

@<SCITEGIC>MOL_PROPERTY
Pdih
SciTegic.value.DoubleValue
2.577

@<SCITEGIC>MOL_PROPERTY
Idih
SciTegic.value.DoubleValue
0.000

@<SCITEGIC>MOL_PROPERTY
Tether
SciTegic.value.DoubleValue
0.000

@<TRIPOS>MOLECULE
guest-s15_vm2.mol2 : vm2 ligand conformer 13
          29          28           1
SMALL
USER_CHARGES
 
@<TRIPOS>ATOM
       1    C1      18.912372   18.726146   19.381512 C.3        1 MOL1        -0.2426
       2    H1      18.033670   18.802753   20.033794 H          1 MOL1         0.0959
       3    H2      18.589273   18.975110   18.362416 H          1 MOL1         0.0959
       4    H3      19.250944   17.681925   19.380765 H          1 MOL1         0.0959
       5    C2      20.042643   19.676384   19.837639 C.3        1 MOL1        -0.1410
       6    H4      19.670393   20.710166   19.858825 H          1 MOL1         0.0948
       7    H5      20.847070   19.654476   19.089187 H          1 MOL1         0.0948
       8    C3      20.638122   19.306114   21.217381 C.3        1 MOL1        -0.1435
       9    H6      21.027127   18.279048   21.185125 H          1 MOL1         0.0948
      10    H7      21.501396   19.957803   21.410662 H          1 MOL1         0.0948
      11    C4      19.628821   19.445980   22.382046 C.3        1 MOL1        -0.1435
      12    H8      18.793634   18.747884   22.238692 H          1 MOL1         0.0948
      13    H9      19.203298   20.458942   22.378008 H          1 MOL1         0.0948
      14    C5      20.290828   19.168136   23.750723 C.3        1 MOL1        -0.1435
      15    H10     20.722846   18.158902   23.739344 H          1 MOL1         0.0948
      16    H11     21.121314   19.870698   23.906169 H          1 MOL1         0.0948
      17    C6      19.278580   19.299948   24.915127 C.3        1 MOL1        -0.1500
      18    H12     18.480793   18.554356   24.798687 H          1 MOL1         0.0948
      19    H13     18.796549   20.284328   24.849048 H          1 MOL1         0.0948
      20    C7      19.918591   19.162323   26.315425 C.3        1 MOL1         0.1162
      21    H14     20.736543   19.885362   26.391577 H          1 MOL1         0.0910
      22    C8      20.489330   17.753370   26.557033 C.3        1 MOL1        -0.2491
      23    H15     19.716881   16.984921   26.428492 H          1 MOL1         0.0959
      24    H16     21.312395   17.532636   25.867680 H          1 MOL1         0.0959
      25    H17     20.888112   17.667641   27.575355 H          1 MOL1         0.0959
      26    N1      18.936713   19.517599   27.397113 N.4        1 MOL1        -0.5987
      27    H18     18.575875   20.469070   27.281311 H          1 MOL1         0.3605
      28    H19     19.367479   19.466233   28.324764 H          1 MOL1         0.3605
      29    H20     18.134299   18.882066   27.397338 H          1 MOL1         0.3605
@<TRIPOS>BOND
    1     1     2    1
    2     1     3    1
    3     1     4    1
    4     1     5    1
    5     5     6    1
    6     5     7    1
    7     5     8    1
    8     8     9    1
    9     8    10    1
   10     8    11    1
   11    11    12    1
   12    11    13    1
   13    11    14    1
   14    14    15    1
   15    14    16    1
   16    14    17    1
   17    17    18    1
   18    17    19    1
   19    17    20    1
   20    20    21    1
   21    20    22    1
   22    22    23    1
   23    22    24    1
   24    22    25    1
   25    20    26    1
   26    26    27    1
   27    26    28    1
   28    26    29    1
@<TRIPOS>SUBSTRUCTURE
       1 MOL1            1 RESIDUE      1      MOL     
@<SCITEGIC>MOL_PROPERTY
VM2 Rank
SciTegic.value.IntegerValue
13

@<SCITEGIC>MOL_PROPERTY
Conf_Id
SciTegic.value.IntegerValue
1524

@<SCITEGIC>MOL_PROPERTY
Probability
SciTegic.value.DoubleValue
1.68

@<SCITEGIC>MOL_PROPERTY
Sum Probability
SciTegic.value.DoubleValue
50.69

@<SCITEGIC>MOL_PROPERTY
Delta G
SciTegic.value.DoubleValue
1.082

@<SCITEGIC>MOL_PROPERTY
G
SciTegic.value.DoubleValue
34.784

@<SCITEGIC>MOL_PROPERTY
E
SciTegic.value.DoubleValue
-2.725

@<SCITEGIC>MOL_PROPERTY
-TS
SciTegic.value.DoubleValue
37.509

@<SCITEGIC>MOL_PROPERTY
U+W
SciTegic.value.DoubleValue
-26.870

@<SCITEGIC>MOL_PROPERTY
U
SciTegic.value.DoubleValue
24.913

@<SCITEGIC>MOL_PROPERTY
W
SciTegic.value.DoubleValue
-51.782

@<SCITEGIC>MOL_PROPERTY
W(PB)
SciTegic.value.DoubleValue
-54.309

@<SCITEGIC>MOL_PROPERTY
W(SA)
SciTegic.value.DoubleValue
2.527

@<SCITEGIC>MOL_PROPERTY
Valence
SciTegic.value.DoubleValue
4.213

@<SCITEGIC>MOL_PROPERTY
Coulomb
SciTegic.value.DoubleValue
19.377

@<SCITEGIC>MOL_PROPERTY
VdW
SciTegic.value.DoubleValue
1.323

@<SCITEGIC>MOL_PROPERTY
VdW6
SciTegic.value.DoubleValue
-8.715

@<SCITEGIC>MOL_PROPERTY
VdW12
SciTegic.value.DoubleValue
10.039

@<SCITEGIC>MOL_PROPERTY
Bond
SciTegic.value.DoubleValue
0.234

@<SCITEGIC>MOL_PROPERTY
Angle
SciTegic.value.DoubleValue
1.400

@<SCITEGIC>MOL_PROPERTY
Pdih
SciTegic.value.DoubleValue
2.579

@<SCITEGIC>MOL_PROPERTY
Idih
SciTegic.value.DoubleValue
0.000

@<SCITEGIC>MOL_PROPERTY
Tether
SciTegic.value.DoubleValue
0.000

@<TRIPOS>MOLECULE
guest-s15_vm2.mol2 : vm2 ligand conformer 14
          29          28           1
SMALL
USER_CHARGES
 
@<TRIPOS>ATOM
       1    C1      20.459345   19.912922   19.135778 C.3        1 MOL1        -0.2426
       2    H1      19.739275   19.478897   18.429834 H          1 MOL1         0.0959
       3    H2      20.683333   20.934684   18.802804 H          1 MOL1         0.0959
       4    H3      21.387371   19.329038   19.080117 H          1 MOL1         0.0959
       5    C2      19.894060   19.919463   20.571886 C.3        1 MOL1        -0.1410
       6    H4      18.983747   20.534352   20.602166 H          1 MOL1         0.0948
       7    H5      20.623750   20.396695   21.239300 H          1 MOL1         0.0948
       8    C3      19.574557   18.488447   21.064912 C.3        1 MOL1        -0.1435
       9    H6      18.906520   18.002437   20.340460 H          1 MOL1         0.0948
      10    H7      20.495364   17.889332   21.084795 H          1 MOL1         0.0948
      11    C4      18.899105   18.448848   22.457696 C.3        1 MOL1        -0.1435
      12    H8      18.606202   17.411780   22.672357 H          1 MOL1         0.0948
      13    H9      17.968837   19.032961   22.431109 H          1 MOL1         0.0948
      14    C5      19.807440   18.962306   23.600784 C.3        1 MOL1        -0.1435
      15    H10     20.758368   18.414401   23.574687 H          1 MOL1         0.0948
      16    H11     20.042336   20.023329   23.444789 H          1 MOL1         0.0948
      17    C6      19.134586   18.792178   24.985031 C.3        1 MOL1        -0.1500
      18    H12     18.961089   17.726326   25.184468 H          1 MOL1         0.0948
      19    H13     18.145453   19.267942   24.953109 H          1 MOL1         0.0948
      20    C7      19.938920   19.414415   26.149198 C.3        1 MOL1         0.1162
      21    H14     20.133047   20.464440   25.909649 H          1 MOL1         0.0910
      22    C8      21.288377   18.706515   26.366175 C.3        1 MOL1        -0.2491
      23    H15     21.148928   17.633506   26.547610 H          1 MOL1         0.0959
      24    H16     21.945858   18.826028   25.497363 H          1 MOL1         0.0959
      25    H17     21.813200   19.132116   27.230339 H          1 MOL1         0.0959
      26    N1      19.139610   19.410906   27.422540 N.4        1 MOL1        -0.5987
      27    H18     18.254900   19.915281   27.313918 H          1 MOL1         0.3605
      28    H19     19.652970   19.857984   28.187593 H          1 MOL1         0.3605
      29    H20     18.915744   18.457694   27.720943 H          1 MOL1         0.3605
@<TRIPOS>BOND
    1     1     2    1
    2     1     3    1
    3     1     4    1
    4     1     5    1
    5     5     6    1
    6     5     7    1
    7     5     8    1
    8     8     9    1
    9     8    10    1
   10     8    11    1
   11    11    12    1
   12    11    13    1
   13    11    14    1
   14    14    15    1
   15    14    16    1
   16    14    17    1
   17    17    18    1
   18    17    19    1
   19    17    20    1
   20    20    21    1
   21    20    22    1
   22    22    23    1
   23    22    24    1
   24    22    25    1
   25    20    26    1
   26    26    27    1
   27    26    28    1
   28    26    29    1
@<TRIPOS>SUBSTRUCTURE
       1 MOL1            1 RESIDUE      1      MOL     
@<SCITEGIC>MOL_PROPERTY
VM2 Rank
SciTegic.value.IntegerValue
14

@<SCITEGIC>MOL_PROPERTY
Conf_Id
SciTegic.value.IntegerValue
1512

@<SCITEGIC>MOL_PROPERTY
Probability
SciTegic.value.DoubleValue
1.68

@<SCITEGIC>MOL_PROPERTY
Sum Probability
SciTegic.value.DoubleValue
52.37

@<SCITEGIC>MOL_PROPERTY
Delta G
SciTegic.value.DoubleValue
1.084

@<SCITEGIC>MOL_PROPERTY
G
SciTegic.value.DoubleValue
34.786

@<SCITEGIC>MOL_PROPERTY
E
SciTegic.value.DoubleValue
-2.715

@<SCITEGIC>MOL_PROPERTY
-TS
SciTegic.value.DoubleValue
37.501

@<SCITEGIC>MOL_PROPERTY
U+W
SciTegic.value.DoubleValue
-26.860

@<SCITEGIC>MOL_PROPERTY
U
SciTegic.value.DoubleValue
25.087

@<SCITEGIC>MOL_PROPERTY
W
SciTegic.value.DoubleValue
-51.946

@<SCITEGIC>MOL_PROPERTY
W(PB)
SciTegic.value.DoubleValue
-54.500

@<SCITEGIC>MOL_PROPERTY
W(SA)
SciTegic.value.DoubleValue
2.553

@<SCITEGIC>MOL_PROPERTY
Valence
SciTegic.value.DoubleValue
4.250

@<SCITEGIC>MOL_PROPERTY
Coulomb
SciTegic.value.DoubleValue
19.539

@<SCITEGIC>MOL_PROPERTY
VdW
SciTegic.value.DoubleValue
1.297

@<SCITEGIC>MOL_PROPERTY
VdW6
SciTegic.value.DoubleValue
-8.776

@<SCITEGIC>MOL_PROPERTY
VdW12
SciTegic.value.DoubleValue
10.072

@<SCITEGIC>MOL_PROPERTY
Bond
SciTegic.value.DoubleValue
0.238

@<SCITEGIC>MOL_PROPERTY
Angle
SciTegic.value.DoubleValue
1.421

@<SCITEGIC>MOL_PROPERTY
Pdih
SciTegic.value.DoubleValue
2.591

@<SCITEGIC>MOL_PROPERTY
Idih
SciTegic.value.DoubleValue
0.000

@<SCITEGIC>MOL_PROPERTY
Tether
SciTegic.value.DoubleValue
0.000

@<TRIPOS>MOLECULE
guest-s15_vm2.mol2 : vm2 ligand conformer 15
          29          28           1
SMALL
USER_CHARGES
 
@<TRIPOS>ATOM
       1    C1      20.683454   19.459315   19.171781 C.3        1 MOL1        -0.2426
       2    H1      21.387670   20.246248   19.471866 H          1 MOL1         0.0959
       3    H2      21.223902   18.503823   19.157854 H          1 MOL1         0.0959
       4    H3      20.353609   19.674991   18.147220 H          1 MOL1         0.0959
       5    C2      19.476329   19.399641   20.131589 C.3        1 MOL1        -0.1410
       6    H4      18.774100   18.628082   19.785990 H          1 MOL1         0.0948
       7    H5      18.937047   20.356738   20.099383 H          1 MOL1         0.0948
       8    C3      19.913216   19.096299   21.581824 C.3        1 MOL1        -0.1435
       9    H6      20.449838   18.137931   21.609245 H          1 MOL1         0.0948
      10    H7      20.620713   19.868497   21.910795 H          1 MOL1         0.0948
      11    C4      18.703792   19.040474   22.545828 C.3        1 MOL1        -0.1435
      12    H8      17.970716   18.319888   22.157606 H          1 MOL1         0.0948
      13    H9      18.197810   20.015646   22.562867 H          1 MOL1         0.0948
      14    C5      19.080689   18.625696   23.989301 C.3        1 MOL1        -0.1435
      15    H10     18.152267   18.498160   24.561035 H          1 MOL1         0.0948
      16    H11     19.567355   17.641711   23.963799 H          1 MOL1         0.0948
      17    C6      19.994957   19.656078   24.706763 C.3        1 MOL1        -0.1500
      18    H12     19.545526   20.654622   24.628183 H          1 MOL1         0.0948
      19    H13     20.960921   19.716015   24.190116 H          1 MOL1         0.0948
      20    C7      20.263426   19.355949   26.200389 C.3        1 MOL1         0.1162
      21    H14     20.905231   20.155863   26.582474 H          1 MOL1         0.0910
      22    C8      21.010600   18.025380   26.396683 C.3        1 MOL1        -0.2491
      23    H15     21.924142   17.998104   25.789816 H          1 MOL1         0.0959
      24    H16     21.304629   17.901735   27.446184 H          1 MOL1         0.0959
      25    H17     20.387910   17.166338   26.119799 H          1 MOL1         0.0959
      26    N1      19.009538   19.397167   27.029842 N.4        1 MOL1        -0.5987
      27    H18     19.213873   19.259134   28.023744 H          1 MOL1         0.3605
      28    H19     18.352873   18.665571   26.746982 H          1 MOL1         0.3605
      29    H20     18.528245   20.296423   26.938175 H          1 MOL1         0.3605
@<TRIPOS>BOND
    1     1     2    1
    2     1     3    1
    3     1     4    1
    4     1     5    1
    5     5     6    1
    6     5     7    1
    7     5     8    1
    8     8     9    1
    9     8    10    1
   10     8    11    1
   11    11    12    1
   12    11    13    1
   13    11    14    1
   14    14    15    1
   15    14    16    1
   16    14    17    1
   17    17    18    1
   18    17    19    1
   19    17    20    1
   20    20    21    1
   21    20    22    1
   22    22    23    1
   23    22    24    1
   24    22    25    1
   25    20    26    1
   26    26    27    1
   27    26    28    1
   28    26    29    1
@<TRIPOS>SUBSTRUCTURE
       1 MOL1            1 RESIDUE      1      MOL     
@<SCITEGIC>MOL_PROPERTY
VM2 Rank
SciTegic.value.IntegerValue
15

@<SCITEGIC>MOL_PROPERTY
Conf_Id
SciTegic.value.IntegerValue
1658

@<SCITEGIC>MOL_PROPERTY
Probability
SciTegic.value.DoubleValue
1.66

@<SCITEGIC>MOL_PROPERTY
Sum Probability
SciTegic.value.DoubleValue
54.03

@<SCITEGIC>MOL_PROPERTY
Delta G
SciTegic.value.DoubleValue
1.090

@<SCITEGIC>MOL_PROPERTY
G
SciTegic.value.DoubleValue
34.792

@<SCITEGIC>MOL_PROPERTY
E
SciTegic.value.DoubleValue
-2.851

@<SCITEGIC>MOL_PROPERTY
-TS
SciTegic.value.DoubleValue
37.643

@<SCITEGIC>MOL_PROPERTY
U+W
SciTegic.value.DoubleValue
-26.995

@<SCITEGIC>MOL_PROPERTY
U
SciTegic.value.DoubleValue
25.162

@<SCITEGIC>MOL_PROPERTY
W
SciTegic.value.DoubleValue
-52.157

@<SCITEGIC>MOL_PROPERTY
W(PB)
SciTegic.value.DoubleValue
-54.678

@<SCITEGIC>MOL_PROPERTY
W(SA)
SciTegic.value.DoubleValue
2.521

@<SCITEGIC>MOL_PROPERTY
Valence
SciTegic.value.DoubleValue
4.202

@<SCITEGIC>MOL_PROPERTY
Coulomb
SciTegic.value.DoubleValue
19.686

@<SCITEGIC>MOL_PROPERTY
VdW
SciTegic.value.DoubleValue
1.273

@<SCITEGIC>MOL_PROPERTY
VdW6
SciTegic.value.DoubleValue
-9.288

@<SCITEGIC>MOL_PROPERTY
VdW12
SciTegic.value.DoubleValue
10.561

@<SCITEGIC>MOL_PROPERTY
Bond
SciTegic.value.DoubleValue
0.271

@<SCITEGIC>MOL_PROPERTY
Angle
SciTegic.value.DoubleValue
1.436

@<SCITEGIC>MOL_PROPERTY
Pdih
SciTegic.value.DoubleValue
2.495

@<SCITEGIC>MOL_PROPERTY
Idih
SciTegic.value.DoubleValue
0.000

@<SCITEGIC>MOL_PROPERTY
Tether
SciTegic.value.DoubleValue
0.000

@<TRIPOS>MOLECULE
guest-s15_vm2.mol2 : vm2 ligand conformer 16
          29          28           1
SMALL
USER_CHARGES
 
@<TRIPOS>ATOM
       1    C1      18.574170   19.229243   19.295303 C.3        1 MOL1        -0.2426
       2    H1      18.324938   18.160135   19.283610 H          1 MOL1         0.0959
       3    H2      17.717223   19.775707   19.710338 H          1 MOL1         0.0959
       4    H3      18.710303   19.555021   18.255890 H          1 MOL1         0.0959
       5    C2      19.851809   19.491763   20.120314 C.3        1 MOL1        -0.1410
       6    H4      20.094196   20.563207   20.086342 H          1 MOL1         0.0948
       7    H5      20.697339   18.960551   19.661220 H          1 MOL1         0.0948
       8    C3      19.687135   19.041072   21.588568 C.3        1 MOL1        -0.1435
       9    H6      18.834744   19.571824   22.032439 H          1 MOL1         0.0948
      10    H7      19.446869   17.969329   21.617505 H          1 MOL1         0.0948
      11    C4      20.966273   19.307545   22.417820 C.3        1 MOL1        -0.1435
      12    H8      21.179802   20.385246   22.433792 H          1 MOL1         0.0948
      13    H9      21.821872   18.831270   21.919346 H          1 MOL1         0.0948
      14    C5      20.883831   18.772808   23.868602 C.3        1 MOL1        -0.1435
      15    H10     20.701960   17.690305   23.841278 H          1 MOL1         0.0948
      16    H11     21.862867   18.912071   24.347679 H          1 MOL1         0.0948
      17    C6      19.798683   19.476686   24.723606 C.3        1 MOL1        -0.1500
      18    H12     18.799767   19.233578   24.339828 H          1 MOL1         0.0948
      19    H13     19.919667   20.562843   24.618023 H          1 MOL1         0.0948
      20    C7      19.867755   19.119789   26.225807 C.3        1 MOL1         0.1162
      21    H14     20.879340   19.335008   26.583563 H          1 MOL1         0.0910
      22    C8      19.566631   17.632169   26.481576 C.3        1 MOL1        -0.2491
      23    H15     18.582418   17.352714   26.085416 H          1 MOL1         0.0959
      24    H16     20.320599   16.987148   26.015725 H          1 MOL1         0.0959
      25    H17     19.574429   17.415793   27.556964 H          1 MOL1         0.0959
      26    N1      18.939712   19.984926   27.032405 N.4        1 MOL1        -0.5987
      27    H18     19.150441   20.979750   26.910691 H          1 MOL1         0.3605
      28    H19     19.011556   19.778782   28.032939 H          1 MOL1         0.3605
      29    H20     17.963434   19.841493   26.760333 H          1 MOL1         0.3605
@<TRIPOS>BOND
    1     1     2    1
    2     1     3    1
    3     1     4    1
    4     1     5    1
    5     5     6    1
    6     5     7    1
    7     5     8    1
    8     8     9    1
    9     8    10    1
   10     8    11    1
   11    11    12    1
   12    11    13    1
   13    11    14    1
   14    14    15    1
   15    14    16    1
   16    14    17    1
   17    17    18    1
   18    17    19    1
   19    17    20    1
   20    20    21    1
   21    20    22    1
   22    22    23    1
   23    22    24    1
   24    22    25    1
   25    20    26    1
   26    26    27    1
   27    26    28    1
   28    26    29    1
@<TRIPOS>SUBSTRUCTURE
       1 MOL1            1 RESIDUE      1      MOL     
@<SCITEGIC>MOL_PROPERTY
VM2 Rank
SciTegic.value.IntegerValue
16

@<SCITEGIC>MOL_PROPERTY
Conf_Id
SciTegic.value.IntegerValue
39

@<SCITEGIC>MOL_PROPERTY
Probability
SciTegic.value.DoubleValue
1.59

@<SCITEGIC>MOL_PROPERTY
Sum Probability
SciTegic.value.DoubleValue
55.62

@<SCITEGIC>MOL_PROPERTY
Delta G
SciTegic.value.DoubleValue
1.115

@<SCITEGIC>MOL_PROPERTY
G
SciTegic.value.DoubleValue
34.817

@<SCITEGIC>MOL_PROPERTY
E
SciTegic.value.DoubleValue
-2.717

@<SCITEGIC>MOL_PROPERTY
-TS
SciTegic.value.DoubleValue
37.534

@<SCITEGIC>MOL_PROPERTY
U+W
SciTegic.value.DoubleValue
-26.861

@<SCITEGIC>MOL_PROPERTY
U
SciTegic.value.DoubleValue
25.129

@<SCITEGIC>MOL_PROPERTY
W
SciTegic.value.DoubleValue
-51.990

@<SCITEGIC>MOL_PROPERTY
W(PB)
SciTegic.value.DoubleValue
-54.526

@<SCITEGIC>MOL_PROPERTY
W(SA)
SciTegic.value.DoubleValue
2.536

@<SCITEGIC>MOL_PROPERTY
Valence
SciTegic.value.DoubleValue
4.206

@<SCITEGIC>MOL_PROPERTY
Coulomb
SciTegic.value.DoubleValue
19.678

@<SCITEGIC>MOL_PROPERTY
VdW
SciTegic.value.DoubleValue
1.245

@<SCITEGIC>MOL_PROPERTY
VdW6
SciTegic.value.DoubleValue
-8.834

@<SCITEGIC>MOL_PROPERTY
VdW12
SciTegic.value.DoubleValue
10.079

@<SCITEGIC>MOL_PROPERTY
Bond
SciTegic.value.DoubleValue
0.240

@<SCITEGIC>MOL_PROPERTY
Angle
SciTegic.value.DoubleValue
1.353

@<SCITEGIC>MOL_PROPERTY
Pdih
SciTegic.value.DoubleValue
2.613

@<SCITEGIC>MOL_PROPERTY
Idih
SciTegic.value.DoubleValue
0.000

@<SCITEGIC>MOL_PROPERTY
Tether
SciTegic.value.DoubleValue
0.000

@<TRIPOS>MOLECULE
guest-s15_vm2.mol2 : vm2 ligand conformer 17
          29          28           1
SMALL
USER_CHARGES
 
@<TRIPOS>ATOM
       1    C1      20.658696   19.226029   19.120748 C.3        1 MOL1        -0.2426
       2    H1      19.801561   19.199969   18.435274 H          1 MOL1         0.0959
       3    H2      21.075341   20.241667   19.108974 H          1 MOL1         0.0959
       4    H3      21.423825   18.543120   18.729275 H          1 MOL1         0.0959
       5    C2      20.240651   18.815092   20.548461 C.3        1 MOL1        -0.1410
       6    H4      21.129789   18.813522   21.192660 H          1 MOL1         0.0948
       7    H5      19.855549   17.785948   20.533120 H          1 MOL1         0.0948
       8    C3      19.165148   19.766941   21.123303 C.3        1 MOL1        -0.1435
       9    H6      19.569815   20.786290   21.189580 H          1 MOL1         0.0948
      10    H7      18.320936   19.815809   20.421707 H          1 MOL1         0.0948
      11    C4      18.626368   19.331114   22.508078 C.3        1 MOL1        -0.1435
      12    H8      18.209556   18.316894   22.437799 H          1 MOL1         0.0948
      13    H9      17.789576   19.990429   22.777113 H          1 MOL1         0.0948
      14    C5      19.690703   19.382031   23.630693 C.3        1 MOL1        -0.1435
      15    H10     20.496770   18.674682   23.401350 H          1 MOL1         0.0948
      16    H11     20.140549   20.383929   23.664284 H          1 MOL1         0.0948
      17    C6      19.080302   19.043769   25.013133 C.3        1 MOL1        -0.1500
      18    H12     18.684468   18.019499   25.002327 H          1 MOL1         0.0948
      19    H13     18.222886   19.706840   25.188766 H          1 MOL1         0.0948
      20    C7      20.071044   19.206241   26.188585 C.3        1 MOL1         0.1162
      21    H14     20.483020   20.219464   26.152757 H          1 MOL1         0.0910
      22    C8      21.236047   18.203252   26.109846 C.3        1 MOL1        -0.2491
      23    H15     20.868581   17.170019   26.076479 H          1 MOL1         0.0959
      24    H16     21.853740   18.377803   25.221405 H          1 MOL1         0.0959
      25    H17     21.891204   18.303012   26.984019 H          1 MOL1         0.0959
      26    N1      19.367042   19.081532   27.511153 N.4        1 MOL1        -0.5987
      27    H18     20.011744   19.227833   28.293253 H          1 MOL1         0.3605
      28    H19     18.951313   18.153414   27.627498 H          1 MOL1         0.3605
      29    H20     18.614418   19.769871   27.604185 H          1 MOL1         0.3605
@<TRIPOS>BOND
    1     1     2    1
    2     1     3    1
    3     1     4    1
    4     1     5    1
    5     5     6    1
    6     5     7    1
    7     5     8    1
    8     8     9    1
    9     8    10    1
   10     8    11    1
   11    11    12    1
   12    11    13    1
   13    11    14    1
   14    14    15    1
   15    14    16    1
   16    14    17    1
   17    17    18    1
   18    17    19    1
   19    17    20    1
   20    20    21    1
   21    20    22    1
   22    22    23    1
   23    22    24    1
   24    22    25    1
   25    20    26    1
   26    26    27    1
   27    26    28    1
   28    26    29    1
@<TRIPOS>SUBSTRUCTURE
       1 MOL1            1 RESIDUE      1      MOL     
@<SCITEGIC>MOL_PROPERTY
VM2 Rank
SciTegic.value.IntegerValue
17

@<SCITEGIC>MOL_PROPERTY
Conf_Id
SciTegic.value.IntegerValue
1539

@<SCITEGIC>MOL_PROPERTY
Probability
SciTegic.value.DoubleValue
1.57

@<SCITEGIC>MOL_PROPERTY
Sum Probability
SciTegic.value.DoubleValue
57.19

@<SCITEGIC>MOL_PROPERTY
Delta G
SciTegic.value.DoubleValue
1.123

@<SCITEGIC>MOL_PROPERTY
G
SciTegic.value.DoubleValue
34.825

@<SCITEGIC>MOL_PROPERTY
E
SciTegic.value.DoubleValue
-2.668

@<SCITEGIC>MOL_PROPERTY
-TS
SciTegic.value.DoubleValue
37.493

@<SCITEGIC>MOL_PROPERTY
U+W
SciTegic.value.DoubleValue
-26.812

@<SCITEGIC>MOL_PROPERTY
U
SciTegic.value.DoubleValue
25.086

@<SCITEGIC>MOL_PROPERTY
W
SciTegic.value.DoubleValue
-51.898

@<SCITEGIC>MOL_PROPERTY
W(PB)
SciTegic.value.DoubleValue
-54.409

@<SCITEGIC>MOL_PROPERTY
W(SA)
SciTegic.value.DoubleValue
2.511

@<SCITEGIC>MOL_PROPERTY
Valence
SciTegic.value.DoubleValue
4.252

@<SCITEGIC>MOL_PROPERTY
Coulomb
SciTegic.value.DoubleValue
19.525

@<SCITEGIC>MOL_PROPERTY
VdW
SciTegic.value.DoubleValue
1.309

@<SCITEGIC>MOL_PROPERTY
VdW6
SciTegic.value.DoubleValue
-8.788

@<SCITEGIC>MOL_PROPERTY
VdW12
SciTegic.value.DoubleValue
10.097

@<SCITEGIC>MOL_PROPERTY
Bond
SciTegic.value.DoubleValue
0.241

@<SCITEGIC>MOL_PROPERTY
Angle
SciTegic.value.DoubleValue
1.423

@<SCITEGIC>MOL_PROPERTY
Pdih
SciTegic.value.DoubleValue
2.589

@<SCITEGIC>MOL_PROPERTY
Idih
SciTegic.value.DoubleValue
0.000

@<SCITEGIC>MOL_PROPERTY
Tether
SciTegic.value.DoubleValue
0.000

@<TRIPOS>MOLECULE
guest-s15_vm2.mol2 : vm2 ligand conformer 18
          29          28           1
SMALL
USER_CHARGES
 
@<TRIPOS>ATOM
       1    C1      20.306613   18.573259   19.517976 C.3        1 MOL1        -0.2426
       2    H1      20.247612   18.562532   18.421929 H          1 MOL1         0.0959
       3    H2      21.247066   19.066673   19.793052 H          1 MOL1         0.0959
       4    H3      20.350615   17.531842   19.862257 H          1 MOL1         0.0959
       5    C2      19.085324   19.305684   20.118308 C.3        1 MOL1        -0.1410
       6    H4      18.167723   18.848492   19.722426 H          1 MOL1         0.0948
       7    H5      19.078522   20.351293   19.780130 H          1 MOL1         0.0948
       8    C3      19.039087   19.254937   21.664379 C.3        1 MOL1        -0.1435
       9    H6      18.095050   19.705333   22.000535 H          1 MOL1         0.0948
      10    H7      19.016399   18.206044   21.988013 H          1 MOL1         0.0948
      11    C4      20.222129   19.995043   22.337950 C.3        1 MOL1        -0.1435
      12    H8      20.303669   21.003930   21.910638 H          1 MOL1         0.0948
      13    H9      21.166201   19.483751   22.107908 H          1 MOL1         0.0948
      14    C5      20.073030   20.121906   23.873763 C.3        1 MOL1        -0.1435
      15    H10     20.898310   20.739968   24.253877 H          1 MOL1         0.0948
      16    H11     19.146771   20.665677   24.102444 H          1 MOL1         0.0948
      17    C6      20.086097   18.756255   24.606874 C.3        1 MOL1        -0.1500
      18    H12     20.966891   18.186752   24.281625 H          1 MOL1         0.0948
      19    H13     19.205996   18.165631   24.322607 H          1 MOL1         0.0948
      20    C7      20.126888   18.902215   26.143201 C.3        1 MOL1         0.1162
      21    H14     21.000089   19.506714   26.407272 H          1 MOL1         0.0910
      22    C8      20.274777   17.524230   26.807688 C.3        1 MOL1        -0.2491
      23    H15     19.419408   16.877473   26.575342 H          1 MOL1         0.0959
      24    H16     21.186961   17.021257   26.463167 H          1 MOL1         0.0959
      25    H17     20.341624   17.624148   27.898075 H          1 MOL1         0.0959
      26    N1      18.922055   19.622470   26.683861 N.4        1 MOL1        -0.5987
      27    H18     18.835136   20.559214   26.280527 H          1 MOL1         0.3605
      28    H19     18.975656   19.730180   27.700800 H          1 MOL1         0.3605
      29    H20     18.058677   19.114519   26.474040 H          1 MOL1         0.3605
@<TRIPOS>BOND
    1     1     2    1
    2     1     3    1
    3     1     4    1
    4     1     5    1
    5     5     6    1
    6     5     7    1
    7     5     8    1
    8     8     9    1
    9     8    10    1
   10     8    11    1
   11    11    12    1
   12    11    13    1
   13    11    14    1
   14    14    15    1
   15    14    16    1
   16    14    17    1
   17    17    18    1
   18    17    19    1
   19    17    20    1
   20    20    21    1
   21    20    22    1
   22    22    23    1
   23    22    24    1
   24    22    25    1
   25    20    26    1
   26    26    27    1
   27    26    28    1
   28    26    29    1
@<TRIPOS>SUBSTRUCTURE
       1 MOL1            1 RESIDUE      1      MOL     
@<SCITEGIC>MOL_PROPERTY
VM2 Rank
SciTegic.value.IntegerValue
18

@<SCITEGIC>MOL_PROPERTY
Conf_Id
SciTegic.value.IntegerValue
679

@<SCITEGIC>MOL_PROPERTY
Probability
SciTegic.value.DoubleValue
1.55

@<SCITEGIC>MOL_PROPERTY
Sum Probability
SciTegic.value.DoubleValue
58.75

@<SCITEGIC>MOL_PROPERTY
Delta G
SciTegic.value.DoubleValue
1.131

@<SCITEGIC>MOL_PROPERTY
G
SciTegic.value.DoubleValue
34.833

@<SCITEGIC>MOL_PROPERTY
E
SciTegic.value.DoubleValue
-2.803

@<SCITEGIC>MOL_PROPERTY
-TS
SciTegic.value.DoubleValue
37.636

@<SCITEGIC>MOL_PROPERTY
U+W
SciTegic.value.DoubleValue
-26.947

@<SCITEGIC>MOL_PROPERTY
U
SciTegic.value.DoubleValue
25.271

@<SCITEGIC>MOL_PROPERTY
W
SciTegic.value.DoubleValue
-52.218

@<SCITEGIC>MOL_PROPERTY
W(PB)
SciTegic.value.DoubleValue
-54.704

@<SCITEGIC>MOL_PROPERTY
W(SA)
SciTegic.value.DoubleValue
2.486

@<SCITEGIC>MOL_PROPERTY
Valence
SciTegic.value.DoubleValue
4.168

@<SCITEGIC>MOL_PROPERTY
Coulomb
SciTegic.value.DoubleValue
19.867

@<SCITEGIC>MOL_PROPERTY
VdW
SciTegic.value.DoubleValue
1.235

@<SCITEGIC>MOL_PROPERTY
VdW6
SciTegic.value.DoubleValue
-9.311

@<SCITEGIC>MOL_PROPERTY
VdW12
SciTegic.value.DoubleValue
10.546

@<SCITEGIC>MOL_PROPERTY
Bond
SciTegic.value.DoubleValue
0.263

@<SCITEGIC>MOL_PROPERTY
Angle
SciTegic.value.DoubleValue
1.298

@<SCITEGIC>MOL_PROPERTY
Pdih
SciTegic.value.DoubleValue
2.606

@<SCITEGIC>MOL_PROPERTY
Idih
SciTegic.value.DoubleValue
0.000

@<SCITEGIC>MOL_PROPERTY
Tether
SciTegic.value.DoubleValue
0.000

@<TRIPOS>MOLECULE
guest-s15_vm2.mol2 : vm2 ligand conformer 19
          29          28           1
SMALL
USER_CHARGES
 
@<TRIPOS>ATOM
       1    C1      20.912273   19.723623   19.676168 C.3        1 MOL1        -0.2426
       2    H1      20.851875   18.726064   19.221777 H          1 MOL1         0.0959
       3    H2      20.887984   20.464760   18.866748 H          1 MOL1         0.0959
       4    H3      21.881972   19.810227   20.183530 H          1 MOL1         0.0959
       5    C2      19.747718   19.955224   20.662068 C.3        1 MOL1        -0.1410
       6    H4      18.793833   19.896944   20.119327 H          1 MOL1         0.0948
       7    H5      19.816221   20.971420   21.075026 H          1 MOL1         0.0948
       8    C3      19.758270   18.923659   21.811591 C.3        1 MOL1        -0.1435
       9    H6      19.686724   17.909684   21.394555 H          1 MOL1         0.0948
      10    H7      20.719459   18.985489   22.338534 H          1 MOL1         0.0948
      11    C4      18.594489   19.158142   22.804035 C.3        1 MOL1        -0.1435
      12    H8      17.646437   19.161180   22.248567 H          1 MOL1         0.0948
      13    H9      18.685831   20.156927   23.251106 H          1 MOL1         0.0948
      14    C5      18.504202   18.082269   23.917062 C.3        1 MOL1        -0.1435
      15    H10     17.629909   18.295175   24.546713 H          1 MOL1         0.0948
      16    H11     18.304604   17.105730   23.454766 H          1 MOL1         0.0948
      17    C6      19.766173   17.960567   24.812418 C.3        1 MOL1        -0.1500
      18    H12     20.595340   17.561951   24.213920 H          1 MOL1         0.0948
      19    H13     19.576805   17.214751   25.595784 H          1 MOL1         0.0948
      20    C7      20.205770   19.288779   25.467027 C.3        1 MOL1         0.1162
      21    H14     20.392360   20.018212   24.673195 H          1 MOL1         0.0910
      22    C8      21.510779   19.092209   26.254208 C.3        1 MOL1        -0.2491
      23    H15     21.378149   18.369249   27.068850 H          1 MOL1         0.0959
      24    H16     22.309841   18.725106   25.598106 H          1 MOL1         0.0959
      25    H17     21.847648   20.040729   26.690328 H          1 MOL1         0.0959
      26    N1      19.136325   19.871529   26.349422 N.4        1 MOL1        -0.5987
      27    H18     18.271955   20.034645   25.825919 H          1 MOL1         0.3605
      28    H19     19.428061   20.767160   26.751013 H          1 MOL1         0.3605
      29    H20     18.912630   19.244546   27.126782 H          1 MOL1         0.3605
@<TRIPOS>BOND
    1     1     2    1
    2     1     3    1
    3     1     4    1
    4     1     5    1
    5     5     6    1
    6     5     7    1
    7     5     8    1
    8     8     9    1
    9     8    10    1
   10     8    11    1
   11    11    12    1
   12    11    13    1
   13    11    14    1
   14    14    15    1
   15    14    16    1
   16    14    17    1
   17    17    18    1
   18    17    19    1
   19    17    20    1
   20    20    21    1
   21    20    22    1
   22    22    23    1
   23    22    24    1
   24    22    25    1
   25    20    26    1
   26    26    27    1
   27    26    28    1
   28    26    29    1
@<TRIPOS>SUBSTRUCTURE
       1 MOL1            1 RESIDUE      1      MOL     
@<SCITEGIC>MOL_PROPERTY
VM2 Rank
SciTegic.value.IntegerValue
19

@<SCITEGIC>MOL_PROPERTY
Conf_Id
SciTegic.value.IntegerValue
1258

@<SCITEGIC>MOL_PROPERTY
Probability
SciTegic.value.DoubleValue
1.54

@<SCITEGIC>MOL_PROPERTY
Sum Probability
SciTegic.value.DoubleValue
60.29

@<SCITEGIC>MOL_PROPERTY
Delta G
SciTegic.value.DoubleValue
1.133

@<SCITEGIC>MOL_PROPERTY
G
SciTegic.value.DoubleValue
34.835

@<SCITEGIC>MOL_PROPERTY
E
SciTegic.value.DoubleValue
-3.024

@<SCITEGIC>MOL_PROPERTY
-TS
SciTegic.value.DoubleValue
37.860

@<SCITEGIC>MOL_PROPERTY
U+W
SciTegic.value.DoubleValue
-27.169

@<SCITEGIC>MOL_PROPERTY
U
SciTegic.value.DoubleValue
25.092

@<SCITEGIC>MOL_PROPERTY
W
SciTegic.value.DoubleValue
-52.261

@<SCITEGIC>MOL_PROPERTY
W(PB)
SciTegic.value.DoubleValue
-54.740

@<SCITEGIC>MOL_PROPERTY
W(SA)
SciTegic.value.DoubleValue
2.480

@<SCITEGIC>MOL_PROPERTY
Valence
SciTegic.value.DoubleValue
3.930

@<SCITEGIC>MOL_PROPERTY
Coulomb
SciTegic.value.DoubleValue
20.383

@<SCITEGIC>MOL_PROPERTY
VdW
SciTegic.value.DoubleValue
0.779

@<SCITEGIC>MOL_PROPERTY
VdW6
SciTegic.value.DoubleValue
-9.976

@<SCITEGIC>MOL_PROPERTY
VdW12
SciTegic.value.DoubleValue
10.755

@<SCITEGIC>MOL_PROPERTY
Bond
SciTegic.value.DoubleValue
0.263

@<SCITEGIC>MOL_PROPERTY
Angle
SciTegic.value.DoubleValue
1.407

@<SCITEGIC>MOL_PROPERTY
Pdih
SciTegic.value.DoubleValue
2.259

@<SCITEGIC>MOL_PROPERTY
Idih
SciTegic.value.DoubleValue
0.000

@<SCITEGIC>MOL_PROPERTY
Tether
SciTegic.value.DoubleValue
0.000

@<TRIPOS>MOLECULE
guest-s15_vm2.mol2 : vm2 ligand conformer 20
          29          28           1
SMALL
USER_CHARGES
 
@<TRIPOS>ATOM
       1    C1      19.117859   20.236768   19.240640 C.3        1 MOL1        -0.2426
       2    H1      19.841172   21.062487   19.256660 H          1 MOL1         0.0959
       3    H2      18.961713   19.945694   18.193768 H          1 MOL1         0.0959
       4    H3      18.163002   20.610843   19.632498 H          1 MOL1         0.0959
       5    C2      19.626232   19.038139   20.069383 C.3        1 MOL1        -0.1410
       6    H4      20.563202   18.664893   19.632749 H          1 MOL1         0.0948
       7    H5      18.898297   18.217040   20.007612 H          1 MOL1         0.0948
       8    C3      19.855268   19.421236   21.548238 C.3        1 MOL1        -0.1435
       9    H6      20.585159   20.240538   21.604657 H          1 MOL1         0.0948
      10    H7      18.914807   19.801206   21.967541 H          1 MOL1         0.0948
      11    C4      20.361263   18.218314   22.380540 C.3        1 MOL1        -0.1435
      12    H8      21.254053   17.800908   21.894630 H          1 MOL1         0.0948
      13    H9      19.606683   17.419635   22.375965 H          1 MOL1         0.0948
      14    C5      20.725949   18.579984   23.841723 C.3        1 MOL1        -0.1435
      15    H10     21.210250   17.704471   24.292619 H          1 MOL1         0.0948
      16    H11     21.474377   19.384427   23.845542 H          1 MOL1         0.0948
      17    C6      19.503733   18.997514   24.700565 C.3        1 MOL1        -0.1500
      18    H12     18.760817   18.188965   24.706033 H          1 MOL1         0.0948
      19    H13     19.018612   19.863684   24.234885 H          1 MOL1         0.0948
      20    C7      19.865881   19.380212   26.154162 C.3        1 MOL1         0.1162
      21    H14     20.649840   20.143153   26.123254 H          1 MOL1         0.0910
      22    C8      20.386503   18.177526   26.961826 C.3        1 MOL1        -0.2491
      23    H15     19.659413   17.355914   26.963492 H          1 MOL1         0.0959
      24    H16     21.331241   17.800351   26.554128 H          1 MOL1         0.0959
      25    H17     20.576409   18.465148   28.003259 H          1 MOL1         0.0959
      26    N1      18.693313   20.006307   26.856921 N.4        1 MOL1        -0.5987
      27    H18     18.356369   20.837138   26.361898 H          1 MOL1         0.3605
      28    H19     18.939076   20.297216   27.807557 H          1 MOL1         0.3605
      29    H20     17.909068   19.352624   26.930735 H          1 MOL1         0.3605
@<TRIPOS>BOND
    1     1     2    1
    2     1     3    1
    3     1     4    1
    4     1     5    1
    5     5     6    1
    6     5     7    1
    7     5     8    1
    8     8     9    1
    9     8    10    1
   10     8    11    1
   11    11    12    1
   12    11    13    1
   13    11    14    1
   14    14    15    1
   15    14    16    1
   16    14    17    1
   17    17    18    1
   18    17    19    1
   19    17    20    1
   20    20    21    1
   21    20    22    1
   22    22    23    1
   23    22    24    1
   24    22    25    1
   25    20    26    1
   26    26    27    1
   27    26    28    1
   28    26    29    1
@<TRIPOS>SUBSTRUCTURE
       1 MOL1            1 RESIDUE      1      MOL     
@<SCITEGIC>MOL_PROPERTY
VM2 Rank
SciTegic.value.IntegerValue
20

@<SCITEGIC>MOL_PROPERTY
Conf_Id
SciTegic.value.IntegerValue
1214

@<SCITEGIC>MOL_PROPERTY
Probability
SciTegic.value.DoubleValue
1.53

@<SCITEGIC>MOL_PROPERTY
Sum Probability
SciTegic.value.DoubleValue
61.82

@<SCITEGIC>MOL_PROPERTY
Delta G
SciTegic.value.DoubleValue
1.139

@<SCITEGIC>MOL_PROPERTY
G
SciTegic.value.DoubleValue
34.841

@<SCITEGIC>MOL_PROPERTY
E
SciTegic.value.DoubleValue
-2.579

@<SCITEGIC>MOL_PROPERTY
-TS
SciTegic.value.DoubleValue
37.421

@<SCITEGIC>MOL_PROPERTY
U+W
SciTegic.value.DoubleValue
-26.724

@<SCITEGIC>MOL_PROPERTY
U
SciTegic.value.DoubleValue
25.442

@<SCITEGIC>MOL_PROPERTY
W
SciTegic.value.DoubleValue
-52.166

@<SCITEGIC>MOL_PROPERTY
W(PB)
SciTegic.value.DoubleValue
-54.688

@<SCITEGIC>MOL_PROPERTY
W(SA)
SciTegic.value.DoubleValue
2.522

@<SCITEGIC>MOL_PROPERTY
Valence
SciTegic.value.DoubleValue
4.342

@<SCITEGIC>MOL_PROPERTY
Coulomb
SciTegic.value.DoubleValue
19.740

@<SCITEGIC>MOL_PROPERTY
VdW
SciTegic.value.DoubleValue
1.360

@<SCITEGIC>MOL_PROPERTY
VdW6
SciTegic.value.DoubleValue
-8.739

@<SCITEGIC>MOL_PROPERTY
VdW12
SciTegic.value.DoubleValue
10.099

@<SCITEGIC>MOL_PROPERTY
Bond
SciTegic.value.DoubleValue
0.251

@<SCITEGIC>MOL_PROPERTY
Angle
SciTegic.value.DoubleValue
1.484

@<SCITEGIC>MOL_PROPERTY
Pdih
SciTegic.value.DoubleValue
2.608

@<SCITEGIC>MOL_PROPERTY
Idih
SciTegic.value.DoubleValue
0.000

@<SCITEGIC>MOL_PROPERTY
Tether
SciTegic.value.DoubleValue
0.000

@<TRIPOS>MOLECULE
guest-s15_vm2.mol2 : vm2 ligand conformer 21
          29          28           1
SMALL
USER_CHARGES
 
@<TRIPOS>ATOM
       1    C1      19.887506   20.240290   19.460715 C.3        1 MOL1        -0.2426
       2    H1      19.009666   20.884044   19.602152 H          1 MOL1         0.0959
       3    H2      20.724385   20.670428   20.024693 H          1 MOL1         0.0959
       4    H3      20.157209   20.269136   18.397062 H          1 MOL1         0.0959
       5    C2      19.590068   18.789903   19.903914 C.3        1 MOL1        -0.1410
       6    H4      20.491656   18.173630   19.781149 H          1 MOL1         0.0948
       7    H5      18.832008   18.363044   19.232429 H          1 MOL1         0.0948
       8    C3      19.078485   18.684573   21.360823 C.3        1 MOL1        -0.1435
       9    H6      18.166018   19.286182   21.473439 H          1 MOL1         0.0948
      10    H7      18.787673   17.642657   21.553481 H          1 MOL1         0.0948
      11    C4      20.124645   19.120381   22.414574 C.3        1 MOL1        -0.1435
      12    H8      20.372623   20.181113   22.277779 H          1 MOL1         0.0948
      13    H9      21.053562   18.552933   22.265260 H          1 MOL1         0.0948
      14    C5      19.612058   18.901698   23.856059 C.3        1 MOL1        -0.1435
      15    H10     18.681226   19.466881   23.996385 H          1 MOL1         0.0948
      16    H11     19.366126   17.840253   23.991032 H          1 MOL1         0.0948
      17    C6      20.662888   19.340556   24.908963 C.3        1 MOL1        -0.1500
      18    H12     20.935026   20.389272   24.731233 H          1 MOL1         0.0948
      19    H13     21.584427   18.761016   24.765184 H          1 MOL1         0.0948
      20    C7      20.209933   19.196522   26.381112 C.3        1 MOL1         0.1162
      21    H14     21.025504   19.567008   27.009886 H          1 MOL1         0.0910
      22    C8      19.954779   17.729202   26.767390 C.3        1 MOL1        -0.2491
      23    H15     19.769529   17.643259   27.845119 H          1 MOL1         0.0959
      24    H16     19.083520   17.317450   26.244350 H          1 MOL1         0.0959
      25    H17     20.825717   17.106131   26.529007 H          1 MOL1         0.0959
      26    N1      19.015638   20.052875   26.700450 N.4        1 MOL1        -0.5987
      27    H18     18.196431   19.763225   26.160499 H          1 MOL1         0.3605
      28    H19     19.193060   21.038774   26.487765 H          1 MOL1         0.3605
      29    H20     18.767096   19.993378   27.692090 H          1 MOL1         0.3605
@<TRIPOS>BOND
    1     1     2    1
    2     1     3    1
    3     1     4    1
    4     1     5    1
    5     5     6    1
    6     5     7    1
    7     5     8    1
    8     8     9    1
    9     8    10    1
   10     8    11    1
   11    11    12    1
   12    11    13    1
   13    11    14    1
   14    14    15    1
   15    14    16    1
   16    14    17    1
   17    17    18    1
   18    17    19    1
   19    17    20    1
   20    20    21    1
   21    20    22    1
   22    22    23    1
   23    22    24    1
   24    22    25    1
   25    20    26    1
   26    26    27    1
   27    26    28    1
   28    26    29    1
@<TRIPOS>SUBSTRUCTURE
       1 MOL1            1 RESIDUE      1      MOL     
@<SCITEGIC>MOL_PROPERTY
VM2 Rank
SciTegic.value.IntegerValue
21

@<SCITEGIC>MOL_PROPERTY
Conf_Id
SciTegic.value.IntegerValue
688

@<SCITEGIC>MOL_PROPERTY
Probability
SciTegic.value.DoubleValue
1.52

@<SCITEGIC>MOL_PROPERTY
Sum Probability
SciTegic.value.DoubleValue
63.34

@<SCITEGIC>MOL_PROPERTY
Delta G
SciTegic.value.DoubleValue
1.144

@<SCITEGIC>MOL_PROPERTY
G
SciTegic.value.DoubleValue
34.846

@<SCITEGIC>MOL_PROPERTY
E
SciTegic.value.DoubleValue
-2.795

@<SCITEGIC>MOL_PROPERTY
-TS
SciTegic.value.DoubleValue
37.640

@<SCITEGIC>MOL_PROPERTY
U+W
SciTegic.value.DoubleValue
-26.939

@<SCITEGIC>MOL_PROPERTY
U
SciTegic.value.DoubleValue
25.147

@<SCITEGIC>MOL_PROPERTY
W
SciTegic.value.DoubleValue
-52.086

@<SCITEGIC>MOL_PROPERTY
W(PB)
SciTegic.value.DoubleValue
-54.575

@<SCITEGIC>MOL_PROPERTY
W(SA)
SciTegic.value.DoubleValue
2.489

@<SCITEGIC>MOL_PROPERTY
Valence
SciTegic.value.DoubleValue
4.181

@<SCITEGIC>MOL_PROPERTY
Coulomb
SciTegic.value.DoubleValue
19.656

@<SCITEGIC>MOL_PROPERTY
VdW
SciTegic.value.DoubleValue
1.310

@<SCITEGIC>MOL_PROPERTY
VdW6
SciTegic.value.DoubleValue
-9.191

@<SCITEGIC>MOL_PROPERTY
VdW12
SciTegic.value.DoubleValue
10.501

@<SCITEGIC>MOL_PROPERTY
Bond
SciTegic.value.DoubleValue
0.259

@<SCITEGIC>MOL_PROPERTY
Angle
SciTegic.value.DoubleValue
1.449

@<SCITEGIC>MOL_PROPERTY
Pdih
SciTegic.value.DoubleValue
2.473

@<SCITEGIC>MOL_PROPERTY
Idih
SciTegic.value.DoubleValue
0.000

@<SCITEGIC>MOL_PROPERTY
Tether
SciTegic.value.DoubleValue
0.000

@<TRIPOS>MOLECULE
guest-s15_vm2.mol2 : vm2 ligand conformer 22
          29          28           1
SMALL
USER_CHARGES
 
@<TRIPOS>ATOM
       1    C1      20.499029   18.969574   19.362979 C.3        1 MOL1        -0.2426
       2    H1      20.442476   17.873321   19.370580 H          1 MOL1         0.0959
       3    H2      20.632909   19.291703   18.322192 H          1 MOL1         0.0959
       4    H3      21.394794   19.272014   19.919387 H          1 MOL1         0.0959
       5    C2      19.219756   19.596091   19.962532 C.3        1 MOL1        -0.1410
       6    H4      18.370658   19.365581   19.304009 H          1 MOL1         0.0948
       7    H5      19.313619   20.691004   19.971465 H          1 MOL1         0.0948
       8    C3      18.895210   19.086977   21.387612 C.3        1 MOL1        -0.1435
       9    H6      17.919962   19.493469   21.689146 H          1 MOL1         0.0948
      10    H7      18.782598   17.994173   21.369768 H          1 MOL1         0.0948
      11    C4      19.956361   19.485461   22.441138 C.3        1 MOL1        -0.1435
      12    H8      20.103314   20.574085   22.419413 H          1 MOL1         0.0948
      13    H9      20.922114   19.027529   22.190155 H          1 MOL1         0.0948
      14    C5      19.543538   19.047884   23.864696 C.3        1 MOL1        -0.1435
      15    H10     18.579852   19.508833   24.118375 H          1 MOL1         0.0948
      16    H11     19.391139   17.960629   23.873568 H          1 MOL1         0.0948
      17    C6      20.612770   19.442743   24.916482 C.3        1 MOL1        -0.1500
      18    H12     20.790308   20.524812   24.861140 H          1 MOL1         0.0948
      19    H13     21.568158   18.966523   24.659146 H          1 MOL1         0.0948
      20    C7      20.254856   19.080662   26.377276 C.3        1 MOL1         0.1162
      21    H14     21.072103   19.439381   27.010681 H          1 MOL1         0.0910
      22    C8      20.138427   17.560578   26.584964 C.3        1 MOL1        -0.2491
      23    H15     19.274947   17.143319   26.053452 H          1 MOL1         0.0959
      24    H16     21.041457   17.048302   26.230440 H          1 MOL1         0.0959
      25    H17     20.020397   17.327228   27.650244 H          1 MOL1         0.0959
      26    N1      19.016051   19.786029   26.856321 N.4        1 MOL1        -0.5987
      27    H18     19.102782   20.802119   26.762757 H          1 MOL1         0.3605
      28    H19     18.828375   19.584176   27.842572 H          1 MOL1         0.3605
      29    H20     18.193660   19.495932   26.321478 H          1 MOL1         0.3605
@<TRIPOS>BOND
    1     1     2    1
    2     1     3    1
    3     1     4    1
    4     1     5    1
    5     5     6    1
    6     5     7    1
    7     5     8    1
    8     8     9    1
    9     8    10    1
   10     8    11    1
   11    11    12    1
   12    11    13    1
   13    11    14    1
   14    14    15    1
   15    14    16    1
   16    14    17    1
   17    17    18    1
   18    17    19    1
   19    17    20    1
   20    20    21    1
   21    20    22    1
   22    22    23    1
   23    22    24    1
   24    22    25    1
   25    20    26    1
   26    26    27    1
   27    26    28    1
   28    26    29    1
@<TRIPOS>SUBSTRUCTURE
       1 MOL1            1 RESIDUE      1      MOL     
@<SCITEGIC>MOL_PROPERTY
VM2 Rank
SciTegic.value.IntegerValue
22

@<SCITEGIC>MOL_PROPERTY
Conf_Id
SciTegic.value.IntegerValue
968

@<SCITEGIC>MOL_PROPERTY
Probability
SciTegic.value.DoubleValue
1.47

@<SCITEGIC>MOL_PROPERTY
Sum Probability
SciTegic.value.DoubleValue
64.80

@<SCITEGIC>MOL_PROPERTY
Delta G
SciTegic.value.DoubleValue
1.164

@<SCITEGIC>MOL_PROPERTY
G
SciTegic.value.DoubleValue
34.866

@<SCITEGIC>MOL_PROPERTY
E
SciTegic.value.DoubleValue
-2.775

@<SCITEGIC>MOL_PROPERTY
-TS
SciTegic.value.DoubleValue
37.641

@<SCITEGIC>MOL_PROPERTY
U+W
SciTegic.value.DoubleValue
-26.919

@<SCITEGIC>MOL_PROPERTY
U
SciTegic.value.DoubleValue
25.121

@<SCITEGIC>MOL_PROPERTY
W
SciTegic.value.DoubleValue
-52.040

@<SCITEGIC>MOL_PROPERTY
W(PB)
SciTegic.value.DoubleValue
-54.555

@<SCITEGIC>MOL_PROPERTY
W(SA)
SciTegic.value.DoubleValue
2.515

@<SCITEGIC>MOL_PROPERTY
Valence
SciTegic.value.DoubleValue
4.180

@<SCITEGIC>MOL_PROPERTY
Coulomb
SciTegic.value.DoubleValue
19.632

@<SCITEGIC>MOL_PROPERTY
VdW
SciTegic.value.DoubleValue
1.309

@<SCITEGIC>MOL_PROPERTY
VdW6
SciTegic.value.DoubleValue
-9.192

@<SCITEGIC>MOL_PROPERTY
VdW12
SciTegic.value.DoubleValue
10.501

@<SCITEGIC>MOL_PROPERTY
Bond
SciTegic.value.DoubleValue
0.259

@<SCITEGIC>MOL_PROPERTY
Angle
SciTegic.value.DoubleValue
1.449

@<SCITEGIC>MOL_PROPERTY
Pdih
SciTegic.value.DoubleValue
2.473

@<SCITEGIC>MOL_PROPERTY
Idih
SciTegic.value.DoubleValue
0.000

@<SCITEGIC>MOL_PROPERTY
Tether
SciTegic.value.DoubleValue
0.000

@<TRIPOS>MOLECULE
guest-s15_vm2.mol2 : vm2 ligand conformer 23
          29          28           1
SMALL
USER_CHARGES
 
@<TRIPOS>ATOM
       1    C1      18.734509   19.023877   19.316714 C.3        1 MOL1        -0.2426
       2    H1      18.006583   19.841232   19.402158 H          1 MOL1         0.0959
       3    H2      19.488068   19.313327   18.572671 H          1 MOL1         0.0959
       4    H3      18.206356   18.140481   18.935004 H          1 MOL1         0.0959
       5    C2      19.389217   18.720068   20.680917 C.3        1 MOL1        -0.1410
       6    H4      20.089563   17.880517   20.569836 H          1 MOL1         0.0948
       7    H5      18.611100   18.395566   21.384339 H          1 MOL1         0.0948
       8    C3      20.136494   19.953183   21.241391 C.3        1 MOL1        -0.1435
       9    H6      20.851902   20.309462   20.487361 H          1 MOL1         0.0948
      10    H7      19.425528   20.774988   21.403751 H          1 MOL1         0.0948
      11    C4      20.908804   19.667870   22.552865 C.3        1 MOL1        -0.1435
      12    H8      21.499517   20.558533   22.807972 H          1 MOL1         0.0948
      13    H9      21.630687   18.856695   22.385059 H          1 MOL1         0.0948
      14    C5      19.991013   19.312198   23.747164 C.3        1 MOL1        -0.1435
      15    H10     19.237545   20.101244   23.869823 H          1 MOL1         0.0948
      16    H11     19.451616   18.382566   23.528782 H          1 MOL1         0.0948
      17    C6      20.802284   19.145818   25.058554 C.3        1 MOL1        -0.1500
      18    H12     21.373303   20.064076   25.248707 H          1 MOL1         0.0948
      19    H13     21.546592   18.349464   24.925846 H          1 MOL1         0.0948
      20    C7      19.954904   18.830141   26.313780 C.3        1 MOL1         0.1162
      21    H14     20.642225   18.771579   27.163445 H          1 MOL1         0.0910
      22    C8      19.237151   17.473720   26.202346 C.3        1 MOL1        -0.2491
      23    H15     18.759665   17.213527   27.154978 H          1 MOL1         0.0959
      24    H16     18.458071   17.488741   25.430989 H          1 MOL1         0.0959
      25    H17     19.948475   16.675051   25.957958 H          1 MOL1         0.0959
      26    N1      18.981623   19.929125   26.640270 N.4        1 MOL1        -0.5987
      27    H18     19.457204   20.828044   26.760636 H          1 MOL1         0.3605
      28    H19     18.473180   19.733117   27.507291 H          1 MOL1         0.3605
      29    H20     18.288427   20.043818   25.896728 H          1 MOL1         0.3605
@<TRIPOS>BOND
    1     1     2    1
    2     1     3    1
    3     1     4    1
    4     1     5    1
    5     5     6    1
    6     5     7    1
    7     5     8    1
    8     8     9    1
    9     8    10    1
   10     8    11    1
   11    11    12    1
   12    11    13    1
   13    11    14    1
   14    14    15    1
   15    14    16    1
   16    14    17    1
   17    17    18    1
   18    17    19    1
   19    17    20    1
   20    20    21    1
   21    20    22    1
   22    22    23    1
   23    22    24    1
   24    22    25    1
   25    20    26    1
   26    26    27    1
   27    26    28    1
   28    26    29    1
@<TRIPOS>SUBSTRUCTURE
       1 MOL1            1 RESIDUE      1      MOL     
@<SCITEGIC>MOL_PROPERTY
VM2 Rank
SciTegic.value.IntegerValue
23

@<SCITEGIC>MOL_PROPERTY
Conf_Id
SciTegic.value.IntegerValue
210

@<SCITEGIC>MOL_PROPERTY
Probability
SciTegic.value.DoubleValue
1.44

@<SCITEGIC>MOL_PROPERTY
Sum Probability
SciTegic.value.DoubleValue
66.24

@<SCITEGIC>MOL_PROPERTY
Delta G
SciTegic.value.DoubleValue
1.176

@<SCITEGIC>MOL_PROPERTY
G
SciTegic.value.DoubleValue
34.878

@<SCITEGIC>MOL_PROPERTY
E
SciTegic.value.DoubleValue
-2.751

@<SCITEGIC>MOL_PROPERTY
-TS
SciTegic.value.DoubleValue
37.629

@<SCITEGIC>MOL_PROPERTY
U+W
SciTegic.value.DoubleValue
-26.896

@<SCITEGIC>MOL_PROPERTY
U
SciTegic.value.DoubleValue
25.354

@<SCITEGIC>MOL_PROPERTY
W
SciTegic.value.DoubleValue
-52.250

@<SCITEGIC>MOL_PROPERTY
W(PB)
SciTegic.value.DoubleValue
-54.738

@<SCITEGIC>MOL_PROPERTY
W(SA)
SciTegic.value.DoubleValue
2.488

@<SCITEGIC>MOL_PROPERTY
Valence
SciTegic.value.DoubleValue
4.222

@<SCITEGIC>MOL_PROPERTY
Coulomb
SciTegic.value.DoubleValue
19.855

@<SCITEGIC>MOL_PROPERTY
VdW
SciTegic.value.DoubleValue
1.278

@<SCITEGIC>MOL_PROPERTY
VdW6
SciTegic.value.DoubleValue
-9.276

@<SCITEGIC>MOL_PROPERTY
VdW12
SciTegic.value.DoubleValue
10.553

@<SCITEGIC>MOL_PROPERTY
Bond
SciTegic.value.DoubleValue
0.264

@<SCITEGIC>MOL_PROPERTY
Angle
SciTegic.value.DoubleValue
1.471

@<SCITEGIC>MOL_PROPERTY
Pdih
SciTegic.value.DoubleValue
2.486

@<SCITEGIC>MOL_PROPERTY
Idih
SciTegic.value.DoubleValue
0.000

@<SCITEGIC>MOL_PROPERTY
Tether
SciTegic.value.DoubleValue
0.000

@<TRIPOS>MOLECULE
guest-s15_vm2.mol2 : vm2 ligand conformer 24
          29          28           1
SMALL
USER_CHARGES
 
@<TRIPOS>ATOM
       1    C1      19.743800   20.359443   19.250033 C.3        1 MOL1        -0.2426
       2    H1      18.783792   20.878958   19.367223 H          1 MOL1         0.0959
       3    H2      20.545165   21.052772   19.536991 H          1 MOL1         0.0959
       4    H3      19.869982   20.120248   18.186123 H          1 MOL1         0.0959
       5    C2      19.787788   19.075941   20.105982 C.3        1 MOL1        -0.1410
       6    H4      20.745186   18.561433   19.942969 H          1 MOL1         0.0948
       7    H5      18.997573   18.388711   19.772603 H          1 MOL1         0.0948
       8    C3      19.611528   19.384615   21.609247 C.3        1 MOL1        -0.1435
       9    H6      20.400711   20.078732   21.925820 H          1 MOL1         0.0948
      10    H7      18.652396   19.896728   21.767233 H          1 MOL1         0.0948
      11    C4      19.659758   18.098239   22.468506 C.3        1 MOL1        -0.1435
      12    H8      20.639836   17.614115   22.357432 H          1 MOL1         0.0948
      13    H9      18.918491   17.384609   22.082976 H          1 MOL1         0.0948
      14    C5      19.368090   18.342124   23.969685 C.3        1 MOL1        -0.1435
      15    H10     18.384677   18.819442   24.073179 H          1 MOL1         0.0948
      16    H11     19.291590   17.363695   24.461015 H          1 MOL1         0.0948
      17    C6      20.455243   19.196079   24.678053 C.3        1 MOL1        -0.1500
      18    H12     20.509730   20.185721   24.208619 H          1 MOL1         0.0948
      19    H13     21.438835   18.732835   24.524714 H          1 MOL1         0.0948
      20    C7      20.233558   19.402869   26.195157 C.3        1 MOL1         0.1162
      21    H14     21.031039   20.061749   26.552463 H          1 MOL1         0.0910
      22    C8      20.334655   18.084819   26.982721 C.3        1 MOL1        -0.2491
      23    H15     19.502918   17.408566   26.752906 H          1 MOL1         0.0959
      24    H16     21.273865   17.565493   26.755246 H          1 MOL1         0.0959
      25    H17     20.316752   18.281419   28.061715 H          1 MOL1         0.0959
      26    N1      18.941579   20.111871   26.494616 N.4        1 MOL1        -0.5987
      27    H18     18.886852   21.012680   26.010691 H          1 MOL1         0.3605
      28    H19     18.839185   20.295556   27.496822 H          1 MOL1         0.3605
      29    H20     18.136036   19.554016   26.200524 H          1 MOL1         0.3605
@<TRIPOS>BOND
    1     1     2    1
    2     1     3    1
    3     1     4    1
    4     1     5    1
    5     5     6    1
    6     5     7    1
    7     5     8    1
    8     8     9    1
    9     8    10    1
   10     8    11    1
   11    11    12    1
   12    11    13    1
   13    11    14    1
   14    14    15    1
   15    14    16    1
   16    14    17    1
   17    17    18    1
   18    17    19    1
   19    17    20    1
   20    20    21    1
   21    20    22    1
   22    22    23    1
   23    22    24    1
   24    22    25    1
   25    20    26    1
   26    26    27    1
   27    26    28    1
   28    26    29    1
@<TRIPOS>SUBSTRUCTURE
       1 MOL1            1 RESIDUE      1      MOL     
@<SCITEGIC>MOL_PROPERTY
VM2 Rank
SciTegic.value.IntegerValue
24

@<SCITEGIC>MOL_PROPERTY
Conf_Id
SciTegic.value.IntegerValue
262

@<SCITEGIC>MOL_PROPERTY
Probability
SciTegic.value.DoubleValue
1.36

@<SCITEGIC>MOL_PROPERTY
Sum Probability
SciTegic.value.DoubleValue
67.60

@<SCITEGIC>MOL_PROPERTY
Delta G
SciTegic.value.DoubleValue
1.211

@<SCITEGIC>MOL_PROPERTY
G
SciTegic.value.DoubleValue
34.913

@<SCITEGIC>MOL_PROPERTY
E
SciTegic.value.DoubleValue
-2.677

@<SCITEGIC>MOL_PROPERTY
-TS
SciTegic.value.DoubleValue
37.591

@<SCITEGIC>MOL_PROPERTY
U+W
SciTegic.value.DoubleValue
-26.822

@<SCITEGIC>MOL_PROPERTY
U
SciTegic.value.DoubleValue
25.474

@<SCITEGIC>MOL_PROPERTY
W
SciTegic.value.DoubleValue
-52.296

@<SCITEGIC>MOL_PROPERTY
W(PB)
SciTegic.value.DoubleValue
-54.793

@<SCITEGIC>MOL_PROPERTY
W(SA)
SciTegic.value.DoubleValue
2.498

@<SCITEGIC>MOL_PROPERTY
Valence
SciTegic.value.DoubleValue
4.286

@<SCITEGIC>MOL_PROPERTY
Coulomb
SciTegic.value.DoubleValue
19.883

@<SCITEGIC>MOL_PROPERTY
VdW
SciTegic.value.DoubleValue
1.305

@<SCITEGIC>MOL_PROPERTY
VdW6
SciTegic.value.DoubleValue
-9.235

@<SCITEGIC>MOL_PROPERTY
VdW12
SciTegic.value.DoubleValue
10.540

@<SCITEGIC>MOL_PROPERTY
Bond
SciTegic.value.DoubleValue
0.276

@<SCITEGIC>MOL_PROPERTY
Angle
SciTegic.value.DoubleValue
1.498

@<SCITEGIC>MOL_PROPERTY
Pdih
SciTegic.value.DoubleValue
2.512

@<SCITEGIC>MOL_PROPERTY
Idih
SciTegic.value.DoubleValue
0.000

@<SCITEGIC>MOL_PROPERTY
Tether
SciTegic.value.DoubleValue
0.000

@<TRIPOS>MOLECULE
guest-s15_vm2.mol2 : vm2 ligand conformer 25
          29          28           1
SMALL
USER_CHARGES
 
@<TRIPOS>ATOM
       1    C1      18.641056   19.458499   19.360263 C.3        1 MOL1        -0.2426
       2    H1      19.424421   19.557096   18.597472 H          1 MOL1         0.0959
       3    H2      18.233729   18.440649   19.302687 H          1 MOL1         0.0959
       4    H3      17.834742   20.159188   19.107427 H          1 MOL1         0.0959
       5    C2      19.197634   19.753739   20.769179 C.3        1 MOL1        -0.1410
       6    H4      18.378130   19.685517   21.496705 H          1 MOL1         0.0948
       7    H5      19.570730   20.786813   20.804253 H          1 MOL1         0.0948
       8    C3      20.333437   18.774841   21.149639 C.3        1 MOL1        -0.1435
       9    H6      19.945970   17.746853   21.167553 H          1 MOL1         0.0948
      10    H7      21.103243   18.800120   20.366019 H          1 MOL1         0.0948
      11    C4      21.004856   19.100472   22.506446 C.3        1 MOL1        -0.1435
      12    H8      21.407070   20.122656   22.481150 H          1 MOL1         0.0948
      13    H9      21.867750   18.432599   22.635611 H          1 MOL1         0.0948
      14    C5      20.057931   18.940728   23.720092 C.3        1 MOL1        -0.1435
      15    H10     19.231935   19.657860   23.639310 H          1 MOL1         0.0948
      16    H11     19.616053   17.935970   23.698699 H          1 MOL1         0.0948
      17    C6      20.807899   19.161681   25.059596 C.3        1 MOL1        -0.1500
      18    H12     21.290753   20.147619   25.043723 H          1 MOL1         0.0948
      19    H13     21.620931   18.428662   25.145686 H          1 MOL1         0.0948
      20    C7      19.922734   19.071341   26.325149 C.3        1 MOL1         0.1162
      21    H14     20.566949   19.270731   27.187125 H          1 MOL1         0.0910
      22    C8      19.319078   17.668281   26.510406 C.3        1 MOL1        -0.2491
      23    H15     20.102239   16.900433   26.485031 H          1 MOL1         0.0959
      24    H16     18.812097   17.594148   27.480290 H          1 MOL1         0.0959
      25    H17     18.584343   17.436407   25.730253 H          1 MOL1         0.0959
      26    N1      18.851376   20.126418   26.353230 N.4        1 MOL1        -0.5987
      27    H18     19.248763   21.066949   26.274393 H          1 MOL1         0.3605
      28    H19     18.315960   20.092393   27.225502 H          1 MOL1         0.3605
      29    H20     18.190313   20.004724   25.582101 H          1 MOL1         0.3605
@<TRIPOS>BOND
    1     1     2    1
    2     1     3    1
    3     1     4    1
    4     1     5    1
    5     5     6    1
    6     5     7    1
    7     5     8    1
    8     8     9    1
    9     8    10    1
   10     8    11    1
   11    11    12    1
   12    11    13    1
   13    11    14    1
   14    14    15    1
   15    14    16    1
   16    14    17    1
   17    17    18    1
   18    17    19    1
   19    17    20    1
   20    20    21    1
   21    20    22    1
   22    22    23    1
   23    22    24    1
   24    22    25    1
   25    20    26    1
   26    26    27    1
   27    26    28    1
   28    26    29    1
@<TRIPOS>SUBSTRUCTURE
       1 MOL1            1 RESIDUE      1      MOL     
@<SCITEGIC>MOL_PROPERTY
VM2 Rank
SciTegic.value.IntegerValue
25

@<SCITEGIC>MOL_PROPERTY
Conf_Id
SciTegic.value.IntegerValue
1656

@<SCITEGIC>MOL_PROPERTY
Probability
SciTegic.value.DoubleValue
1.32

@<SCITEGIC>MOL_PROPERTY
Sum Probability
SciTegic.value.DoubleValue
68.92

@<SCITEGIC>MOL_PROPERTY
Delta G
SciTegic.value.DoubleValue
1.226

@<SCITEGIC>MOL_PROPERTY
G
SciTegic.value.DoubleValue
34.929

@<SCITEGIC>MOL_PROPERTY
E
SciTegic.value.DoubleValue
-2.699

@<SCITEGIC>MOL_PROPERTY
-TS
SciTegic.value.DoubleValue
37.628

@<SCITEGIC>MOL_PROPERTY
U+W
SciTegic.value.DoubleValue
-26.844

@<SCITEGIC>MOL_PROPERTY
U
SciTegic.value.DoubleValue
25.545

@<SCITEGIC>MOL_PROPERTY
W
SciTegic.value.DoubleValue
-52.388

@<SCITEGIC>MOL_PROPERTY
W(PB)
SciTegic.value.DoubleValue
-54.880

@<SCITEGIC>MOL_PROPERTY
W(SA)
SciTegic.value.DoubleValue
2.492

@<SCITEGIC>MOL_PROPERTY
Valence
SciTegic.value.DoubleValue
4.218

@<SCITEGIC>MOL_PROPERTY
Coulomb
SciTegic.value.DoubleValue
20.055

@<SCITEGIC>MOL_PROPERTY
VdW
SciTegic.value.DoubleValue
1.271

@<SCITEGIC>MOL_PROPERTY
VdW6
SciTegic.value.DoubleValue
-9.272

@<SCITEGIC>MOL_PROPERTY
VdW12
SciTegic.value.DoubleValue
10.543

@<SCITEGIC>MOL_PROPERTY
Bond
SciTegic.value.DoubleValue
0.264

@<SCITEGIC>MOL_PROPERTY
Angle
SciTegic.value.DoubleValue
1.469

@<SCITEGIC>MOL_PROPERTY
Pdih
SciTegic.value.DoubleValue
2.486

@<SCITEGIC>MOL_PROPERTY
Idih
SciTegic.value.DoubleValue
0.000

@<SCITEGIC>MOL_PROPERTY
Tether
SciTegic.value.DoubleValue
0.000

@<TRIPOS>MOLECULE
guest-s15_vm2.mol2 : vm2 ligand conformer 26
          29          28           1
SMALL
USER_CHARGES
 
@<TRIPOS>ATOM
       1    C1      20.913968   19.797032   20.085391 C.3        1 MOL1        -0.2426
       2    H1      21.538145   19.525390   20.945817 H          1 MOL1         0.0959
       3    H2      20.959712   18.979165   19.354674 H          1 MOL1         0.0959
       4    H3      21.358814   20.687216   19.622229 H          1 MOL1         0.0959
       5    C2      19.455693   20.079845   20.511373 C.3        1 MOL1        -0.1410
       6    H4      18.901161   20.461032   19.642571 H          1 MOL1         0.0948
       7    H5      19.436941   20.886378   21.256445 H          1 MOL1         0.0948
       8    C3      18.719228   18.829521   21.056124 C.3        1 MOL1        -0.1435
       9    H6      17.686287   19.108315   21.305936 H          1 MOL1         0.0948
      10    H7      18.643169   18.084512   20.252211 H          1 MOL1         0.0948
      11    C4      19.373768   18.160891   22.292513 C.3        1 MOL1        -0.1435
      12    H8      20.366642   17.774460   22.026811 H          1 MOL1         0.0948
      13    H9      18.772587   17.283820   22.569116 H          1 MOL1         0.0948
      14    C5      19.486577   19.100540   23.516679 C.3        1 MOL1        -0.1435
      15    H10     20.148239   19.944032   23.278991 H          1 MOL1         0.0948
      16    H11     18.496920   19.520387   23.739943 H          1 MOL1         0.0948
      17    C6      20.040337   18.358659   24.757269 C.3        1 MOL1        -0.1500
      18    H12     21.002024   17.897939   24.494590 H          1 MOL1         0.0948
      19    H13     19.364264   17.538254   25.032612 H          1 MOL1         0.0948
      20    C7      20.249239   19.289021   25.971569 C.3        1 MOL1         0.1162
      21    H14     20.905666   20.109641   25.666071 H          1 MOL1         0.0910
      22    C8      20.931630   18.526239   27.118191 C.3        1 MOL1        -0.2491
      23    H15     20.310470   17.690460   27.463992 H          1 MOL1         0.0959
      24    H16     21.899465   18.122204   26.796001 H          1 MOL1         0.0959
      25    H17     21.116062   19.190967   27.971143 H          1 MOL1         0.0959
      26    N1      18.965559   19.914253   26.444892 N.4        1 MOL1        -0.5987
      27    H18     18.521348   20.462313   25.703290 H          1 MOL1         0.3605
      28    H19     19.125511   20.543056   27.237146 H          1 MOL1         0.3605
      29    H20     18.294345   19.203484   26.747904 H          1 MOL1         0.3605
@<TRIPOS>BOND
    1     1     2    1
    2     1     3    1
    3     1     4    1
    4     1     5    1
    5     5     6    1
    6     5     7    1
    7     5     8    1
    8     8     9    1
    9     8    10    1
   10     8    11    1
   11    11    12    1
   12    11    13    1
   13    11    14    1
   14    14    15    1
   15    14    16    1
   16    14    17    1
   17    17    18    1
   18    17    19    1
   19    17    20    1
   20    20    21    1
   21    20    22    1
   22    22    23    1
   23    22    24    1
   24    22    25    1
   25    20    26    1
   26    26    27    1
   27    26    28    1
   28    26    29    1
@<TRIPOS>SUBSTRUCTURE
       1 MOL1            1 RESIDUE      1      MOL     
@<SCITEGIC>MOL_PROPERTY
VM2 Rank
SciTegic.value.IntegerValue
26

@<SCITEGIC>MOL_PROPERTY
Conf_Id
SciTegic.value.IntegerValue
232

@<SCITEGIC>MOL_PROPERTY
Probability
SciTegic.value.DoubleValue
1.28

@<SCITEGIC>MOL_PROPERTY
Sum Probability
SciTegic.value.DoubleValue
70.19

@<SCITEGIC>MOL_PROPERTY
Delta G
SciTegic.value.DoubleValue
1.246

@<SCITEGIC>MOL_PROPERTY
G
SciTegic.value.DoubleValue
34.949

@<SCITEGIC>MOL_PROPERTY
E
SciTegic.value.DoubleValue
-2.870

@<SCITEGIC>MOL_PROPERTY
-TS
SciTegic.value.DoubleValue
37.818

@<SCITEGIC>MOL_PROPERTY
U+W
SciTegic.value.DoubleValue
-27.014

@<SCITEGIC>MOL_PROPERTY
U
SciTegic.value.DoubleValue
25.212

@<SCITEGIC>MOL_PROPERTY
W
SciTegic.value.DoubleValue
-52.226

@<SCITEGIC>MOL_PROPERTY
W(PB)
SciTegic.value.DoubleValue
-54.717

@<SCITEGIC>MOL_PROPERTY
W(SA)
SciTegic.value.DoubleValue
2.490

@<SCITEGIC>MOL_PROPERTY
Valence
SciTegic.value.DoubleValue
4.125

@<SCITEGIC>MOL_PROPERTY
Coulomb
SciTegic.value.DoubleValue
19.951

@<SCITEGIC>MOL_PROPERTY
VdW
SciTegic.value.DoubleValue
1.137

@<SCITEGIC>MOL_PROPERTY
VdW6
SciTegic.value.DoubleValue
-9.556

@<SCITEGIC>MOL_PROPERTY
VdW12
SciTegic.value.DoubleValue
10.693

@<SCITEGIC>MOL_PROPERTY
Bond
SciTegic.value.DoubleValue
0.266

@<SCITEGIC>MOL_PROPERTY
Angle
SciTegic.value.DoubleValue
1.520

@<SCITEGIC>MOL_PROPERTY
Pdih
SciTegic.value.DoubleValue
2.339

@<SCITEGIC>MOL_PROPERTY
Idih
SciTegic.value.DoubleValue
0.000

@<SCITEGIC>MOL_PROPERTY
Tether
SciTegic.value.DoubleValue
0.000

@<TRIPOS>MOLECULE
guest-s15_vm2.mol2 : vm2 ligand conformer 27
          29          28           1
SMALL
USER_CHARGES
 
@<TRIPOS>ATOM
       1    C1      20.843772   19.476297   19.758761 C.3        1 MOL1        -0.2426
       2    H1      20.628102   18.482259   19.345960 H          1 MOL1         0.0959
       3    H2      21.260830   20.091958   18.951327 H          1 MOL1         0.0959
       4    H3      21.620224   19.369348   20.526326 H          1 MOL1         0.0959
       5    C2      19.565475   20.129342   20.331452 C.3        1 MOL1        -0.1410
       6    H4      18.868085   20.326596   19.505321 H          1 MOL1         0.0948
       7    H5      19.813146   21.108271   20.765126 H          1 MOL1         0.0948
       8    C3      18.848555   19.254851   21.388197 C.3        1 MOL1        -0.1435
       9    H6      17.901387   19.741552   21.658855 H          1 MOL1         0.0948
      10    H7      18.582285   18.286345   20.942848 H          1 MOL1         0.0948
      11    C4      19.684778   19.027951   22.670168 C.3        1 MOL1        -0.1435
      12    H8      19.997546   20.000670   23.071973 H          1 MOL1         0.0948
      13    H9      20.600049   18.473465   22.424806 H          1 MOL1         0.0948
      14    C5      18.888785   18.242345   23.739761 C.3        1 MOL1        -0.1435
      15    H10     17.984714   18.800924   24.016518 H          1 MOL1         0.0948
      16    H11     18.539104   17.296426   23.303504 H          1 MOL1         0.0948
      17    C6      19.722051   17.920341   25.006683 C.3        1 MOL1        -0.1500
      18    H12     20.563714   17.275361   24.721073 H          1 MOL1         0.0948
      19    H13     19.106485   17.331761   25.699877 H          1 MOL1         0.0948
      20    C7      20.268780   19.165723   25.739878 C.3        1 MOL1         0.1162
      21    H14     20.895563   19.729210   25.042476 H          1 MOL1         0.0910
      22    C8      21.140316   18.744147   26.933367 C.3        1 MOL1        -0.2491
      23    H15     20.557395   18.177746   27.670462 H          1 MOL1         0.0959
      24    H16     21.976154   18.115212   26.602368 H          1 MOL1         0.0959
      25    H17     21.563477   19.623306   27.434765 H          1 MOL1         0.0959
      26    N1      19.173488   20.095004   26.185734 N.4        1 MOL1        -0.5987
      27    H18     18.609428   20.411067   25.392083 H          1 MOL1         0.3605
      28    H19     19.552395   20.927619   26.645913 H          1 MOL1         0.3605
      29    H20     18.543568   19.636829   26.849627 H          1 MOL1         0.3605
@<TRIPOS>BOND
    1     1     2    1
    2     1     3    1
    3     1     4    1
    4     1     5    1
    5     5     6    1
    6     5     7    1
    7     5     8    1
    8     8     9    1
    9     8    10    1
   10     8    11    1
   11    11    12    1
   12    11    13    1
   13    11    14    1
   14    14    15    1
   15    14    16    1
   16    14    17    1
   17    17    18    1
   18    17    19    1
   19    17    20    1
   20    20    21    1
   21    20    22    1
   22    22    23    1
   23    22    24    1
   24    22    25    1
   25    20    26    1
   26    26    27    1
   27    26    28    1
   28    26    29    1
@<TRIPOS>SUBSTRUCTURE
       1 MOL1            1 RESIDUE      1      MOL     
@<SCITEGIC>MOL_PROPERTY
VM2 Rank
SciTegic.value.IntegerValue
27

@<SCITEGIC>MOL_PROPERTY
Conf_Id
SciTegic.value.IntegerValue
1186

@<SCITEGIC>MOL_PROPERTY
Probability
SciTegic.value.DoubleValue
1.27

@<SCITEGIC>MOL_PROPERTY
Sum Probability
SciTegic.value.DoubleValue
71.46

@<SCITEGIC>MOL_PROPERTY
Delta G
SciTegic.value.DoubleValue
1.250

@<SCITEGIC>MOL_PROPERTY
G
SciTegic.value.DoubleValue
34.953

@<SCITEGIC>MOL_PROPERTY
E
SciTegic.value.DoubleValue
-2.739

@<SCITEGIC>MOL_PROPERTY
-TS
SciTegic.value.DoubleValue
37.692

@<SCITEGIC>MOL_PROPERTY
U+W
SciTegic.value.DoubleValue
-26.884

@<SCITEGIC>MOL_PROPERTY
U
SciTegic.value.DoubleValue
25.266

@<SCITEGIC>MOL_PROPERTY
W
SciTegic.value.DoubleValue
-52.150

@<SCITEGIC>MOL_PROPERTY
W(PB)
SciTegic.value.DoubleValue
-54.659

@<SCITEGIC>MOL_PROPERTY
W(SA)
SciTegic.value.DoubleValue
2.509

@<SCITEGIC>MOL_PROPERTY
Valence
SciTegic.value.DoubleValue
3.966

@<SCITEGIC>MOL_PROPERTY
Coulomb
SciTegic.value.DoubleValue
20.252

@<SCITEGIC>MOL_PROPERTY
VdW
SciTegic.value.DoubleValue
1.048

@<SCITEGIC>MOL_PROPERTY
VdW6
SciTegic.value.DoubleValue
-9.487

@<SCITEGIC>MOL_PROPERTY
VdW12
SciTegic.value.DoubleValue
10.535

@<SCITEGIC>MOL_PROPERTY
Bond
SciTegic.value.DoubleValue
0.252

@<SCITEGIC>MOL_PROPERTY
Angle
SciTegic.value.DoubleValue
1.329

@<SCITEGIC>MOL_PROPERTY
Pdih
SciTegic.value.DoubleValue
2.386

@<SCITEGIC>MOL_PROPERTY
Idih
SciTegic.value.DoubleValue
0.000

@<SCITEGIC>MOL_PROPERTY
Tether
SciTegic.value.DoubleValue
0.000

@<TRIPOS>MOLECULE
guest-s15_vm2.mol2 : vm2 ligand conformer 28
          29          28           1
SMALL
USER_CHARGES
 
@<TRIPOS>ATOM
       1    C1      18.307641   19.530155   20.294572 C.3        1 MOL1        -0.2426
       2    H1      17.621237   20.297193   19.913346 H          1 MOL1         0.0959
       3    H2      18.354996   18.722448   19.552742 H          1 MOL1         0.0959
       4    H3      17.871887   19.125657   21.216635 H          1 MOL1         0.0959
       5    C2      19.707438   20.133888   20.547753 C.3        1 MOL1        -0.1410
       6    H4      19.638430   20.924859   21.306373 H          1 MOL1         0.0948
       7    H5      20.050356   20.629181   19.628665 H          1 MOL1         0.0948
       8    C3      20.766503   19.081753   20.964883 C.3        1 MOL1        -0.1435
       9    H6      20.909050   18.374701   20.136113 H          1 MOL1         0.0948
      10    H7      21.733089   19.586697   21.098485 H          1 MOL1         0.0948
      11    C4      20.435207   18.279722   22.249914 C.3        1 MOL1        -0.1435
      12    H8      21.247235   17.560882   22.425988 H          1 MOL1         0.0948
      13    H9      19.529469   17.679051   22.093118 H          1 MOL1         0.0948
      14    C5      20.264658   19.166592   23.506417 C.3        1 MOL1        -0.1435
      15    H10     21.156546   19.795470   23.634552 H          1 MOL1         0.0948
      16    H11     19.412217   19.842291   23.363756 H          1 MOL1         0.0948
      17    C6      20.044843   18.316076   24.781043 C.3        1 MOL1        -0.1500
      18    H12     20.880436   17.611264   24.886198 H          1 MOL1         0.0948
      19    H13     19.135582   17.710224   24.670743 H          1 MOL1         0.0948
      20    C7      19.948916   19.168189   26.065066 C.3        1 MOL1         0.1162
      21    H14     20.852929   19.780551   26.138665 H          1 MOL1         0.0910
      22    C8      19.877977   18.261388   27.304005 C.3        1 MOL1        -0.2491
      23    H15     18.984323   17.625198   27.279689 H          1 MOL1         0.0959
      24    H16     20.759306   17.610479   27.361733 H          1 MOL1         0.0959
      25    H17     19.846327   18.860480   28.222421 H          1 MOL1         0.0959
      26    N1      18.782817   20.118238   26.040348 N.4        1 MOL1        -0.5987
      27    H18     18.839913   20.759227   25.244434 H          1 MOL1         0.3605
      28    H19     18.746489   20.687695   26.890691 H          1 MOL1         0.3605
      29    H20     17.894037   19.615651   25.969496 H          1 MOL1         0.3605
@<TRIPOS>BOND
    1     1     2    1
    2     1     3    1
    3     1     4    1
    4     1     5    1
    5     5     6    1
    6     5     7    1
    7     5     8    1
    8     8     9    1
    9     8    10    1
   10     8    11    1
   11    11    12    1
   12    11    13    1
   13    11    14    1
   14    14    15    1
   15    14    16    1
   16    14    17    1
   17    17    18    1
   18    17    19    1
   19    17    20    1
   20    20    21    1
   21    20    22    1
   22    22    23    1
   23    22    24    1
   24    22    25    1
   25    20    26    1
   26    26    27    1
   27    26    28    1
   28    26    29    1
@<TRIPOS>SUBSTRUCTURE
       1 MOL1            1 RESIDUE      1      MOL     
@<SCITEGIC>MOL_PROPERTY
VM2 Rank
SciTegic.value.IntegerValue
28

@<SCITEGIC>MOL_PROPERTY
Conf_Id
SciTegic.value.IntegerValue
1136

@<SCITEGIC>MOL_PROPERTY
Probability
SciTegic.value.DoubleValue
1.24

@<SCITEGIC>MOL_PROPERTY
Sum Probability
SciTegic.value.DoubleValue
72.71

@<SCITEGIC>MOL_PROPERTY
Delta G
SciTegic.value.DoubleValue
1.262

@<SCITEGIC>MOL_PROPERTY
G
SciTegic.value.DoubleValue
34.964

@<SCITEGIC>MOL_PROPERTY
E
SciTegic.value.DoubleValue
-2.857

@<SCITEGIC>MOL_PROPERTY
-TS
SciTegic.value.DoubleValue
37.821

@<SCITEGIC>MOL_PROPERTY
U+W
SciTegic.value.DoubleValue
-27.002

@<SCITEGIC>MOL_PROPERTY
U
SciTegic.value.DoubleValue
25.448

@<SCITEGIC>MOL_PROPERTY
W
SciTegic.value.DoubleValue
-52.449

@<SCITEGIC>MOL_PROPERTY
W(PB)
SciTegic.value.DoubleValue
-54.941

@<SCITEGIC>MOL_PROPERTY
W(SA)
SciTegic.value.DoubleValue
2.491

@<SCITEGIC>MOL_PROPERTY
Valence
SciTegic.value.DoubleValue
4.118

@<SCITEGIC>MOL_PROPERTY
Coulomb
SciTegic.value.DoubleValue
20.194

@<SCITEGIC>MOL_PROPERTY
VdW
SciTegic.value.DoubleValue
1.135

@<SCITEGIC>MOL_PROPERTY
VdW6
SciTegic.value.DoubleValue
-9.587

@<SCITEGIC>MOL_PROPERTY
VdW12
SciTegic.value.DoubleValue
10.722

@<SCITEGIC>MOL_PROPERTY
Bond
SciTegic.value.DoubleValue
0.268

@<SCITEGIC>MOL_PROPERTY
Angle
SciTegic.value.DoubleValue
1.523

@<SCITEGIC>MOL_PROPERTY
Pdih
SciTegic.value.DoubleValue
2.327

@<SCITEGIC>MOL_PROPERTY
Idih
SciTegic.value.DoubleValue
0.000

@<SCITEGIC>MOL_PROPERTY
Tether
SciTegic.value.DoubleValue
0.000

@<TRIPOS>MOLECULE
guest-s15_vm2.mol2 : vm2 ligand conformer 29
          29          28           1
SMALL
USER_CHARGES
 
@<TRIPOS>ATOM
       1    C1      19.601277   19.838812   19.261961 C.3        1 MOL1        -0.2426
       2    H1      19.655597   19.557232   18.202388 H          1 MOL1         0.0959
       3    H2      18.740061   20.507790   19.387627 H          1 MOL1         0.0959
       4    H3      20.512246   20.401683   19.499670 H          1 MOL1         0.0959
       5    C2      19.461744   18.580595   20.148717 C.3        1 MOL1        -0.1410
       6    H4      20.350555   17.944896   20.032008 H          1 MOL1         0.0948
       7    H5      18.610204   17.987484   19.786952 H          1 MOL1         0.0948
       8    C3      19.240400   18.901609   21.646733 C.3        1 MOL1        -0.1435
       9    H6      18.349898   19.535332   21.758029 H          1 MOL1         0.0948
      10    H7      19.018094   17.960223   22.165183 H          1 MOL1         0.0948
      11    C4      20.458166   19.587347   22.316807 C.3        1 MOL1        -0.1435
      12    H8      20.681583   20.526325   21.794277 H          1 MOL1         0.0948
      13    H9      21.348253   18.952855   22.206561 H          1 MOL1         0.0948
      14    C5      20.235966   19.914997   23.813915 C.3        1 MOL1        -0.1435
      15    H10     21.091170   20.506264   24.169786 H          1 MOL1         0.0948
      16    H11     19.350995   20.557360   23.914846 H          1 MOL1         0.0948
      17    C6      20.089003   18.657099   24.707945 C.3        1 MOL1        -0.1500
      18    H12     20.927557   17.977399   24.506157 H          1 MOL1         0.0948
      19    H13     19.172042   18.112722   24.449793 H          1 MOL1         0.0948
      20    C7      20.072440   18.993446   26.214591 C.3        1 MOL1         0.1162
      21    H14     20.984994   19.548837   26.452117 H          1 MOL1         0.0910
      22    C8      20.060765   17.703810   27.050637 C.3        1 MOL1        -0.2491
      23    H15     19.160520   17.109179   26.850872 H          1 MOL1         0.0959
      24    H16     20.937068   17.083986   26.823329 H          1 MOL1         0.0959
      25    H17     20.086403   17.935756   28.122524 H          1 MOL1         0.0959
      26    N1      18.916238   19.878286   26.592694 N.4        1 MOL1        -0.5987
      27    H18     18.932840   20.109883   27.590057 H          1 MOL1         0.3605
      28    H19     18.019926   19.424276   26.397845 H          1 MOL1         0.3605
      29    H20     18.935401   20.759845   26.072872 H          1 MOL1         0.3605
@<TRIPOS>BOND
    1     1     2    1
    2     1     3    1
    3     1     4    1
    4     1     5    1
    5     5     6    1
    6     5     7    1
    7     5     8    1
    8     8     9    1
    9     8    10    1
   10     8    11    1
   11    11    12    1
   12    11    13    1
   13    11    14    1
   14    14    15    1
   15    14    16    1
   16    14    17    1
   17    17    18    1
   18    17    19    1
   19    17    20    1
   20    20    21    1
   21    20    22    1
   22    22    23    1
   23    22    24    1
   24    22    25    1
   25    20    26    1
   26    26    27    1
   27    26    28    1
   28    26    29    1
@<TRIPOS>SUBSTRUCTURE
       1 MOL1            1 RESIDUE      1      MOL     
@<SCITEGIC>MOL_PROPERTY
VM2 Rank
SciTegic.value.IntegerValue
29

@<SCITEGIC>MOL_PROPERTY
Conf_Id
SciTegic.value.IntegerValue
554

@<SCITEGIC>MOL_PROPERTY
Probability
SciTegic.value.DoubleValue
1.23

@<SCITEGIC>MOL_PROPERTY
Sum Probability
SciTegic.value.DoubleValue
73.94

@<SCITEGIC>MOL_PROPERTY
Delta G
SciTegic.value.DoubleValue
1.269

@<SCITEGIC>MOL_PROPERTY
G
SciTegic.value.DoubleValue
34.971

@<SCITEGIC>MOL_PROPERTY
E
SciTegic.value.DoubleValue
-2.590

@<SCITEGIC>MOL_PROPERTY
-TS
SciTegic.value.DoubleValue
37.561

@<SCITEGIC>MOL_PROPERTY
U+W
SciTegic.value.DoubleValue
-26.734

@<SCITEGIC>MOL_PROPERTY
U
SciTegic.value.DoubleValue
25.449

@<SCITEGIC>MOL_PROPERTY
W
SciTegic.value.DoubleValue
-52.183

@<SCITEGIC>MOL_PROPERTY
W(PB)
SciTegic.value.DoubleValue
-54.671

@<SCITEGIC>MOL_PROPERTY
W(SA)
SciTegic.value.DoubleValue
2.488

@<SCITEGIC>MOL_PROPERTY
Valence
SciTegic.value.DoubleValue
4.270

@<SCITEGIC>MOL_PROPERTY
Coulomb
SciTegic.value.DoubleValue
19.867

@<SCITEGIC>MOL_PROPERTY
VdW
SciTegic.value.DoubleValue
1.312

@<SCITEGIC>MOL_PROPERTY
VdW6
SciTegic.value.DoubleValue
-9.219

@<SCITEGIC>MOL_PROPERTY
VdW12
SciTegic.value.DoubleValue
10.531

@<SCITEGIC>MOL_PROPERTY
Bond
SciTegic.value.DoubleValue
0.272

@<SCITEGIC>MOL_PROPERTY
Angle
SciTegic.value.DoubleValue
1.393

@<SCITEGIC>MOL_PROPERTY
Pdih
SciTegic.value.DoubleValue
2.605

@<SCITEGIC>MOL_PROPERTY
Idih
SciTegic.value.DoubleValue
0.000

@<SCITEGIC>MOL_PROPERTY
Tether
SciTegic.value.DoubleValue
0.000

@<TRIPOS>MOLECULE
guest-s15_vm2.mol2 : vm2 ligand conformer 30
          29          28           1
SMALL
USER_CHARGES
 
@<TRIPOS>ATOM
       1    C1      18.990834   18.554908   19.572445 C.3        1 MOL1        -0.2426
       2    H1      18.915486   18.549660   18.477359 H          1 MOL1         0.0959
       3    H2      19.017995   17.511479   19.912349 H          1 MOL1         0.0959
       4    H3      18.077923   19.020681   19.963919 H          1 MOL1         0.0959
       5    C2      20.255767   19.319370   20.024025 C.3        1 MOL1        -0.1410
       6    H4      20.192532   20.365778   19.694257 H          1 MOL1         0.0948
       7    H5      21.130403   18.889315   19.516274 H          1 MOL1         0.0948
       8    C3      20.491598   19.265221   21.552612 C.3        1 MOL1        -0.1435
       9    H6      20.584173   18.216271   21.862863 H          1 MOL1         0.0948
      10    H7      21.456030   19.742518   21.774253 H          1 MOL1         0.0948
      11    C4      19.377963   19.967878   22.369716 C.3        1 MOL1        -0.1435
      12    H8      18.430036   19.424816   22.259249 H          1 MOL1         0.0948
      13    H9      19.210477   20.971310   21.954745 H          1 MOL1         0.0948
      14    C5      19.710799   20.109829   23.875406 C.3        1 MOL1        -0.1435
      15    H10     20.651893   20.664769   23.992977 H          1 MOL1         0.0948
      16    H11     18.928931   20.725469   24.339033 H          1 MOL1         0.0948
      17    C6      19.809243   18.751465   24.616395 C.3        1 MOL1        -0.1500
      18    H12     20.606373   18.148740   24.163925 H          1 MOL1         0.0948
      19    H13     18.875761   18.188196   24.485581 H          1 MOL1         0.0948
      20    C7      20.114126   18.907983   26.122133 C.3        1 MOL1         0.1162
      21    H14     21.027392   19.501729   26.227286 H          1 MOL1         0.0910
      22    C8      20.356273   17.532461   26.763939 C.3        1 MOL1        -0.2491
      23    H15     20.607954   17.638558   27.826394 H          1 MOL1         0.0959
      24    H16     19.466292   16.895516   26.685264 H          1 MOL1         0.0959
      25    H17     21.191012   17.015162   26.274685 H          1 MOL1         0.0959
      26    N1      19.029397   19.646885   26.857329 N.4        1 MOL1        -0.5987
      27    H18     19.257617   19.756015   27.849621 H          1 MOL1         0.3605
      28    H19     18.135989   19.150755   26.800783 H          1 MOL1         0.3605
      29    H20     18.887222   20.583997   26.471084 H          1 MOL1         0.3605
@<TRIPOS>BOND
    1     1     2    1
    2     1     3    1
    3     1     4    1
    4     1     5    1
    5     5     6    1
    6     5     7    1
    7     5     8    1
    8     8     9    1
    9     8    10    1
   10     8    11    1
   11    11    12    1
   12    11    13    1
   13    11    14    1
   14    14    15    1
   15    14    16    1
   16    14    17    1
   17    17    18    1
   18    17    19    1
   19    17    20    1
   20    20    21    1
   21    20    22    1
   22    22    23    1
   23    22    24    1
   24    22    25    1
   25    20    26    1
   26    26    27    1
   27    26    28    1
   28    26    29    1
@<TRIPOS>SUBSTRUCTURE
       1 MOL1            1 RESIDUE      1      MOL     
@<SCITEGIC>MOL_PROPERTY
VM2 Rank
SciTegic.value.IntegerValue
30

@<SCITEGIC>MOL_PROPERTY
Conf_Id
SciTegic.value.IntegerValue
891

@<SCITEGIC>MOL_PROPERTY
Probability
SciTegic.value.DoubleValue
1.18

@<SCITEGIC>MOL_PROPERTY
Sum Probability
SciTegic.value.DoubleValue
75.12

@<SCITEGIC>MOL_PROPERTY
Delta G
SciTegic.value.DoubleValue
1.293

@<SCITEGIC>MOL_PROPERTY
G
SciTegic.value.DoubleValue
34.995

@<SCITEGIC>MOL_PROPERTY
E
SciTegic.value.DoubleValue
-2.604

@<SCITEGIC>MOL_PROPERTY
-TS
SciTegic.value.DoubleValue
37.599

@<SCITEGIC>MOL_PROPERTY
U+W
SciTegic.value.DoubleValue
-26.748

@<SCITEGIC>MOL_PROPERTY
U
SciTegic.value.DoubleValue
25.263

@<SCITEGIC>MOL_PROPERTY
W
SciTegic.value.DoubleValue
-52.011

@<SCITEGIC>MOL_PROPERTY
W(PB)
SciTegic.value.DoubleValue
-54.535

@<SCITEGIC>MOL_PROPERTY
W(SA)
SciTegic.value.DoubleValue
2.524

@<SCITEGIC>MOL_PROPERTY
Valence
SciTegic.value.DoubleValue
4.207

@<SCITEGIC>MOL_PROPERTY
Coulomb
SciTegic.value.DoubleValue
19.737

@<SCITEGIC>MOL_PROPERTY
VdW
SciTegic.value.DoubleValue
1.319

@<SCITEGIC>MOL_PROPERTY
VdW6
SciTegic.value.DoubleValue
-9.273

@<SCITEGIC>MOL_PROPERTY
VdW12
SciTegic.value.DoubleValue
10.591

@<SCITEGIC>MOL_PROPERTY
Bond
SciTegic.value.DoubleValue
0.271

@<SCITEGIC>MOL_PROPERTY
Angle
SciTegic.value.DoubleValue
1.357

@<SCITEGIC>MOL_PROPERTY
Pdih
SciTegic.value.DoubleValue
2.580

@<SCITEGIC>MOL_PROPERTY
Idih
SciTegic.value.DoubleValue
0.000

@<SCITEGIC>MOL_PROPERTY
Tether
SciTegic.value.DoubleValue
0.000

@<TRIPOS>MOLECULE
guest-s15_vm2.mol2 : vm2 ligand conformer 31
          29          28           1
SMALL
USER_CHARGES
 
@<TRIPOS>ATOM
       1    C1      20.386949   20.730802   20.274151 C.3        1 MOL1        -0.2426
       2    H1      19.551074   21.422364   20.441698 H          1 MOL1         0.0959
       3    H2      21.084826   20.823660   21.115434 H          1 MOL1         0.0959
       4    H3      20.916244   21.056874   19.369468 H          1 MOL1         0.0959
       5    C2      19.882915   19.278824   20.111625 C.3        1 MOL1        -0.1410
       6    H4      20.739178   18.603034   19.978052 H          1 MOL1         0.0948
       7    H5      19.290884   19.211172   19.188220 H          1 MOL1         0.0948
       8    C3      19.012451   18.793172   21.295643 C.3        1 MOL1        -0.1435
       9    H6      18.147532   19.460552   21.412718 H          1 MOL1         0.0948
      10    H7      18.607166   17.802727   21.046560 H          1 MOL1         0.0948
      11    C4      19.786158   18.701402   22.632527 C.3        1 MOL1        -0.1435
      12    H8      20.142032   19.698810   22.918619 H          1 MOL1         0.0948
      13    H9      20.675380   18.070273   22.498021 H          1 MOL1         0.0948
      14    C5      18.905539   18.118204   23.763608 C.3        1 MOL1        -0.1435
      15    H10     18.024215   18.755646   23.914957 H          1 MOL1         0.0948
      16    H11     18.520415   17.138043   23.450144 H          1 MOL1         0.0948
      17    C6      19.668209   17.939995   25.101465 C.3        1 MOL1        -0.1500
      18    H12     20.484015   17.220725   24.949560 H          1 MOL1         0.0948
      19    H13     18.993698   17.486739   25.840019 H          1 MOL1         0.0948
      20    C7      20.252460   19.248820   25.678764 C.3        1 MOL1         0.1162
      21    H14     20.938664   19.675256   24.941209 H          1 MOL1         0.0910
      22    C8      21.048113   18.959421   26.961296 C.3        1 MOL1        -0.2491
      23    H15     20.403921   18.533766   27.740880 H          1 MOL1         0.0959
      24    H16     21.860495   18.248973   26.763699 H          1 MOL1         0.0959
      25    H17     21.498519   19.879126   27.354568 H          1 MOL1         0.0959
      26    N1      19.193206   20.285360   25.934920 N.4        1 MOL1        -0.5987
      27    H18     19.598516   21.155244   26.292153 H          1 MOL1         0.3605
      28    H19     18.511175   19.958310   26.624389 H          1 MOL1         0.3605
      29    H20     18.681744   20.512543   25.077741 H          1 MOL1         0.3605
@<TRIPOS>BOND
    1     1     2    1
    2     1     3    1
    3     1     4    1
    4     1     5    1
    5     5     6    1
    6     5     7    1
    7     5     8    1
    8     8     9    1
    9     8    10    1
   10     8    11    1
   11    11    12    1
   12    11    13    1
   13    11    14    1
   14    14    15    1
   15    14    16    1
   16    14    17    1
   17    17    18    1
   18    17    19    1
   19    17    20    1
   20    20    21    1
   21    20    22    1
   22    22    23    1
   23    22    24    1
   24    22    25    1
   25    20    26    1
   26    26    27    1
   27    26    28    1
   28    26    29    1
@<TRIPOS>SUBSTRUCTURE
       1 MOL1            1 RESIDUE      1      MOL     
@<SCITEGIC>MOL_PROPERTY
VM2 Rank
SciTegic.value.IntegerValue
31

@<SCITEGIC>MOL_PROPERTY
Conf_Id
SciTegic.value.IntegerValue
1673

@<SCITEGIC>MOL_PROPERTY
Probability
SciTegic.value.DoubleValue
1.17

@<SCITEGIC>MOL_PROPERTY
Sum Probability
SciTegic.value.DoubleValue
76.29

@<SCITEGIC>MOL_PROPERTY
Delta G
SciTegic.value.DoubleValue
1.300

@<SCITEGIC>MOL_PROPERTY
G
SciTegic.value.DoubleValue
35.002

@<SCITEGIC>MOL_PROPERTY
E
SciTegic.value.DoubleValue
-2.687

@<SCITEGIC>MOL_PROPERTY
-TS
SciTegic.value.DoubleValue
37.690

@<SCITEGIC>MOL_PROPERTY
U+W
SciTegic.value.DoubleValue
-26.832

@<SCITEGIC>MOL_PROPERTY
U
SciTegic.value.DoubleValue
25.376

@<SCITEGIC>MOL_PROPERTY
W
SciTegic.value.DoubleValue
-52.207

@<SCITEGIC>MOL_PROPERTY
W(PB)
SciTegic.value.DoubleValue
-54.720

@<SCITEGIC>MOL_PROPERTY
W(SA)
SciTegic.value.DoubleValue
2.512

@<SCITEGIC>MOL_PROPERTY
Valence
SciTegic.value.DoubleValue
3.961

@<SCITEGIC>MOL_PROPERTY
Coulomb
SciTegic.value.DoubleValue
20.374

@<SCITEGIC>MOL_PROPERTY
VdW
SciTegic.value.DoubleValue
1.041

@<SCITEGIC>MOL_PROPERTY
VdW6
SciTegic.value.DoubleValue
-9.517

@<SCITEGIC>MOL_PROPERTY
VdW12
SciTegic.value.DoubleValue
10.558

@<SCITEGIC>MOL_PROPERTY
Bond
SciTegic.value.DoubleValue
0.254

@<SCITEGIC>MOL_PROPERTY
Angle
SciTegic.value.DoubleValue
1.329

@<SCITEGIC>MOL_PROPERTY
Pdih
SciTegic.value.DoubleValue
2.378

@<SCITEGIC>MOL_PROPERTY
Idih
SciTegic.value.DoubleValue
0.000

@<SCITEGIC>MOL_PROPERTY
Tether
SciTegic.value.DoubleValue
0.000

@<TRIPOS>MOLECULE
guest-s15_vm2.mol2 : vm2 ligand conformer 32
          29          28           1
SMALL
USER_CHARGES
 
@<TRIPOS>ATOM
       1    C1      21.068037   19.352148   19.751085 C.3        1 MOL1        -0.2426
       2    H1      21.701055   20.191348   19.434791 H          1 MOL1         0.0959
       3    H2      21.727085   18.530050   20.059341 H          1 MOL1         0.0959
       4    H3      20.490187   19.018833   18.879189 H          1 MOL1         0.0959
       5    C2      20.135939   19.777610   20.905170 C.3        1 MOL1        -0.1410
       6    H4      19.510339   20.619582   20.577573 H          1 MOL1         0.0948
       7    H5      20.747871   20.140994   21.741445 H          1 MOL1         0.0948
       8    C3      19.236065   18.609171   21.371382 C.3        1 MOL1        -0.1435
       9    H6      18.690595   18.211851   20.504320 H          1 MOL1         0.0948
      10    H7      19.859534   17.782793   21.737069 H          1 MOL1         0.0948
      11    C4      18.200996   19.014270   22.452816 C.3        1 MOL1        -0.1435
      12    H8      17.593597   18.134423   22.705997 H          1 MOL1         0.0948
      13    H9      17.503924   19.744714   22.019515 H          1 MOL1         0.0948
      14    C5      18.793481   19.607842   23.757382 C.3        1 MOL1        -0.1435
      15    H10     19.304965   20.554857   23.539837 H          1 MOL1         0.0948
      16    H11     17.956656   19.862518   24.420725 H          1 MOL1         0.0948
      17    C6      19.762621   18.645919   24.491483 C.3        1 MOL1        -0.1500
      18    H12     20.610313   18.415924   23.834049 H          1 MOL1         0.0948
      19    H13     19.256108   17.693808   24.697922 H          1 MOL1         0.0948
      20    C7      20.315340   19.236559   25.806747 C.3        1 MOL1         0.1162
      21    H14     20.780968   20.200812   25.580828 H          1 MOL1         0.0910
      22    C8      21.388702   18.309404   26.399017 C.3        1 MOL1        -0.2491
      23    H15     20.971244   17.324741   26.644209 H          1 MOL1         0.0959
      24    H16     22.213120   18.164041   25.689810 H          1 MOL1         0.0959
      25    H17     21.810765   18.739723   27.315582 H          1 MOL1         0.0959
      26    N1      19.234820   19.503076   26.818919 N.4        1 MOL1        -0.5987
      27    H18     18.535063   20.155898   26.455993 H          1 MOL1         0.3605
      28    H19     19.618056   19.910413   27.676719 H          1 MOL1         0.3605
      29    H20     18.747500   18.641602   27.079489 H          1 MOL1         0.3605
@<TRIPOS>BOND
    1     1     2    1
    2     1     3    1
    3     1     4    1
    4     1     5    1
    5     5     6    1
    6     5     7    1
    7     5     8    1
    8     8     9    1
    9     8    10    1
   10     8    11    1
   11    11    12    1
   12    11    13    1
   13    11    14    1
   14    14    15    1
   15    14    16    1
   16    14    17    1
   17    17    18    1
   18    17    19    1
   19    17    20    1
   20    20    21    1
   21    20    22    1
   22    22    23    1
   23    22    24    1
   24    22    25    1
   25    20    26    1
   26    26    27    1
   27    26    28    1
   28    26    29    1
@<TRIPOS>SUBSTRUCTURE
       1 MOL1            1 RESIDUE      1      MOL     
@<SCITEGIC>MOL_PROPERTY
VM2 Rank
SciTegic.value.IntegerValue
32

@<SCITEGIC>MOL_PROPERTY
Conf_Id
SciTegic.value.IntegerValue
616

@<SCITEGIC>MOL_PROPERTY
Probability
SciTegic.value.DoubleValue
1.15

@<SCITEGIC>MOL_PROPERTY
Sum Probability
SciTegic.value.DoubleValue
77.44

@<SCITEGIC>MOL_PROPERTY
Delta G
SciTegic.value.DoubleValue
1.309

@<SCITEGIC>MOL_PROPERTY
G
SciTegic.value.DoubleValue
35.011

@<SCITEGIC>MOL_PROPERTY
E
SciTegic.value.DoubleValue
-2.817

@<SCITEGIC>MOL_PROPERTY
-TS
SciTegic.value.DoubleValue
37.828

@<SCITEGIC>MOL_PROPERTY
U+W
SciTegic.value.DoubleValue
-26.962

@<SCITEGIC>MOL_PROPERTY
U
SciTegic.value.DoubleValue
25.306

@<SCITEGIC>MOL_PROPERTY
W
SciTegic.value.DoubleValue
-52.267

@<SCITEGIC>MOL_PROPERTY
W(PB)
SciTegic.value.DoubleValue
-54.759

@<SCITEGIC>MOL_PROPERTY
W(SA)
SciTegic.value.DoubleValue
2.492

@<SCITEGIC>MOL_PROPERTY
Valence
SciTegic.value.DoubleValue
4.184

@<SCITEGIC>MOL_PROPERTY
Coulomb
SciTegic.value.DoubleValue
19.997

@<SCITEGIC>MOL_PROPERTY
VdW
SciTegic.value.DoubleValue
1.124

@<SCITEGIC>MOL_PROPERTY
VdW6
SciTegic.value.DoubleValue
-9.688

@<SCITEGIC>MOL_PROPERTY
VdW12
SciTegic.value.DoubleValue
10.812

@<SCITEGIC>MOL_PROPERTY
Bond
SciTegic.value.DoubleValue
0.280

@<SCITEGIC>MOL_PROPERTY
Angle
SciTegic.value.DoubleValue
1.609

@<SCITEGIC>MOL_PROPERTY
Pdih
SciTegic.value.DoubleValue
2.295

@<SCITEGIC>MOL_PROPERTY
Idih
SciTegic.value.DoubleValue
0.000

@<SCITEGIC>MOL_PROPERTY
Tether
SciTegic.value.DoubleValue
0.000

@<TRIPOS>MOLECULE
guest-s15_vm2.mol2 : vm2 ligand conformer 33
          29          28           1
SMALL
USER_CHARGES
 
@<TRIPOS>ATOM
       1    C1      19.553805   19.811502   19.226689 C.3        1 MOL1        -0.2426
       2    H1      20.305781   20.610846   19.251179 H          1 MOL1         0.0959
       3    H2      19.423027   19.505879   18.180540 H          1 MOL1         0.0959
       4    H3      18.598275   20.226832   19.569671 H          1 MOL1         0.0959
       5    C2      19.994163   18.607469   20.090039 C.3        1 MOL1        -0.1410
       6    H4      20.881469   18.150394   19.630087 H          1 MOL1         0.0948
       7    H5      19.210667   17.836939   20.078132 H          1 MOL1         0.0948
       8    C3      20.334311   18.986158   21.551940 C.3        1 MOL1        -0.1435
       9    H6      20.764881   18.101623   22.037892 H          1 MOL1         0.0948
      10    H7      21.117829   19.756260   21.557975 H          1 MOL1         0.0948
      11    C4      19.108430   19.479937   22.362026 C.3        1 MOL1        -0.1435
      12    H8      18.326771   18.707918   22.360885 H          1 MOL1         0.0948
      13    H9      18.675469   20.358141   21.866153 H          1 MOL1         0.0948
      14    C5      19.445558   19.875633   23.821053 C.3        1 MOL1        -0.1435
      15    H10     20.241265   20.633464   23.821651 H          1 MOL1         0.0948
      16    H11     18.559215   20.358309   24.253122 H          1 MOL1         0.0948
      17    C6      19.864230   18.675901   24.709859 C.3        1 MOL1        -0.1500
      18    H12     20.766124   18.211455   24.293072 H          1 MOL1         0.0948
      19    H13     19.078580   17.908937   24.693253 H          1 MOL1         0.0948
      20    C7      20.160147   19.083227   26.169818 C.3        1 MOL1         0.1162
      21    H14     20.917642   19.872992   26.158779 H          1 MOL1         0.0910
      22    C8      20.721760   17.886971   26.954828 C.3        1 MOL1        -0.2491
      23    H15     19.997410   17.063814   26.995885 H          1 MOL1         0.0959
      24    H16     21.640566   17.510634   26.488007 H          1 MOL1         0.0959
      25    H17     20.966986   18.178238   27.983633 H          1 MOL1         0.0959
      26    N1      18.953597   19.649203   26.867747 N.4        1 MOL1        -0.5987
      27    H18     18.594412   20.475887   26.382824 H          1 MOL1         0.3605
      28    H19     19.173931   19.929001   27.827853 H          1 MOL1         0.3605
      29    H20     18.194410   18.964373   26.914380 H          1 MOL1         0.3605
@<TRIPOS>BOND
    1     1     2    1
    2     1     3    1
    3     1     4    1
    4     1     5    1
    5     5     6    1
    6     5     7    1
    7     5     8    1
    8     8     9    1
    9     8    10    1
   10     8    11    1
   11    11    12    1
   12    11    13    1
   13    11    14    1
   14    14    15    1
   15    14    16    1
   16    14    17    1
   17    17    18    1
   18    17    19    1
   19    17    20    1
   20    20    21    1
   21    20    22    1
   22    22    23    1
   23    22    24    1
   24    22    25    1
   25    20    26    1
   26    26    27    1
   27    26    28    1
   28    26    29    1
@<TRIPOS>SUBSTRUCTURE
       1 MOL1            1 RESIDUE      1      MOL     
@<SCITEGIC>MOL_PROPERTY
VM2 Rank
SciTegic.value.IntegerValue
33

@<SCITEGIC>MOL_PROPERTY
Conf_Id
SciTegic.value.IntegerValue
847

@<SCITEGIC>MOL_PROPERTY
Probability
SciTegic.value.DoubleValue
1.10

@<SCITEGIC>MOL_PROPERTY
Sum Probability
SciTegic.value.DoubleValue
78.53

@<SCITEGIC>MOL_PROPERTY
Delta G
SciTegic.value.DoubleValue
1.338

@<SCITEGIC>MOL_PROPERTY
G
SciTegic.value.DoubleValue
35.040

@<SCITEGIC>MOL_PROPERTY
E
SciTegic.value.DoubleValue
-2.455

@<SCITEGIC>MOL_PROPERTY
-TS
SciTegic.value.DoubleValue
37.495

@<SCITEGIC>MOL_PROPERTY
U+W
SciTegic.value.DoubleValue
-26.599

@<SCITEGIC>MOL_PROPERTY
U
SciTegic.value.DoubleValue
25.451

@<SCITEGIC>MOL_PROPERTY
W
SciTegic.value.DoubleValue
-52.050

@<SCITEGIC>MOL_PROPERTY
W(PB)
SciTegic.value.DoubleValue
-54.540

@<SCITEGIC>MOL_PROPERTY
W(SA)
SciTegic.value.DoubleValue
2.490

@<SCITEGIC>MOL_PROPERTY
Valence
SciTegic.value.DoubleValue
4.319

@<SCITEGIC>MOL_PROPERTY
Coulomb
SciTegic.value.DoubleValue
19.732

@<SCITEGIC>MOL_PROPERTY
VdW
SciTegic.value.DoubleValue
1.400

@<SCITEGIC>MOL_PROPERTY
VdW6
SciTegic.value.DoubleValue
-9.173

@<SCITEGIC>MOL_PROPERTY
VdW12
SciTegic.value.DoubleValue
10.573

@<SCITEGIC>MOL_PROPERTY
Bond
SciTegic.value.DoubleValue
0.281

@<SCITEGIC>MOL_PROPERTY
Angle
SciTegic.value.DoubleValue
1.459

@<SCITEGIC>MOL_PROPERTY
Pdih
SciTegic.value.DoubleValue
2.580

@<SCITEGIC>MOL_PROPERTY
Idih
SciTegic.value.DoubleValue
0.000

@<SCITEGIC>MOL_PROPERTY
Tether
SciTegic.value.DoubleValue
0.000

@<TRIPOS>MOLECULE
guest-s15_vm2.mol2 : vm2 ligand conformer 34
          29          28           1
SMALL
USER_CHARGES
 
@<TRIPOS>ATOM
       1    C1      20.268021   20.744849   20.263489 C.3        1 MOL1        -0.2426
       2    H1      19.927119   21.286455   21.154478 H          1 MOL1         0.0959
       3    H2      21.356820   20.622077   20.330318 H          1 MOL1         0.0959
       4    H3      20.054315   21.376873   19.391824 H          1 MOL1         0.0959
       5    C2      19.561998   19.376947   20.125337 C.3        1 MOL1        -0.1410
       6    H4      19.840437   18.931009   19.160263 H          1 MOL1         0.0948
       7    H5      18.473434   19.524332   20.093289 H          1 MOL1         0.0948
       8    C3      19.922447   18.381404   21.254240 C.3        1 MOL1        -0.1435
       9    H6      19.470998   17.408050   21.017514 H          1 MOL1         0.0948
      10    H7      21.009523   18.222505   21.269742 H          1 MOL1         0.0948
      11    C4      19.441442   18.835289   22.653121 C.3        1 MOL1        -0.1435
      12    H8      18.361992   19.037486   22.621610 H          1 MOL1         0.0948
      13    H9      19.936560   19.776444   22.922633 H          1 MOL1         0.0948
      14    C5      19.736057   17.767133   23.733343 C.3        1 MOL1        -0.1435
      15    H10     19.277456   16.815076   23.432532 H          1 MOL1         0.0948
      16    H11     20.816469   17.577966   23.784875 H          1 MOL1         0.0948
      17    C6      19.194762   18.149763   25.135123 C.3        1 MOL1        -0.1500
      18    H12     19.427789   17.341154   25.840538 H          1 MOL1         0.0948
      19    H13     18.099252   18.200229   25.081254 H          1 MOL1         0.0948
      20    C7      19.724684   19.488587   25.700810 C.3        1 MOL1         0.1162
      21    H14     19.477500   20.284952   24.992699 H          1 MOL1         0.0910
      22    C8      21.250719   19.469555   25.899161 C.3        1 MOL1        -0.2491
      23    H15     21.554525   18.648606   26.560508 H          1 MOL1         0.0959
      24    H16     21.774444   19.352913   24.943190 H          1 MOL1         0.0959
      25    H17     21.594426   20.411045   26.344961 H          1 MOL1         0.0959
      26    N1      19.035870   19.842473   26.989376 N.4        1 MOL1        -0.5987
      27    H18     18.020440   19.902335   26.870222 H          1 MOL1         0.3605
      28    H19     19.354498   20.747317   27.347733 H          1 MOL1         0.3605
      29    H20     19.219750   19.144737   27.715393 H          1 MOL1         0.3605
@<TRIPOS>BOND
    1     1     2    1
    2     1     3    1
    3     1     4    1
    4     1     5    1
    5     5     6    1
    6     5     7    1
    7     5     8    1
    8     8     9    1
    9     8    10    1
   10     8    11    1
   11    11    12    1
   12    11    13    1
   13    11    14    1
   14    14    15    1
   15    14    16    1
   16    14    17    1
   17    17    18    1
   18    17    19    1
   19    17    20    1
   20    20    21    1
   21    20    22    1
   22    22    23    1
   23    22    24    1
   24    22    25    1
   25    20    26    1
   26    26    27    1
   27    26    28    1
   28    26    29    1
@<TRIPOS>SUBSTRUCTURE
       1 MOL1            1 RESIDUE      1      MOL     
@<SCITEGIC>MOL_PROPERTY
VM2 Rank
SciTegic.value.IntegerValue
34

@<SCITEGIC>MOL_PROPERTY
Conf_Id
SciTegic.value.IntegerValue
19

@<SCITEGIC>MOL_PROPERTY
Probability
SciTegic.value.DoubleValue
0.94

@<SCITEGIC>MOL_PROPERTY
Sum Probability
SciTegic.value.DoubleValue
79.47

@<SCITEGIC>MOL_PROPERTY
Delta G
SciTegic.value.DoubleValue
1.430

@<SCITEGIC>MOL_PROPERTY
G
SciTegic.value.DoubleValue
35.133

@<SCITEGIC>MOL_PROPERTY
E
SciTegic.value.DoubleValue
-2.657

@<SCITEGIC>MOL_PROPERTY
-TS
SciTegic.value.DoubleValue
37.789

@<SCITEGIC>MOL_PROPERTY
U+W
SciTegic.value.DoubleValue
-26.802

@<SCITEGIC>MOL_PROPERTY
U
SciTegic.value.DoubleValue
25.521

@<SCITEGIC>MOL_PROPERTY
W
SciTegic.value.DoubleValue
-52.322

@<SCITEGIC>MOL_PROPERTY
W(PB)
SciTegic.value.DoubleValue
-54.805

@<SCITEGIC>MOL_PROPERTY
W(SA)
SciTegic.value.DoubleValue
2.483

@<SCITEGIC>MOL_PROPERTY
Valence
SciTegic.value.DoubleValue
4.455

@<SCITEGIC>MOL_PROPERTY
Coulomb
SciTegic.value.DoubleValue
19.959

@<SCITEGIC>MOL_PROPERTY
VdW
SciTegic.value.DoubleValue
1.107

@<SCITEGIC>MOL_PROPERTY
VdW6
SciTegic.value.DoubleValue
-9.753

@<SCITEGIC>MOL_PROPERTY
VdW12
SciTegic.value.DoubleValue
10.860

@<SCITEGIC>MOL_PROPERTY
Bond
SciTegic.value.DoubleValue
0.265

@<SCITEGIC>MOL_PROPERTY
Angle
SciTegic.value.DoubleValue
1.659

@<SCITEGIC>MOL_PROPERTY
Pdih
SciTegic.value.DoubleValue
2.531

@<SCITEGIC>MOL_PROPERTY
Idih
SciTegic.value.DoubleValue
0.000

@<SCITEGIC>MOL_PROPERTY
Tether
SciTegic.value.DoubleValue
0.000

@<TRIPOS>MOLECULE
guest-s15_vm2.mol2 : vm2 ligand conformer 35
          29          28           1
SMALL
USER_CHARGES
 
@<TRIPOS>ATOM
       1    C1      19.378520   19.672802   19.051412 C.3        1 MOL1        -0.2426
       2    H1      20.259359   20.228372   18.703999 H          1 MOL1         0.0959
       3    H2      19.125192   18.929444   18.284413 H          1 MOL1         0.0959
       4    H3      18.539277   20.376240   19.129484 H          1 MOL1         0.0959
       5    C2      19.653734   18.986030   20.405908 C.3        1 MOL1        -0.1410
       6    H4      20.477755   18.268344   20.289372 H          1 MOL1         0.0948
       7    H5      18.766748   18.408726   20.698081 H          1 MOL1         0.0948
       8    C3      20.008847   20.015554   21.504663 C.3        1 MOL1        -0.1435
       9    H6      20.844671   20.636149   21.153080 H          1 MOL1         0.0948
      10    H7      19.162513   20.698738   21.660026 H          1 MOL1         0.0948
      11    C4      20.411999   19.371782   22.854075 C.3        1 MOL1        -0.1435
      12    H8      20.776310   20.169783   23.514054 H          1 MOL1         0.0948
      13    H9      21.259498   18.690448   22.696795 H          1 MOL1         0.0948
      14    C5      19.252497   18.612626   23.548050 C.3        1 MOL1        -0.1435
      15    H10     18.393103   19.283647   23.677892 H          1 MOL1         0.0948
      16    H11     18.906717   17.797907   22.899023 H          1 MOL1         0.0948
      17    C6      19.656262   17.996414   24.912341 C.3        1 MOL1        -0.1500
      18    H12     20.456634   17.263267   24.745407 H          1 MOL1         0.0948
      19    H13     18.804187   17.432911   25.315235 H          1 MOL1         0.0948
      20    C7      20.128146   19.026192   25.963439 C.3        1 MOL1         0.1162
      21    H14     20.993014   19.560592   25.559778 H          1 MOL1         0.0910
      22    C8      20.566319   18.312369   27.251940 C.3        1 MOL1        -0.2491
      23    H15     19.731718   17.762896   27.705194 H          1 MOL1         0.0959
      24    H16     21.373881   17.598669   27.046452 H          1 MOL1         0.0959
      25    H17     20.939850   19.034781   27.988132 H          1 MOL1         0.0959
      26    N1      19.079676   20.062232   26.262173 N.4        1 MOL1        -0.5987
      27    H18     18.808238   20.569808   25.415632 H          1 MOL1         0.3605
      28    H19     19.416329   20.751562   26.940460 H          1 MOL1         0.3605
      29    H20     18.234616   19.635611   26.651190 H          1 MOL1         0.3605
@<TRIPOS>BOND
    1     1     2    1
    2     1     3    1
    3     1     4    1
    4     1     5    1
    5     5     6    1
    6     5     7    1
    7     5     8    1
    8     8     9    1
    9     8    10    1
   10     8    11    1
   11    11    12    1
   12    11    13    1
   13    11    14    1
   14    14    15    1
   15    14    16    1
   16    14    17    1
   17    17    18    1
   18    17    19    1
   19    17    20    1
   20    20    21    1
   21    20    22    1
   22    22    23    1
   23    22    24    1
   24    22    25    1
   25    20    26    1
   26    26    27    1
   27    26    28    1
   28    26    29    1
@<TRIPOS>SUBSTRUCTURE
       1 MOL1            1 RESIDUE      1      MOL     
@<SCITEGIC>MOL_PROPERTY
VM2 Rank
SciTegic.value.IntegerValue
35

@<SCITEGIC>MOL_PROPERTY
Conf_Id
SciTegic.value.IntegerValue
1190

@<SCITEGIC>MOL_PROPERTY
Probability
SciTegic.value.DoubleValue
0.93

@<SCITEGIC>MOL_PROPERTY
Sum Probability
SciTegic.value.DoubleValue
80.40

@<SCITEGIC>MOL_PROPERTY
Delta G
SciTegic.value.DoubleValue
1.435

@<SCITEGIC>MOL_PROPERTY
G
SciTegic.value.DoubleValue
35.137

@<SCITEGIC>MOL_PROPERTY
E
SciTegic.value.DoubleValue
-2.509

@<SCITEGIC>MOL_PROPERTY
-TS
SciTegic.value.DoubleValue
37.646

@<SCITEGIC>MOL_PROPERTY
U+W
SciTegic.value.DoubleValue
-26.654

@<SCITEGIC>MOL_PROPERTY
U
SciTegic.value.DoubleValue
25.432

@<SCITEGIC>MOL_PROPERTY
W
SciTegic.value.DoubleValue
-52.085

@<SCITEGIC>MOL_PROPERTY
W(PB)
SciTegic.value.DoubleValue
-54.609

@<SCITEGIC>MOL_PROPERTY
W(SA)
SciTegic.value.DoubleValue
2.523

@<SCITEGIC>MOL_PROPERTY
Valence
SciTegic.value.DoubleValue
4.057

@<SCITEGIC>MOL_PROPERTY
Coulomb
SciTegic.value.DoubleValue
20.266

@<SCITEGIC>MOL_PROPERTY
VdW
SciTegic.value.DoubleValue
1.109

@<SCITEGIC>MOL_PROPERTY
VdW6
SciTegic.value.DoubleValue
-9.451

@<SCITEGIC>MOL_PROPERTY
VdW12
SciTegic.value.DoubleValue
10.560

@<SCITEGIC>MOL_PROPERTY
Bond
SciTegic.value.DoubleValue
0.265

@<SCITEGIC>MOL_PROPERTY
Angle
SciTegic.value.DoubleValue
1.407

@<SCITEGIC>MOL_PROPERTY
Pdih
SciTegic.value.DoubleValue
2.385

@<SCITEGIC>MOL_PROPERTY
Idih
SciTegic.value.DoubleValue
0.000

@<SCITEGIC>MOL_PROPERTY
Tether
SciTegic.value.DoubleValue
0.000

@<TRIPOS>MOLECULE
guest-s15_vm2.mol2 : vm2 ligand conformer 36
          29          28           1
SMALL
USER_CHARGES
 
@<TRIPOS>ATOM
       1    C1      19.156672   20.099728   19.340505 C.3        1 MOL1        -0.2426
       2    H1      19.009156   19.134707   18.838285 H          1 MOL1         0.0959
       3    H2      18.310703   20.748637   19.079189 H          1 MOL1         0.0959
       4    H3      20.069621   20.558369   18.938754 H          1 MOL1         0.0959
       5    C2      19.252784   19.919273   20.870244 C.3        1 MOL1        -0.1410
       6    H4      18.308467   19.497165   21.238654 H          1 MOL1         0.0948
       7    H5      19.370455   20.902883   21.345907 H          1 MOL1         0.0948
       8    C3      20.436576   19.003982   21.262443 C.3        1 MOL1        -0.1435
       9    H6      20.292751   18.005243   20.827633 H          1 MOL1         0.0948
      10    H7      21.358767   19.403331   20.818144 H          1 MOL1         0.0948
      11    C4      20.642689   18.880141   22.791812 C.3        1 MOL1        -0.1435
      12    H8      20.806111   19.880061   23.215234 H          1 MOL1         0.0948
      13    H9      21.565985   18.312711   22.973027 H          1 MOL1         0.0948
      14    C5      19.468096   18.175620   23.516598 C.3        1 MOL1        -0.1435
      15    H10     18.552439   18.773395   23.426733 H          1 MOL1         0.0948
      16    H11     19.258781   17.219874   23.016714 H          1 MOL1         0.0948
      17    C6      19.759919   17.894318   25.012757 C.3        1 MOL1        -0.1500
      18    H12     20.611530   17.204548   25.083031 H          1 MOL1         0.0948
      19    H13     18.902285   17.367897   25.452317 H          1 MOL1         0.0948
      20    C7      20.066408   19.158746   25.846250 C.3        1 MOL1         0.1162
      21    H14     20.933867   19.659614   25.406400 H          1 MOL1         0.0910
      22    C8      20.417425   18.774295   27.292166 C.3        1 MOL1        -0.2491
      23    H15     19.576000   18.271077   27.784803 H          1 MOL1         0.0959
      24    H16     21.281506   18.098644   27.316721 H          1 MOL1         0.0959
      25    H17     20.674329   19.664700   27.879160 H          1 MOL1         0.0959
      26    N1      18.935430   20.149896   25.821225 N.4        1 MOL1        -0.5987
      27    H18     18.718168   20.440298   24.863991 H          1 MOL1         0.3605
      28    H19     19.164316   20.993132   26.355266 H          1 MOL1         0.3605
      29    H20     18.083089   19.752456   26.225051 H          1 MOL1         0.3605
@<TRIPOS>BOND
    1     1     2    1
    2     1     3    1
    3     1     4    1
    4     1     5    1
    5     5     6    1
    6     5     7    1
    7     5     8    1
    8     8     9    1
    9     8    10    1
   10     8    11    1
   11    11    12    1
   12    11    13    1
   13    11    14    1
   14    14    15    1
   15    14    16    1
   16    14    17    1
   17    17    18    1
   18    17    19    1
   19    17    20    1
   20    20    21    1
   21    20    22    1
   22    22    23    1
   23    22    24    1
   24    22    25    1
   25    20    26    1
   26    26    27    1
   27    26    28    1
   28    26    29    1
@<TRIPOS>SUBSTRUCTURE
       1 MOL1            1 RESIDUE      1      MOL     
@<SCITEGIC>MOL_PROPERTY
VM2 Rank
SciTegic.value.IntegerValue
36

@<SCITEGIC>MOL_PROPERTY
Conf_Id
SciTegic.value.IntegerValue
1185

@<SCITEGIC>MOL_PROPERTY
Probability
SciTegic.value.DoubleValue
0.90

@<SCITEGIC>MOL_PROPERTY
Sum Probability
SciTegic.value.DoubleValue
81.30

@<SCITEGIC>MOL_PROPERTY
Delta G
SciTegic.value.DoubleValue
1.456

@<SCITEGIC>MOL_PROPERTY
G
SciTegic.value.DoubleValue
35.159

@<SCITEGIC>MOL_PROPERTY
E
SciTegic.value.DoubleValue
-2.536

@<SCITEGIC>MOL_PROPERTY
-TS
SciTegic.value.DoubleValue
37.694

@<SCITEGIC>MOL_PROPERTY
U+W
SciTegic.value.DoubleValue
-26.680

@<SCITEGIC>MOL_PROPERTY
U
SciTegic.value.DoubleValue
25.640

@<SCITEGIC>MOL_PROPERTY
W
SciTegic.value.DoubleValue
-52.320

@<SCITEGIC>MOL_PROPERTY
W(PB)
SciTegic.value.DoubleValue
-54.810

@<SCITEGIC>MOL_PROPERTY
W(SA)
SciTegic.value.DoubleValue
2.490

@<SCITEGIC>MOL_PROPERTY
Valence
SciTegic.value.DoubleValue
3.985

@<SCITEGIC>MOL_PROPERTY
Coulomb
SciTegic.value.DoubleValue
20.665

@<SCITEGIC>MOL_PROPERTY
VdW
SciTegic.value.DoubleValue
0.990

@<SCITEGIC>MOL_PROPERTY
VdW6
SciTegic.value.DoubleValue
-9.569

@<SCITEGIC>MOL_PROPERTY
VdW12
SciTegic.value.DoubleValue
10.558

@<SCITEGIC>MOL_PROPERTY
Bond
SciTegic.value.DoubleValue
0.256

@<SCITEGIC>MOL_PROPERTY
Angle
SciTegic.value.DoubleValue
1.314

@<SCITEGIC>MOL_PROPERTY
Pdih
SciTegic.value.DoubleValue
2.414

@<SCITEGIC>MOL_PROPERTY
Idih
SciTegic.value.DoubleValue
0.000

@<SCITEGIC>MOL_PROPERTY
Tether
SciTegic.value.DoubleValue
0.000

@<TRIPOS>MOLECULE
guest-s15_vm2.mol2 : vm2 ligand conformer 37
          29          28           1
SMALL
USER_CHARGES
 
@<TRIPOS>ATOM
       1    C1      20.460971   19.108670   19.223602 C.3        1 MOL1        -0.2426
       2    H1      21.302468   18.527617   18.824488 H          1 MOL1         0.0959
       3    H2      19.536766   18.705691   18.789204 H          1 MOL1         0.0959
       4    H3      20.575659   20.145686   18.882030 H          1 MOL1         0.0959
       5    C2      20.428200   19.032075   20.764688 C.3        1 MOL1        -0.1410
       6    H4      21.376109   19.414280   21.168473 H          1 MOL1         0.0948
       7    H5      20.354096   17.979169   21.067236 H          1 MOL1         0.0948
       8    C3      19.246790   19.840941   21.350344 C.3        1 MOL1        -0.1435
       9    H6      19.297245   20.871193   20.971748 H          1 MOL1         0.0948
      10    H7      18.296705   19.425477   20.987111 H          1 MOL1         0.0948
      11    C4      19.236313   19.886999   22.897771 C.3        1 MOL1        -0.1435
      12    H8      18.441093   20.573229   23.220209 H          1 MOL1         0.0948
      13    H9      20.181642   20.319894   23.251288 H          1 MOL1         0.0948
      14    C5      19.004294   18.502498   23.553782 C.3        1 MOL1        -0.1435
      15    H10     18.106564   18.043578   23.117282 H          1 MOL1         0.0948
      16    H11     19.835194   17.825740   23.318892 H          1 MOL1         0.0948
      17    C6      18.817198   18.583068   25.090737 C.3        1 MOL1        -0.1500
      18    H12     18.648167   17.571789   25.483812 H          1 MOL1         0.0948
      19    H13     17.898990   19.147917   25.299138 H          1 MOL1         0.0948
      20    C7      19.988332   19.240525   25.858381 C.3        1 MOL1         0.1162
      21    H14     20.140620   20.247640   25.459217 H          1 MOL1         0.0910
      22    C8      21.299815   18.450722   25.700491 C.3        1 MOL1        -0.2491
      23    H15     22.101363   18.910210   26.291816 H          1 MOL1         0.0959
      24    H16     21.180807   17.413077   26.036294 H          1 MOL1         0.0959
      25    H17     21.633285   18.438214   24.656262 H          1 MOL1         0.0959
      26    N1      19.654088   19.410503   27.314204 N.4        1 MOL1        -0.5987
      27    H18     18.806358   19.970383   27.443677 H          1 MOL1         0.3605
      28    H19     20.410331   19.881417   27.819196 H          1 MOL1         0.3605
      29    H20     19.498760   18.507265   27.770023 H          1 MOL1         0.3605
@<TRIPOS>BOND
    1     1     2    1
    2     1     3    1
    3     1     4    1
    4     1     5    1
    5     5     6    1
    6     5     7    1
    7     5     8    1
    8     8     9    1
    9     8    10    1
   10     8    11    1
   11    11    12    1
   12    11    13    1
   13    11    14    1
   14    14    15    1
   15    14    16    1
   16    14    17    1
   17    17    18    1
   18    17    19    1
   19    17    20    1
   20    20    21    1
   21    20    22    1
   22    22    23    1
   23    22    24    1
   24    22    25    1
   25    20    26    1
   26    26    27    1
   27    26    28    1
   28    26    29    1
@<TRIPOS>SUBSTRUCTURE
       1 MOL1            1 RESIDUE      1      MOL     
@<SCITEGIC>MOL_PROPERTY
VM2 Rank
SciTegic.value.IntegerValue
37

@<SCITEGIC>MOL_PROPERTY
Conf_Id
SciTegic.value.IntegerValue
1351

@<SCITEGIC>MOL_PROPERTY
Probability
SciTegic.value.DoubleValue
0.89

@<SCITEGIC>MOL_PROPERTY
Sum Probability
SciTegic.value.DoubleValue
82.19

@<SCITEGIC>MOL_PROPERTY
Delta G
SciTegic.value.DoubleValue
1.462

@<SCITEGIC>MOL_PROPERTY
G
SciTegic.value.DoubleValue
35.164

@<SCITEGIC>MOL_PROPERTY
E
SciTegic.value.DoubleValue
-2.624

@<SCITEGIC>MOL_PROPERTY
-TS
SciTegic.value.DoubleValue
37.788

@<SCITEGIC>MOL_PROPERTY
U+W
SciTegic.value.DoubleValue
-26.768

@<SCITEGIC>MOL_PROPERTY
U
SciTegic.value.DoubleValue
25.505

@<SCITEGIC>MOL_PROPERTY
W
SciTegic.value.DoubleValue
-52.273

@<SCITEGIC>MOL_PROPERTY
W(PB)
SciTegic.value.DoubleValue
-54.758

@<SCITEGIC>MOL_PROPERTY
W(SA)
SciTegic.value.DoubleValue
2.485

@<SCITEGIC>MOL_PROPERTY
Valence
SciTegic.value.DoubleValue
4.471

@<SCITEGIC>MOL_PROPERTY
Coulomb
SciTegic.value.DoubleValue
19.980

@<SCITEGIC>MOL_PROPERTY
VdW
SciTegic.value.DoubleValue
1.055

@<SCITEGIC>MOL_PROPERTY
VdW6
SciTegic.value.DoubleValue
-9.823

@<SCITEGIC>MOL_PROPERTY
VdW12
SciTegic.value.DoubleValue
10.878

@<SCITEGIC>MOL_PROPERTY
Bond
SciTegic.value.DoubleValue
0.267

@<SCITEGIC>MOL_PROPERTY
Angle
SciTegic.value.DoubleValue
1.632

@<SCITEGIC>MOL_PROPERTY
Pdih
SciTegic.value.DoubleValue
2.572

@<SCITEGIC>MOL_PROPERTY
Idih
SciTegic.value.DoubleValue
0.000

@<SCITEGIC>MOL_PROPERTY
Tether
SciTegic.value.DoubleValue
0.000

@<TRIPOS>MOLECULE
guest-s15_vm2.mol2 : vm2 ligand conformer 38
          29          28           1
SMALL
USER_CHARGES
 
@<TRIPOS>ATOM
       1    C1      19.417940   20.442305   19.856445 C.3        1 MOL1        -0.2426
       2    H1      19.126658   21.082625   20.698239 H          1 MOL1         0.0959
       3    H2      19.772535   21.097941   19.050636 H          1 MOL1         0.0959
       4    H3      18.522668   19.919962   19.494956 H          1 MOL1         0.0959
       5    C2      20.521052   19.438647   20.261757 C.3        1 MOL1        -0.1410
       6    H4      21.393291   19.984303   20.647987 H          1 MOL1         0.0948
       7    H5      20.863996   18.907383   19.362922 H          1 MOL1         0.0948
       8    C3      20.051244   18.396695   21.305308 C.3        1 MOL1        -0.1435
       9    H6      19.194117   17.837805   20.905059 H          1 MOL1         0.0948
      10    H7      20.856506   17.663908   21.453192 H          1 MOL1         0.0948
      11    C4      19.677154   19.018693   22.671815 C.3        1 MOL1        -0.1435
      12    H8      18.822098   19.696757   22.551651 H          1 MOL1         0.0948
      13    H9      20.518863   19.624015   23.033442 H          1 MOL1         0.0948
      14    C5      19.320160   17.933064   23.715116 C.3        1 MOL1        -0.1435
      15    H10     18.516844   17.299929   23.313744 H          1 MOL1         0.0948
      16    H11     20.179568   17.267360   23.869874 H          1 MOL1         0.0948
      17    C6      18.850632   18.519989   25.071316 C.3        1 MOL1        -0.1500
      18    H12     18.603017   17.694126   25.751314 H          1 MOL1         0.0948
      19    H13     17.914160   19.068713   24.905430 H          1 MOL1         0.0948
      20    C7      19.862078   19.464535   25.762615 C.3        1 MOL1         0.1162
      21    H14     20.094250   20.284158   25.076276 H          1 MOL1         0.0910
      22    C8      21.173590   18.744240   26.122620 C.3        1 MOL1        -0.2491
      23    H15     21.696284   18.397227   25.223669 H          1 MOL1         0.0959
      24    H16     21.853997   19.422014   26.652660 H          1 MOL1         0.0959
      25    H17     20.985655   17.877046   26.767827 H          1 MOL1         0.0959
      26    N1      19.262150   20.097831   26.987007 N.4        1 MOL1        -0.5987
      27    H18     18.409527   20.619028   26.762822 H          1 MOL1         0.3605
      28    H19     19.913957   20.754284   27.426219 H          1 MOL1         0.3605
      29    H20     19.017178   19.394851   27.689544 H          1 MOL1         0.3605
@<TRIPOS>BOND
    1     1     2    1
    2     1     3    1
    3     1     4    1
    4     1     5    1
    5     5     6    1
    6     5     7    1
    7     5     8    1
    8     8     9    1
    9     8    10    1
   10     8    11    1
   11    11    12    1
   12    11    13    1
   13    11    14    1
   14    14    15    1
   15    14    16    1
   16    14    17    1
   17    17    18    1
   18    17    19    1
   19    17    20    1
   20    20    21    1
   21    20    22    1
   22    22    23    1
   23    22    24    1
   24    22    25    1
   25    20    26    1
   26    26    27    1
   27    26    28    1
   28    26    29    1
@<TRIPOS>SUBSTRUCTURE
       1 MOL1            1 RESIDUE      1      MOL     
@<SCITEGIC>MOL_PROPERTY
VM2 Rank
SciTegic.value.IntegerValue
38

@<SCITEGIC>MOL_PROPERTY
Conf_Id
SciTegic.value.IntegerValue
1367

@<SCITEGIC>MOL_PROPERTY
Probability
SciTegic.value.DoubleValue
0.86

@<SCITEGIC>MOL_PROPERTY
Sum Probability
SciTegic.value.DoubleValue
83.05

@<SCITEGIC>MOL_PROPERTY
Delta G
SciTegic.value.DoubleValue
1.484

@<SCITEGIC>MOL_PROPERTY
G
SciTegic.value.DoubleValue
35.186

@<SCITEGIC>MOL_PROPERTY
E
SciTegic.value.DoubleValue
-2.603

@<SCITEGIC>MOL_PROPERTY
-TS
SciTegic.value.DoubleValue
37.788

@<SCITEGIC>MOL_PROPERTY
U+W
SciTegic.value.DoubleValue
-26.747

@<SCITEGIC>MOL_PROPERTY
U
SciTegic.value.DoubleValue
25.489

@<SCITEGIC>MOL_PROPERTY
W
SciTegic.value.DoubleValue
-52.236

@<SCITEGIC>MOL_PROPERTY
W(PB)
SciTegic.value.DoubleValue
-54.721

@<SCITEGIC>MOL_PROPERTY
W(SA)
SciTegic.value.DoubleValue
2.485

@<SCITEGIC>MOL_PROPERTY
Valence
SciTegic.value.DoubleValue
4.461

@<SCITEGIC>MOL_PROPERTY
Coulomb
SciTegic.value.DoubleValue
19.910

@<SCITEGIC>MOL_PROPERTY
VdW
SciTegic.value.DoubleValue
1.118

@<SCITEGIC>MOL_PROPERTY
VdW6
SciTegic.value.DoubleValue
-9.713

@<SCITEGIC>MOL_PROPERTY
VdW12
SciTegic.value.DoubleValue
10.831

@<SCITEGIC>MOL_PROPERTY
Bond
SciTegic.value.DoubleValue
0.263

@<SCITEGIC>MOL_PROPERTY
Angle
SciTegic.value.DoubleValue
1.656

@<SCITEGIC>MOL_PROPERTY
Pdih
SciTegic.value.DoubleValue
2.542

@<SCITEGIC>MOL_PROPERTY
Idih
SciTegic.value.DoubleValue
0.000

@<SCITEGIC>MOL_PROPERTY
Tether
SciTegic.value.DoubleValue
0.000

@<TRIPOS>MOLECULE
guest-s15_vm2.mol2 : vm2 ligand conformer 39
          29          28           1
SMALL
USER_CHARGES
 
@<TRIPOS>ATOM
       1    C1      18.267528   19.076807   19.981975 C.3        1 MOL1        -0.2426
       2    H1      17.866980   18.111563   20.318239 H          1 MOL1         0.0959
       3    H2      17.418041   19.738052   19.767200 H          1 MOL1         0.0959
       4    H3      18.812445   18.912737   19.043169 H          1 MOL1         0.0959
       5    C2      19.185261   19.699914   21.054905 C.3        1 MOL1        -0.1410
       6    H4      18.596273   19.885306   21.962873 H          1 MOL1         0.0948
       7    H5      19.546683   20.676420   20.703605 H          1 MOL1         0.0948
       8    C3      20.388574   18.783294   21.377795 C.3        1 MOL1        -0.1435
       9    H6      20.028920   17.821795   21.767323 H          1 MOL1         0.0948
      10    H7      20.919344   18.549951   20.444514 H          1 MOL1         0.0948
      11    C4      21.400990   19.412894   22.369321 C.3        1 MOL1        -0.1435
      12    H8      21.839759   20.308882   21.909023 H          1 MOL1         0.0948
      13    H9      22.234380   18.711770   22.514388 H          1 MOL1         0.0948
      14    C5      20.820940   19.797914   23.754728 C.3        1 MOL1        -0.1435
      15    H10     21.630930   20.226763   24.360929 H          1 MOL1         0.0948
      16    H11     20.078009   20.596344   23.633306 H          1 MOL1         0.0948
      17    C6      20.201445   18.599434   24.517669 C.3        1 MOL1        -0.1500
      18    H12     20.931352   17.779418   24.543148 H          1 MOL1         0.0948
      19    H13     19.322248   18.222745   23.979592 H          1 MOL1         0.0948
      20    C7      19.799055   18.954198   25.965158 C.3        1 MOL1         0.1162
      21    H14     20.682118   19.343648   26.481053 H          1 MOL1         0.0910
      22    C8      19.319499   17.698147   26.709829 C.3        1 MOL1        -0.2491
      23    H15     19.066924   17.936410   27.750420 H          1 MOL1         0.0959
      24    H16     18.430245   17.268383   26.231845 H          1 MOL1         0.0959
      25    H17     20.103642   16.930921   26.725129 H          1 MOL1         0.0959
      26    N1      18.752708   20.033398   26.022620 N.4        1 MOL1        -0.5987
      27    H18     17.889772   19.741219   25.556387 H          1 MOL1         0.3605
      28    H19     19.075771   20.891079   25.566933 H          1 MOL1         0.3605
      29    H20     18.513917   20.271243   26.989616 H          1 MOL1         0.3605
@<TRIPOS>BOND
    1     1     2    1
    2     1     3    1
    3     1     4    1
    4     1     5    1
    5     5     6    1
    6     5     7    1
    7     5     8    1
    8     8     9    1
    9     8    10    1
   10     8    11    1
   11    11    12    1
   12    11    13    1
   13    11    14    1
   14    14    15    1
   15    14    16    1
   16    14    17    1
   17    17    18    1
   18    17    19    1
   19    17    20    1
   20    20    21    1
   21    20    22    1
   22    22    23    1
   23    22    24    1
   24    22    25    1
   25    20    26    1
   26    26    27    1
   27    26    28    1
   28    26    29    1
@<TRIPOS>SUBSTRUCTURE
       1 MOL1            1 RESIDUE      1      MOL     
@<SCITEGIC>MOL_PROPERTY
VM2 Rank
SciTegic.value.IntegerValue
39

@<SCITEGIC>MOL_PROPERTY
Conf_Id
SciTegic.value.IntegerValue
1041

@<SCITEGIC>MOL_PROPERTY
Probability
SciTegic.value.DoubleValue
0.85

@<SCITEGIC>MOL_PROPERTY
Sum Probability
SciTegic.value.DoubleValue
83.89

@<SCITEGIC>MOL_PROPERTY
Delta G
SciTegic.value.DoubleValue
1.492

@<SCITEGIC>MOL_PROPERTY
G
SciTegic.value.DoubleValue
35.194

@<SCITEGIC>MOL_PROPERTY
E
SciTegic.value.DoubleValue
-2.653

@<SCITEGIC>MOL_PROPERTY
-TS
SciTegic.value.DoubleValue
37.847

@<SCITEGIC>MOL_PROPERTY
U+W
SciTegic.value.DoubleValue
-26.798

@<SCITEGIC>MOL_PROPERTY
U
SciTegic.value.DoubleValue
25.620

@<SCITEGIC>MOL_PROPERTY
W
SciTegic.value.DoubleValue
-52.418

@<SCITEGIC>MOL_PROPERTY
W(PB)
SciTegic.value.DoubleValue
-54.902

@<SCITEGIC>MOL_PROPERTY
W(SA)
SciTegic.value.DoubleValue
2.484

@<SCITEGIC>MOL_PROPERTY
Valence
SciTegic.value.DoubleValue
4.137

@<SCITEGIC>MOL_PROPERTY
Coulomb
SciTegic.value.DoubleValue
20.478

@<SCITEGIC>MOL_PROPERTY
VdW
SciTegic.value.DoubleValue
1.005

@<SCITEGIC>MOL_PROPERTY
VdW6
SciTegic.value.DoubleValue
-9.765

@<SCITEGIC>MOL_PROPERTY
VdW12
SciTegic.value.DoubleValue
10.770

@<SCITEGIC>MOL_PROPERTY
Bond
SciTegic.value.DoubleValue
0.272

@<SCITEGIC>MOL_PROPERTY
Angle
SciTegic.value.DoubleValue
1.511

@<SCITEGIC>MOL_PROPERTY
Pdih
SciTegic.value.DoubleValue
2.355

@<SCITEGIC>MOL_PROPERTY
Idih
SciTegic.value.DoubleValue
0.000

@<SCITEGIC>MOL_PROPERTY
Tether
SciTegic.value.DoubleValue
0.000

@<TRIPOS>MOLECULE
guest-s15_vm2.mol2 : vm2 ligand conformer 40
          29          28           1
SMALL
USER_CHARGES
 
@<TRIPOS>ATOM
       1    C1      19.402473   20.555037   19.764070 C.3        1 MOL1        -0.2426
       2    H1      18.545067   20.004801   19.355003 H          1 MOL1         0.0959
       3    H2      19.018508   21.401950   20.347628 H          1 MOL1         0.0959
       4    H3      19.976839   20.959668   18.920619 H          1 MOL1         0.0959
       5    C2      20.286281   19.636892   20.634529 C.3        1 MOL1        -0.1410
       6    H4      21.151880   20.205690   21.002064 H          1 MOL1         0.0948
       7    H5      20.683055   18.819828   20.015791 H          1 MOL1         0.0948
       8    C3      19.500899   19.052926   21.829427 C.3        1 MOL1        -0.1435
       9    H6      19.101867   19.878620   22.432972 H          1 MOL1         0.0948
      10    H7      18.638424   18.482846   21.457514 H          1 MOL1         0.0948
      11    C4      20.387391   18.136535   22.706150 C.3        1 MOL1        -0.1435
      12    H8      21.230510   18.712890   23.109843 H          1 MOL1         0.0948
      13    H9      20.830659   17.355703   22.072834 H          1 MOL1         0.0948
      14    C5      19.614358   17.448096   23.860450 C.3        1 MOL1        -0.1435
      15    H10     18.843150   16.792493   23.433212 H          1 MOL1         0.0948
      16    H11     20.300426   16.781857   24.400309 H          1 MOL1         0.0948
      17    C6      18.940269   18.419933   24.866008 C.3        1 MOL1        -0.1500
      18    H12     18.482651   17.834485   25.674409 H          1 MOL1         0.0948
      19    H13     18.109975   18.930349   24.361622 H          1 MOL1         0.0948
      20    C7      19.883619   19.482478   25.476484 C.3        1 MOL1         0.1162
      21    H14     20.342487   20.046107   24.658690 H          1 MOL1         0.0910
      22    C8      21.003024   18.843591   26.317391 C.3        1 MOL1        -0.2491
      23    H15     20.589316   18.229588   27.127004 H          1 MOL1         0.0959
      24    H16     21.650044   18.208264   25.701420 H          1 MOL1         0.0959
      25    H17     21.638168   19.616792   26.766839 H          1 MOL1         0.0959
      26    N1      19.117686   20.480512   26.299490 N.4        1 MOL1        -0.5987
      27    H18     18.393651   20.948994   25.747206 H          1 MOL1         0.3605
      28    H19     19.733788   21.207692   26.674063 H          1 MOL1         0.3605
      29    H20     18.655792   20.032278   27.095410 H          1 MOL1         0.3605
@<TRIPOS>BOND
    1     1     2    1
    2     1     3    1
    3     1     4    1
    4     1     5    1
    5     5     6    1
    6     5     7    1
    7     5     8    1
    8     8     9    1
    9     8    10    1
   10     8    11    1
   11    11    12    1
   12    11    13    1
   13    11    14    1
   14    14    15    1
   15    14    16    1
   16    14    17    1
   17    17    18    1
   18    17    19    1
   19    17    20    1
   20    20    21    1
   21    20    22    1
   22    22    23    1
   23    22    24    1
   24    22    25    1
   25    20    26    1
   26    26    27    1
   27    26    28    1
   28    26    29    1
@<TRIPOS>SUBSTRUCTURE
       1 MOL1            1 RESIDUE      1      MOL     
@<SCITEGIC>MOL_PROPERTY
VM2 Rank
SciTegic.value.IntegerValue
40

@<SCITEGIC>MOL_PROPERTY
Conf_Id
SciTegic.value.IntegerValue
908

@<SCITEGIC>MOL_PROPERTY
Probability
SciTegic.value.DoubleValue
0.83

@<SCITEGIC>MOL_PROPERTY
Sum Probability
SciTegic.value.DoubleValue
84.72

@<SCITEGIC>MOL_PROPERTY
Delta G
SciTegic.value.DoubleValue
1.503

@<SCITEGIC>MOL_PROPERTY
G
SciTegic.value.DoubleValue
35.205

@<SCITEGIC>MOL_PROPERTY
E
SciTegic.value.DoubleValue
-2.773

@<SCITEGIC>MOL_PROPERTY
-TS
SciTegic.value.DoubleValue
37.978

@<SCITEGIC>MOL_PROPERTY
U+W
SciTegic.value.DoubleValue
-26.917

@<SCITEGIC>MOL_PROPERTY
U
SciTegic.value.DoubleValue
25.707

@<SCITEGIC>MOL_PROPERTY
W
SciTegic.value.DoubleValue
-52.624

@<SCITEGIC>MOL_PROPERTY
W(PB)
SciTegic.value.DoubleValue
-55.091

@<SCITEGIC>MOL_PROPERTY
W(SA)
SciTegic.value.DoubleValue
2.466

@<SCITEGIC>MOL_PROPERTY
Valence
SciTegic.value.DoubleValue
4.405

@<SCITEGIC>MOL_PROPERTY
Coulomb
SciTegic.value.DoubleValue
20.449

@<SCITEGIC>MOL_PROPERTY
VdW
SciTegic.value.DoubleValue
0.853

@<SCITEGIC>MOL_PROPERTY
VdW6
SciTegic.value.DoubleValue
-10.190

@<SCITEGIC>MOL_PROPERTY
VdW12
SciTegic.value.DoubleValue
11.043

@<SCITEGIC>MOL_PROPERTY
Bond
SciTegic.value.DoubleValue
0.273

@<SCITEGIC>MOL_PROPERTY
Angle
SciTegic.value.DoubleValue
1.693

@<SCITEGIC>MOL_PROPERTY
Pdih
SciTegic.value.DoubleValue
2.439

@<SCITEGIC>MOL_PROPERTY
Idih
SciTegic.value.DoubleValue
0.000

@<SCITEGIC>MOL_PROPERTY
Tether
SciTegic.value.DoubleValue
0.000

@<TRIPOS>MOLECULE
guest-s15_vm2.mol2 : vm2 ligand conformer 41
          29          28           1
SMALL
USER_CHARGES
 
@<TRIPOS>ATOM
       1    C1      19.996594   19.211317   18.997376 C.3        1 MOL1        -0.2426
       2    H1      20.243653   20.239435   18.702141 H          1 MOL1         0.0959
       3    H2      20.911732   18.608126   18.934672 H          1 MOL1         0.0959
       4    H3      19.280182   18.814076   18.266628 H          1 MOL1         0.0959
       5    C2      19.402162   19.169979   20.421103 C.3        1 MOL1        -0.1410
       6    H4      19.130397   18.134014   20.662532 H          1 MOL1         0.0948
       7    H5      18.473821   19.757570   20.445196 H          1 MOL1         0.0948
       8    C3      20.396963   19.721338   21.469740 C.3        1 MOL1        -0.1435
       9    H6      21.302663   19.099493   21.484673 H          1 MOL1         0.0948
      10    H7      20.718300   20.725656   21.160838 H          1 MOL1         0.0948
      11    C4      19.807369   19.814743   22.898542 C.3        1 MOL1        -0.1435
      12    H8      18.902457   20.437678   22.882584 H          1 MOL1         0.0948
      13    H9      20.534411   20.341547   23.530332 H          1 MOL1         0.0948
      14    C5      19.482444   18.434883   23.525049 C.3        1 MOL1        -0.1435
      15    H10     18.740059   17.915618   22.905639 H          1 MOL1         0.0948
      16    H11     20.379107   17.801368   23.516969 H          1 MOL1         0.0948
      17    C6      18.914209   18.535930   24.964514 C.3        1 MOL1        -0.1500
      18    H12     18.682917   17.525676   25.327383 H          1 MOL1         0.0948
      19    H13     17.955966   19.070277   24.921655 H          1 MOL1         0.0948
      20    C7      19.831706   19.245725   25.988206 C.3        1 MOL1         0.1162
      21    H14     20.043721   20.254428   25.622015 H          1 MOL1         0.0910
      22    C8      21.167646   18.505920   26.179031 C.3        1 MOL1        -0.2491
      23    H15     21.004674   17.467131   26.492077 H          1 MOL1         0.0959
      24    H16     21.753568   18.498202   25.252548 H          1 MOL1         0.0959
      25    H17     21.777649   19.000694   26.944781 H          1 MOL1         0.0959
      26    N1      19.136907   19.416166   27.310439 N.4        1 MOL1        -0.5987
      27    H18     18.264592   19.943827   27.212862 H          1 MOL1         0.3605
      28    H19     19.725042   19.920887   27.979800 H          1 MOL1         0.3605
      29    H20     18.904158   18.511883   27.729771 H          1 MOL1         0.3605
@<TRIPOS>BOND
    1     1     2    1
    2     1     3    1
    3     1     4    1
    4     1     5    1
    5     5     6    1
    6     5     7    1
    7     5     8    1
    8     8     9    1
    9     8    10    1
   10     8    11    1
   11    11    12    1
   12    11    13    1
   13    11    14    1
   14    14    15    1
   15    14    16    1
   16    14    17    1
   17    17    18    1
   18    17    19    1
   19    17    20    1
   20    20    21    1
   21    20    22    1
   22    22    23    1
   23    22    24    1
   24    22    25    1
   25    20    26    1
   26    26    27    1
   27    26    28    1
   28    26    29    1
@<TRIPOS>SUBSTRUCTURE
       1 MOL1            1 RESIDUE      1      MOL     
@<SCITEGIC>MOL_PROPERTY
VM2 Rank
SciTegic.value.IntegerValue
41

@<SCITEGIC>MOL_PROPERTY
Conf_Id
SciTegic.value.IntegerValue
345

@<SCITEGIC>MOL_PROPERTY
Probability
SciTegic.value.DoubleValue
0.66

@<SCITEGIC>MOL_PROPERTY
Sum Probability
SciTegic.value.DoubleValue
85.39

@<SCITEGIC>MOL_PROPERTY
Delta G
SciTegic.value.DoubleValue
1.636

@<SCITEGIC>MOL_PROPERTY
G
SciTegic.value.DoubleValue
35.339

@<SCITEGIC>MOL_PROPERTY
E
SciTegic.value.DoubleValue
-2.401

@<SCITEGIC>MOL_PROPERTY
-TS
SciTegic.value.DoubleValue
37.739

@<SCITEGIC>MOL_PROPERTY
U+W
SciTegic.value.DoubleValue
-26.545

@<SCITEGIC>MOL_PROPERTY
U
SciTegic.value.DoubleValue
25.622

@<SCITEGIC>MOL_PROPERTY
W
SciTegic.value.DoubleValue
-52.167

@<SCITEGIC>MOL_PROPERTY
W(PB)
SciTegic.value.DoubleValue
-54.629

@<SCITEGIC>MOL_PROPERTY
W(SA)
SciTegic.value.DoubleValue
2.462

@<SCITEGIC>MOL_PROPERTY
Valence
SciTegic.value.DoubleValue
4.553

@<SCITEGIC>MOL_PROPERTY
Coulomb
SciTegic.value.DoubleValue
19.890

@<SCITEGIC>MOL_PROPERTY
VdW
SciTegic.value.DoubleValue
1.179

@<SCITEGIC>MOL_PROPERTY
VdW6
SciTegic.value.DoubleValue
-9.673

@<SCITEGIC>MOL_PROPERTY
VdW12
SciTegic.value.DoubleValue
10.852

@<SCITEGIC>MOL_PROPERTY
Bond
SciTegic.value.DoubleValue
0.276

@<SCITEGIC>MOL_PROPERTY
Angle
SciTegic.value.DoubleValue
1.749

@<SCITEGIC>MOL_PROPERTY
Pdih
SciTegic.value.DoubleValue
2.528

@<SCITEGIC>MOL_PROPERTY
Idih
SciTegic.value.DoubleValue
0.000

@<SCITEGIC>MOL_PROPERTY
Tether
SciTegic.value.DoubleValue
0.000

@<TRIPOS>MOLECULE
guest-s15_vm2.mol2 : vm2 ligand conformer 42
          29          28           1
SMALL
USER_CHARGES
 
@<TRIPOS>ATOM
       1    C1      18.355116   18.922268   19.941932 C.3        1 MOL1        -0.2426
       2    H1      18.753868   19.432533   19.055458 H          1 MOL1         0.0959
       3    H2      17.888569   17.985677   19.610062 H          1 MOL1         0.0959
       4    H3      17.569991   19.554682   20.376485 H          1 MOL1         0.0959
       5    C2      19.471604   18.640522   20.969424 C.3        1 MOL1        -0.1410
       6    H4      20.226485   17.982532   20.516874 H          1 MOL1         0.0948
       7    H5      19.042498   18.095742   21.820890 H          1 MOL1         0.0948
       8    C3      20.141966   19.947040   21.455448 C.3        1 MOL1        -0.1435
       9    H6      20.497061   20.511756   20.582417 H          1 MOL1         0.0948
      10    H7      19.395926   20.587275   21.944451 H          1 MOL1         0.0948
      11    C4      21.344628   19.712188   22.405738 C.3        1 MOL1        -0.1435
      12    H8      22.131271   19.174771   21.858424 H          1 MOL1         0.0948
      13    H9      21.777494   20.685851   22.673630 H          1 MOL1         0.0948
      14    C5      21.019482   18.931336   23.705242 C.3        1 MOL1        -0.1435
      15    H10     20.712952   17.909293   23.449965 H          1 MOL1         0.0948
      16    H11     21.943839   18.833771   24.291184 H          1 MOL1         0.0948
      17    C6      19.937849   19.615675   24.579985 C.3        1 MOL1        -0.1500
      18    H12     18.973083   19.612359   24.056866 H          1 MOL1         0.0948
      19    H13     20.215812   20.668737   24.718770 H          1 MOL1         0.0948
      20    C7      19.765039   18.965494   25.971267 C.3        1 MOL1         0.1162
      21    H14     20.742894   18.938920   26.461872 H          1 MOL1         0.0910
      22    C8      19.228579   17.526035   25.874228 C.3        1 MOL1        -0.2491
      23    H15     19.066979   17.105814   26.874546 H          1 MOL1         0.0959
      24    H16     18.274516   17.493702   25.333449 H          1 MOL1         0.0959
      25    H17     19.938782   16.869766   25.358135 H          1 MOL1         0.0959
      26    N1      18.871737   19.795442   26.850735 N.4        1 MOL1        -0.5987
      27    H18     18.786090   19.388609   27.786606 H          1 MOL1         0.3605
      28    H19     17.927735   19.868994   26.461985 H          1 MOL1         0.3605
      29    H20     19.233175   20.746932   26.964339 H          1 MOL1         0.3605
@<TRIPOS>BOND
    1     1     2    1
    2     1     3    1
    3     1     4    1
    4     1     5    1
    5     5     6    1
    6     5     7    1
    7     5     8    1
    8     8     9    1
    9     8    10    1
   10     8    11    1
   11    11    12    1
   12    11    13    1
   13    11    14    1
   14    14    15    1
   15    14    16    1
   16    14    17    1
   17    17    18    1
   18    17    19    1
   19    17    20    1
   20    20    21    1
   21    20    22    1
   22    22    23    1
   23    22    24    1
   24    22    25    1
   25    20    26    1
   26    26    27    1
   27    26    28    1
   28    26    29    1
@<TRIPOS>SUBSTRUCTURE
       1 MOL1            1 RESIDUE      1      MOL     
@<SCITEGIC>MOL_PROPERTY
VM2 Rank
SciTegic.value.IntegerValue
42

@<SCITEGIC>MOL_PROPERTY
Conf_Id
SciTegic.value.IntegerValue
310

@<SCITEGIC>MOL_PROPERTY
Probability
SciTegic.value.DoubleValue
0.66

@<SCITEGIC>MOL_PROPERTY
Sum Probability
SciTegic.value.DoubleValue
86.05

@<SCITEGIC>MOL_PROPERTY
Delta G
SciTegic.value.DoubleValue
1.637

@<SCITEGIC>MOL_PROPERTY
G
SciTegic.value.DoubleValue
35.339

@<SCITEGIC>MOL_PROPERTY
E
SciTegic.value.DoubleValue
-2.532

@<SCITEGIC>MOL_PROPERTY
-TS
SciTegic.value.DoubleValue
37.872

@<SCITEGIC>MOL_PROPERTY
U+W
SciTegic.value.DoubleValue
-26.677

@<SCITEGIC>MOL_PROPERTY
U
SciTegic.value.DoubleValue
25.699

@<SCITEGIC>MOL_PROPERTY
W
SciTegic.value.DoubleValue
-52.376

@<SCITEGIC>MOL_PROPERTY
W(PB)
SciTegic.value.DoubleValue
-54.830

@<SCITEGIC>MOL_PROPERTY
W(SA)
SciTegic.value.DoubleValue
2.454

@<SCITEGIC>MOL_PROPERTY
Valence
SciTegic.value.DoubleValue
4.645

@<SCITEGIC>MOL_PROPERTY
Coulomb
SciTegic.value.DoubleValue
19.935

@<SCITEGIC>MOL_PROPERTY
VdW
SciTegic.value.DoubleValue
1.119

@<SCITEGIC>MOL_PROPERTY
VdW6
SciTegic.value.DoubleValue
-9.960

@<SCITEGIC>MOL_PROPERTY
VdW12
SciTegic.value.DoubleValue
11.079

@<SCITEGIC>MOL_PROPERTY
Bond
SciTegic.value.DoubleValue
0.284

@<SCITEGIC>MOL_PROPERTY
Angle
SciTegic.value.DoubleValue
1.754

@<SCITEGIC>MOL_PROPERTY
Pdih
SciTegic.value.DoubleValue
2.607

@<SCITEGIC>MOL_PROPERTY
Idih
SciTegic.value.DoubleValue
0.000

@<SCITEGIC>MOL_PROPERTY
Tether
SciTegic.value.DoubleValue
0.000

@<TRIPOS>MOLECULE
guest-s15_vm2.mol2 : vm2 ligand conformer 43
          29          28           1
SMALL
USER_CHARGES
 
@<TRIPOS>ATOM
       1    C1      19.242276   20.183144   19.629238 C.3        1 MOL1        -0.2426
       2    H1      18.322684   20.583926   20.075035 H          1 MOL1         0.0959
       3    H2      20.077014   20.833284   19.919244 H          1 MOL1         0.0959
       4    H3      19.140521   20.243366   18.537938 H          1 MOL1         0.0959
       5    C2      19.482228   18.721553   20.070313 C.3        1 MOL1        -0.1410
       6    H4      20.420500   18.352824   19.632825 H          1 MOL1         0.0948
       7    H5      18.682104   18.090836   19.658325 H          1 MOL1         0.0948
       8    C3      19.514995   18.542483   21.607156 C.3        1 MOL1        -0.1435
       9    H6      18.561500   18.886829   22.028789 H          1 MOL1         0.0948
      10    H7      19.585846   17.469478   21.832376 H          1 MOL1         0.0948
      11    C4      20.695504   19.281920   22.285855 C.3        1 MOL1        -0.1435
      12    H8      20.575804   20.367346   22.171290 H          1 MOL1         0.0948
      13    H9      21.628771   19.016695   21.770338 H          1 MOL1         0.0948
      14    C5      20.849694   18.942365   23.788579 C.3        1 MOL1        -0.1435
      15    H10     21.009835   17.861544   23.896980 H          1 MOL1         0.0948
      16    H11     21.758740   19.431174   24.165527 H          1 MOL1         0.0948
      17    C6      19.639906   19.393440   24.646959 C.3        1 MOL1        -0.1500
      18    H12     18.747758   18.815758   24.373689 H          1 MOL1         0.0948
      19    H13     19.417353   20.443044   24.413854 H          1 MOL1         0.0948
      20    C7      19.881055   19.269872   26.168561 C.3        1 MOL1         0.1162
      21    H14     20.793064   19.821160   26.417423 H          1 MOL1         0.0910
      22    C8      20.060960   17.806050   26.608976 C.3        1 MOL1        -0.2491
      23    H15     19.193002   17.197217   26.326697 H          1 MOL1         0.0959
      24    H16     20.954867   17.360897   26.156986 H          1 MOL1         0.0959
      25    H17     20.181801   17.742182   27.697395 H          1 MOL1         0.0959
      26    N1      18.769381   19.915175   26.948362 N.4        1 MOL1        -0.5987
      27    H18     18.944881   19.870432   27.956290 H          1 MOL1         0.3605
      28    H19     17.872788   19.453329   26.773622 H          1 MOL1         0.3605
      29    H20     18.660131   20.903219   26.701954 H          1 MOL1         0.3605
@<TRIPOS>BOND
    1     1     2    1
    2     1     3    1
    3     1     4    1
    4     1     5    1
    5     5     6    1
    6     5     7    1
    7     5     8    1
    8     8     9    1
    9     8    10    1
   10     8    11    1
   11    11    12    1
   12    11    13    1
   13    11    14    1
   14    14    15    1
   15    14    16    1
   16    14    17    1
   17    17    18    1
   18    17    19    1
   19    17    20    1
   20    20    21    1
   21    20    22    1
   22    22    23    1
   23    22    24    1
   24    22    25    1
   25    20    26    1
   26    26    27    1
   27    26    28    1
   28    26    29    1
@<TRIPOS>SUBSTRUCTURE
       1 MOL1            1 RESIDUE      1      MOL     
@<SCITEGIC>MOL_PROPERTY
VM2 Rank
SciTegic.value.IntegerValue
43

@<SCITEGIC>MOL_PROPERTY
Conf_Id
SciTegic.value.IntegerValue
1281

@<SCITEGIC>MOL_PROPERTY
Probability
SciTegic.value.DoubleValue
0.66

@<SCITEGIC>MOL_PROPERTY
Sum Probability
SciTegic.value.DoubleValue
86.71

@<SCITEGIC>MOL_PROPERTY
Delta G
SciTegic.value.DoubleValue
1.640

@<SCITEGIC>MOL_PROPERTY
G
SciTegic.value.DoubleValue
35.342

@<SCITEGIC>MOL_PROPERTY
E
SciTegic.value.DoubleValue
-2.323

@<SCITEGIC>MOL_PROPERTY
-TS
SciTegic.value.DoubleValue
37.665

@<SCITEGIC>MOL_PROPERTY
U+W
SciTegic.value.DoubleValue
-26.467

@<SCITEGIC>MOL_PROPERTY
U
SciTegic.value.DoubleValue
25.687

@<SCITEGIC>MOL_PROPERTY
W
SciTegic.value.DoubleValue
-52.155

@<SCITEGIC>MOL_PROPERTY
W(PB)
SciTegic.value.DoubleValue
-54.644

@<SCITEGIC>MOL_PROPERTY
W(SA)
SciTegic.value.DoubleValue
2.489

@<SCITEGIC>MOL_PROPERTY
Valence
SciTegic.value.DoubleValue
4.682

@<SCITEGIC>MOL_PROPERTY
Coulomb
SciTegic.value.DoubleValue
19.653

@<SCITEGIC>MOL_PROPERTY
VdW
SciTegic.value.DoubleValue
1.352

@<SCITEGIC>MOL_PROPERTY
VdW6
SciTegic.value.DoubleValue
-9.477

@<SCITEGIC>MOL_PROPERTY
VdW12
SciTegic.value.DoubleValue
10.829

@<SCITEGIC>MOL_PROPERTY
Bond
SciTegic.value.DoubleValue
0.274

@<SCITEGIC>MOL_PROPERTY
Angle
SciTegic.value.DoubleValue
1.550

@<SCITEGIC>MOL_PROPERTY
Pdih
SciTegic.value.DoubleValue
2.859

@<SCITEGIC>MOL_PROPERTY
Idih
SciTegic.value.DoubleValue
0.000

@<SCITEGIC>MOL_PROPERTY
Tether
SciTegic.value.DoubleValue
0.000

@<TRIPOS>MOLECULE
guest-s15_vm2.mol2 : vm2 ligand conformer 44
          29          28           1
SMALL
USER_CHARGES
 
@<TRIPOS>ATOM
       1    C1      21.002354   18.925663   19.785525 C.3        1 MOL1        -0.2426
       2    H1      20.463989   19.356709   18.931377 H          1 MOL1         0.0959
       3    H2      21.788239   19.630938   20.085818 H          1 MOL1         0.0959
       4    H3      21.489548   18.002602   19.445519 H          1 MOL1         0.0959
       5    C2      20.041611   18.634678   20.957687 C.3        1 MOL1        -0.1410
       6    H4      20.608223   18.169052   21.775029 H          1 MOL1         0.0948
       7    H5      19.285176   17.904883   20.637070 H          1 MOL1         0.0948
       8    C3      19.345599   19.922466   21.457464 C.3        1 MOL1        -0.1435
       9    H6      20.098701   20.636084   21.816682 H          1 MOL1         0.0948
      10    H7      18.849247   20.411949   20.608221 H          1 MOL1         0.0948
      11    C4      18.285360   19.668465   22.560293 C.3        1 MOL1        -0.1435
      12    H8      17.474554   19.058122   22.139287 H          1 MOL1         0.0948
      13    H9      17.826237   20.627949   22.835487 H          1 MOL1         0.0948
      14    C5      18.812885   18.976757   23.843925 C.3        1 MOL1        -0.1435
      15    H10     17.967193   18.849830   24.532198 H          1 MOL1         0.0948
      16    H11     19.157791   17.964609   23.598205 H          1 MOL1         0.0948
      17    C6      19.942807   19.772900   24.551881 C.3        1 MOL1        -0.1500
      18    H12     19.609682   20.806496   24.712767 H          1 MOL1         0.0948
      19    H13     20.818742   19.834722   23.894014 H          1 MOL1         0.0948
      20    C7      20.398053   19.186614   25.908910 C.3        1 MOL1         0.1162
      21    H14     21.177218   19.846402   26.303033 H          1 MOL1         0.0910
      22    C8      21.010249   17.783455   25.754902 C.3        1 MOL1        -0.2491
      23    H15     20.259065   17.044348   25.452049 H          1 MOL1         0.0959
      24    H16     21.810964   17.787608   25.004939 H          1 MOL1         0.0959
      25    H17     21.445632   17.448734   26.704421 H          1 MOL1         0.0959
      26    N1      19.297082   19.185002   26.933414 N.4        1 MOL1        -0.5987
      27    H18     18.913095   20.124014   27.073027 H          1 MOL1         0.3605
      28    H19     19.632301   18.852877   27.842222 H          1 MOL1         0.3605
      29    H20     18.526221   18.575640   26.649020 H          1 MOL1         0.3605
@<TRIPOS>BOND
    1     1     2    1
    2     1     3    1
    3     1     4    1
    4     1     5    1
    5     5     6    1
    6     5     7    1
    7     5     8    1
    8     8     9    1
    9     8    10    1
   10     8    11    1
   11    11    12    1
   12    11    13    1
   13    11    14    1
   14    14    15    1
   15    14    16    1
   16    14    17    1
   17    17    18    1
   18    17    19    1
   19    17    20    1
   20    20    21    1
   21    20    22    1
   22    22    23    1
   23    22    24    1
   24    22    25    1
   25    20    26    1
   26    26    27    1
   27    26    28    1
   28    26    29    1
@<TRIPOS>SUBSTRUCTURE
       1 MOL1            1 RESIDUE      1      MOL     
@<SCITEGIC>MOL_PROPERTY
VM2 Rank
SciTegic.value.IntegerValue
44

@<SCITEGIC>MOL_PROPERTY
Conf_Id
SciTegic.value.IntegerValue
1547

@<SCITEGIC>MOL_PROPERTY
Probability
SciTegic.value.DoubleValue
0.61

@<SCITEGIC>MOL_PROPERTY
Sum Probability
SciTegic.value.DoubleValue
87.32

@<SCITEGIC>MOL_PROPERTY
Delta G
SciTegic.value.DoubleValue
1.685

@<SCITEGIC>MOL_PROPERTY
G
SciTegic.value.DoubleValue
35.387

@<SCITEGIC>MOL_PROPERTY
E
SciTegic.value.DoubleValue
-2.615

@<SCITEGIC>MOL_PROPERTY
-TS
SciTegic.value.DoubleValue
38.002

@<SCITEGIC>MOL_PROPERTY
U+W
SciTegic.value.DoubleValue
-26.759

@<SCITEGIC>MOL_PROPERTY
U
SciTegic.value.DoubleValue
25.698

@<SCITEGIC>MOL_PROPERTY
W
SciTegic.value.DoubleValue
-52.458

@<SCITEGIC>MOL_PROPERTY
W(PB)
SciTegic.value.DoubleValue
-54.885

@<SCITEGIC>MOL_PROPERTY
W(SA)
SciTegic.value.DoubleValue
2.427

@<SCITEGIC>MOL_PROPERTY
Valence
SciTegic.value.DoubleValue
4.638

@<SCITEGIC>MOL_PROPERTY
Coulomb
SciTegic.value.DoubleValue
19.916

@<SCITEGIC>MOL_PROPERTY
VdW
SciTegic.value.DoubleValue
1.144

@<SCITEGIC>MOL_PROPERTY
VdW6
SciTegic.value.DoubleValue
-10.434

@<SCITEGIC>MOL_PROPERTY
VdW12
SciTegic.value.DoubleValue
11.578

@<SCITEGIC>MOL_PROPERTY
Bond
SciTegic.value.DoubleValue
0.315

@<SCITEGIC>MOL_PROPERTY
Angle
SciTegic.value.DoubleValue
1.852

@<SCITEGIC>MOL_PROPERTY
Pdih
SciTegic.value.DoubleValue
2.471

@<SCITEGIC>MOL_PROPERTY
Idih
SciTegic.value.DoubleValue
0.000

@<SCITEGIC>MOL_PROPERTY
Tether
SciTegic.value.DoubleValue
0.000

@<TRIPOS>MOLECULE
guest-s15_vm2.mol2 : vm2 ligand conformer 45
          29          28           1
SMALL
USER_CHARGES
 
@<TRIPOS>ATOM
       1    C1      20.402624   20.730404   20.611319 C.3        1 MOL1        -0.2426
       2    H1      20.581016   21.208505   19.639466 H          1 MOL1         0.0959
       3    H2      19.565753   21.255387   21.088285 H          1 MOL1         0.0959
       4    H3      21.298619   20.878569   21.227962 H          1 MOL1         0.0959
       5    C2      20.097833   19.226596   20.426179 C.3        1 MOL1        -0.1410
       6    H4      20.908051   18.770347   19.840425 H          1 MOL1         0.0948
       7    H5      19.181999   19.105153   19.831041 H          1 MOL1         0.0948
       8    C3      19.959483   18.460547   21.763522 C.3        1 MOL1        -0.1435
       9    H6      19.854771   17.389086   21.544268 H          1 MOL1         0.0948
      10    H7      20.889112   18.571471   22.337064 H          1 MOL1         0.0948
      11    C4      18.749329   18.923402   22.613103 C.3        1 MOL1        -0.1435
      12    H8      17.845290   18.901573   21.989150 H          1 MOL1         0.0948
      13    H9      18.882059   19.968767   22.918645 H          1 MOL1         0.0948
      14    C5      18.502680   18.041163   23.864075 C.3        1 MOL1        -0.1435
      15    H10     17.608902   18.407409   24.386741 H          1 MOL1         0.0948
      16    H11     18.257910   17.020396   23.539617 H          1 MOL1         0.0948
      17    C6      19.691723   17.976026   24.859564 C.3        1 MOL1        -0.1500
      18    H12     20.523800   17.434862   24.391106 H          1 MOL1         0.0948
      19    H13     19.395842   17.375567   25.729994 H          1 MOL1         0.0948
      20    C7      20.190839   19.357656   25.337089 C.3        1 MOL1         0.1162
      21    H14     20.482504   19.940468   24.458222 H          1 MOL1         0.0910
      22    C8      21.425003   19.199517   26.238805 C.3        1 MOL1        -0.2491
      23    H15     21.186310   18.622666   27.141117 H          1 MOL1         0.0959
      24    H16     22.232786   18.682311   25.706160 H          1 MOL1         0.0959
      25    H17     21.806146   20.179784   26.550533 H          1 MOL1         0.0959
      26    N1      19.116485   20.140688   26.040342 N.4        1 MOL1        -0.5987
      27    H18     18.301606   20.277215   25.436104 H          1 MOL1         0.3605
      28    H19     19.450752   21.066525   26.322509 H          1 MOL1         0.3605
      29    H20     18.797168   19.658748   26.884859 H          1 MOL1         0.3605
@<TRIPOS>BOND
    1     1     2    1
    2     1     3    1
    3     1     4    1
    4     1     5    1
    5     5     6    1
    6     5     7    1
    7     5     8    1
    8     8     9    1
    9     8    10    1
   10     8    11    1
   11    11    12    1
   12    11    13    1
   13    11    14    1
   14    14    15    1
   15    14    16    1
   16    14    17    1
   17    17    18    1
   18    17    19    1
   19    17    20    1
   20    20    21    1
   21    20    22    1
   22    22    23    1
   23    22    24    1
   24    22    25    1
   25    20    26    1
   26    26    27    1
   27    26    28    1
   28    26    29    1
@<TRIPOS>SUBSTRUCTURE
       1 MOL1            1 RESIDUE      1      MOL     
@<SCITEGIC>MOL_PROPERTY
VM2 Rank
SciTegic.value.IntegerValue
45

@<SCITEGIC>MOL_PROPERTY
Conf_Id
SciTegic.value.IntegerValue
925

@<SCITEGIC>MOL_PROPERTY
Probability
SciTegic.value.DoubleValue
0.60

@<SCITEGIC>MOL_PROPERTY
Sum Probability
SciTegic.value.DoubleValue
87.93

@<SCITEGIC>MOL_PROPERTY
Delta G
SciTegic.value.DoubleValue
1.695

@<SCITEGIC>MOL_PROPERTY
G
SciTegic.value.DoubleValue
35.397

@<SCITEGIC>MOL_PROPERTY
E
SciTegic.value.DoubleValue
-2.588

@<SCITEGIC>MOL_PROPERTY
-TS
SciTegic.value.DoubleValue
37.985

@<SCITEGIC>MOL_PROPERTY
U+W
SciTegic.value.DoubleValue
-26.732

@<SCITEGIC>MOL_PROPERTY
U
SciTegic.value.DoubleValue
25.699

@<SCITEGIC>MOL_PROPERTY
W
SciTegic.value.DoubleValue
-52.431

@<SCITEGIC>MOL_PROPERTY
W(PB)
SciTegic.value.DoubleValue
-54.861

@<SCITEGIC>MOL_PROPERTY
W(SA)
SciTegic.value.DoubleValue
2.430

@<SCITEGIC>MOL_PROPERTY
Valence
SciTegic.value.DoubleValue
4.390

@<SCITEGIC>MOL_PROPERTY
Coulomb
SciTegic.value.DoubleValue
20.476

@<SCITEGIC>MOL_PROPERTY
VdW
SciTegic.value.DoubleValue
0.832

@<SCITEGIC>MOL_PROPERTY
VdW6
SciTegic.value.DoubleValue
-10.723

@<SCITEGIC>MOL_PROPERTY
VdW12
SciTegic.value.DoubleValue
11.555

@<SCITEGIC>MOL_PROPERTY
Bond
SciTegic.value.DoubleValue
0.298

@<SCITEGIC>MOL_PROPERTY
Angle
SciTegic.value.DoubleValue
1.586

@<SCITEGIC>MOL_PROPERTY
Pdih
SciTegic.value.DoubleValue
2.506

@<SCITEGIC>MOL_PROPERTY
Idih
SciTegic.value.DoubleValue
0.000

@<SCITEGIC>MOL_PROPERTY
Tether
SciTegic.value.DoubleValue
0.000

@<TRIPOS>MOLECULE
guest-s15_vm2.mol2 : vm2 ligand conformer 46
          29          28           1
SMALL
USER_CHARGES
 
@<TRIPOS>ATOM
       1    C1      19.674799   20.581548   20.155066 C.3        1 MOL1        -0.2426
       2    H1      19.247209   20.992255   21.078216 H          1 MOL1         0.0959
       3    H2      20.266208   21.376372   19.682496 H          1 MOL1         0.0959
       4    H3      18.850086   20.327302   19.476720 H          1 MOL1         0.0959
       5    C2      20.558544   19.346685   20.441609 C.3        1 MOL1        -0.1410
       6    H4      21.363353   19.620103   21.136971 H          1 MOL1         0.0948
       7    H5      21.056767   19.044568   19.509876 H          1 MOL1         0.0948
       8    C3      19.764175   18.134483   20.991123 C.3        1 MOL1        -0.1435
       9    H6      19.048540   17.803177   20.226137 H          1 MOL1         0.0948
      10    H7      20.457210   17.294680   21.137882 H          1 MOL1         0.0948
      11    C4      18.995260   18.390164   22.313088 C.3        1 MOL1        -0.1435
      12    H8      18.464232   17.468212   22.587319 H          1 MOL1         0.0948
      13    H9      18.218476   19.149520   22.152739 H          1 MOL1         0.0948
      14    C5      19.908911   18.813476   23.488111 C.3        1 MOL1        -0.1435
      15    H10     20.711472   18.073052   23.600841 H          1 MOL1         0.0948
      16    H11     20.386988   19.775454   23.260927 H          1 MOL1         0.0948
      17    C6      19.115180   18.943293   24.811226 C.3        1 MOL1        -0.1500
      18    H12     18.692141   17.968152   25.086948 H          1 MOL1         0.0948
      19    H13     18.263625   19.615737   24.642710 H          1 MOL1         0.0948
      20    C7      19.951214   19.498428   25.986876 C.3        1 MOL1         0.1162
      21    H14     20.393356   20.449556   25.674643 H          1 MOL1         0.0910
      22    C8      21.087456   18.542961   26.393376 C.3        1 MOL1        -0.2491
      23    H15     20.697542   17.551394   26.655046 H          1 MOL1         0.0959
      24    H16     21.816819   18.423312   25.583984 H          1 MOL1         0.0959
      25    H17     21.629699   18.935365   27.262478 H          1 MOL1         0.0959
      26    N1      19.080461   19.804963   27.173527 N.4        1 MOL1        -0.5987
      27    H18     19.623713   20.209976   27.941350 H          1 MOL1         0.3605
      28    H19     18.626842   18.960502   27.532525 H          1 MOL1         0.3605
      29    H20     18.342170   20.474116   26.936784 H          1 MOL1         0.3605
@<TRIPOS>BOND
    1     1     2    1
    2     1     3    1
    3     1     4    1
    4     1     5    1
    5     5     6    1
    6     5     7    1
    7     5     8    1
    8     8     9    1
    9     8    10    1
   10     8    11    1
   11    11    12    1
   12    11    13    1
   13    11    14    1
   14    14    15    1
   15    14    16    1
   16    14    17    1
   17    17    18    1
   18    17    19    1
   19    17    20    1
   20    20    21    1
   21    20    22    1
   22    22    23    1
   23    22    24    1
   24    22    25    1
   25    20    26    1
   26    26    27    1
   27    26    28    1
   28    26    29    1
@<TRIPOS>SUBSTRUCTURE
       1 MOL1            1 RESIDUE      1      MOL     
@<SCITEGIC>MOL_PROPERTY
VM2 Rank
SciTegic.value.IntegerValue
46

@<SCITEGIC>MOL_PROPERTY
Conf_Id
SciTegic.value.IntegerValue
1675

@<SCITEGIC>MOL_PROPERTY
Probability
SciTegic.value.DoubleValue
0.60

@<SCITEGIC>MOL_PROPERTY
Sum Probability
SciTegic.value.DoubleValue
88.52

@<SCITEGIC>MOL_PROPERTY
Delta G
SciTegic.value.DoubleValue
1.701

@<SCITEGIC>MOL_PROPERTY
G
SciTegic.value.DoubleValue
35.403

@<SCITEGIC>MOL_PROPERTY
E
SciTegic.value.DoubleValue
-2.432

@<SCITEGIC>MOL_PROPERTY
-TS
SciTegic.value.DoubleValue
37.834

@<SCITEGIC>MOL_PROPERTY
U+W
SciTegic.value.DoubleValue
-26.576

@<SCITEGIC>MOL_PROPERTY
U
SciTegic.value.DoubleValue
25.529

@<SCITEGIC>MOL_PROPERTY
W
SciTegic.value.DoubleValue
-52.105

@<SCITEGIC>MOL_PROPERTY
W(PB)
SciTegic.value.DoubleValue
-54.577

@<SCITEGIC>MOL_PROPERTY
W(SA)
SciTegic.value.DoubleValue
2.473

@<SCITEGIC>MOL_PROPERTY
Valence
SciTegic.value.DoubleValue
4.664

@<SCITEGIC>MOL_PROPERTY
Coulomb
SciTegic.value.DoubleValue
19.602

@<SCITEGIC>MOL_PROPERTY
VdW
SciTegic.value.DoubleValue
1.262

@<SCITEGIC>MOL_PROPERTY
VdW6
SciTegic.value.DoubleValue
-9.718

@<SCITEGIC>MOL_PROPERTY
VdW12
SciTegic.value.DoubleValue
10.979

@<SCITEGIC>MOL_PROPERTY
Bond
SciTegic.value.DoubleValue
0.278

@<SCITEGIC>MOL_PROPERTY
Angle
SciTegic.value.DoubleValue
1.798

@<SCITEGIC>MOL_PROPERTY
Pdih
SciTegic.value.DoubleValue
2.589

@<SCITEGIC>MOL_PROPERTY
Idih
SciTegic.value.DoubleValue
0.000

@<SCITEGIC>MOL_PROPERTY
Tether
SciTegic.value.DoubleValue
0.000

@<TRIPOS>MOLECULE
guest-s15_vm2.mol2 : vm2 ligand conformer 47
          29          28           1
SMALL
USER_CHARGES
 
@<TRIPOS>ATOM
       1    C1      19.924966   17.984310   20.182054 C.3        1 MOL1        -0.2426
       2    H1      20.633047   18.401561   19.454411 H          1 MOL1         0.0959
       3    H2      20.496929   17.582407   21.027670 H          1 MOL1         0.0959
       4    H3      19.407338   17.143004   19.703418 H          1 MOL1         0.0959
       5    C2      18.908916   19.053280   20.643537 C.3        1 MOL1        -0.1410
       6    H4      18.225010   18.619024   21.384929 H          1 MOL1         0.0948
       7    H5      18.281553   19.337804   19.787334 H          1 MOL1         0.0948
       8    C3      19.574988   20.331942   21.212755 C.3        1 MOL1        -0.1435
       9    H6      20.152000   20.816814   20.413351 H          1 MOL1         0.0948
      10    H7      18.788256   21.046561   21.491066 H          1 MOL1         0.0948
      11    C4      20.506893   20.108419   22.431761 C.3        1 MOL1        -0.1435
      12    H8      20.926101   21.079948   22.727575 H          1 MOL1         0.0948
      13    H9      21.363390   19.486899   22.138758 H          1 MOL1         0.0948
      14    C5      19.792223   19.475251   23.649427 C.3        1 MOL1        -0.1435
      15    H10     18.911091   20.078735   23.903709 H          1 MOL1         0.0948
      16    H11     19.431413   18.475309   23.379084 H          1 MOL1         0.0948
      17    C6      20.737424   19.372833   24.874701 C.3        1 MOL1        -0.1500
      18    H12     21.127653   20.370785   25.113875 H          1 MOL1         0.0948
      19    H13     21.610828   18.762766   24.608719 H          1 MOL1         0.0948
      20    C7      20.089462   18.783870   26.149990 C.3        1 MOL1         0.1162
      21    H14     20.849344   18.799467   26.937454 H          1 MOL1         0.0910
      22    C8      19.651982   17.321622   25.955161 C.3        1 MOL1        -0.2491
      23    H15     19.325761   16.888980   26.908887 H          1 MOL1         0.0959
      24    H16     18.818594   17.237928   25.247593 H          1 MOL1         0.0959
      25    H17     20.483961   16.712248   25.580925 H          1 MOL1         0.0959
      26    N1      18.949146   19.624473   26.654615 N.4        1 MOL1        -0.5987
      27    H18     19.243377   20.589569   26.829895 H          1 MOL1         0.3605
      28    H19     18.571750   19.255095   27.531979 H          1 MOL1         0.3605
      29    H20     18.182239   19.653677   25.978216 H          1 MOL1         0.3605
@<TRIPOS>BOND
    1     1     2    1
    2     1     3    1
    3     1     4    1
    4     1     5    1
    5     5     6    1
    6     5     7    1
    7     5     8    1
    8     8     9    1
    9     8    10    1
   10     8    11    1
   11    11    12    1
   12    11    13    1
   13    11    14    1
   14    14    15    1
   15    14    16    1
   16    14    17    1
   17    17    18    1
   18    17    19    1
   19    17    20    1
   20    20    21    1
   21    20    22    1
   22    22    23    1
   23    22    24    1
   24    22    25    1
   25    20    26    1
   26    26    27    1
   27    26    28    1
   28    26    29    1
@<TRIPOS>SUBSTRUCTURE
       1 MOL1            1 RESIDUE      1      MOL     
@<SCITEGIC>MOL_PROPERTY
VM2 Rank
SciTegic.value.IntegerValue
47

@<SCITEGIC>MOL_PROPERTY
Conf_Id
SciTegic.value.IntegerValue
1312

@<SCITEGIC>MOL_PROPERTY
Probability
SciTegic.value.DoubleValue
0.58

@<SCITEGIC>MOL_PROPERTY
Sum Probability
SciTegic.value.DoubleValue
89.10

@<SCITEGIC>MOL_PROPERTY
Delta G
SciTegic.value.DoubleValue
1.719

@<SCITEGIC>MOL_PROPERTY
G
SciTegic.value.DoubleValue
35.422

@<SCITEGIC>MOL_PROPERTY
E
SciTegic.value.DoubleValue
-2.551

@<SCITEGIC>MOL_PROPERTY
-TS
SciTegic.value.DoubleValue
37.972

@<SCITEGIC>MOL_PROPERTY
U+W
SciTegic.value.DoubleValue
-26.695

@<SCITEGIC>MOL_PROPERTY
U
SciTegic.value.DoubleValue
25.727

@<SCITEGIC>MOL_PROPERTY
W
SciTegic.value.DoubleValue
-52.422

@<SCITEGIC>MOL_PROPERTY
W(PB)
SciTegic.value.DoubleValue
-54.884

@<SCITEGIC>MOL_PROPERTY
W(SA)
SciTegic.value.DoubleValue
2.461

@<SCITEGIC>MOL_PROPERTY
Valence
SciTegic.value.DoubleValue
4.631

@<SCITEGIC>MOL_PROPERTY
Coulomb
SciTegic.value.DoubleValue
19.868

@<SCITEGIC>MOL_PROPERTY
VdW
SciTegic.value.DoubleValue
1.228

@<SCITEGIC>MOL_PROPERTY
VdW6
SciTegic.value.DoubleValue
-10.252

@<SCITEGIC>MOL_PROPERTY
VdW12
SciTegic.value.DoubleValue
11.480

@<SCITEGIC>MOL_PROPERTY
Bond
SciTegic.value.DoubleValue
0.304

@<SCITEGIC>MOL_PROPERTY
Angle
SciTegic.value.DoubleValue
1.851

@<SCITEGIC>MOL_PROPERTY
Pdih
SciTegic.value.DoubleValue
2.476

@<SCITEGIC>MOL_PROPERTY
Idih
SciTegic.value.DoubleValue
0.000

@<SCITEGIC>MOL_PROPERTY
Tether
SciTegic.value.DoubleValue
0.000

@<TRIPOS>MOLECULE
guest-s15_vm2.mol2 : vm2 ligand conformer 48
          29          28           1
SMALL
USER_CHARGES
 
@<TRIPOS>ATOM
       1    C1      19.443784   17.936787   20.146897 C.3        1 MOL1        -0.2426
       2    H1      19.892203   17.075240   19.635535 H          1 MOL1         0.0959
       3    H2      18.972637   17.566924   21.066111 H          1 MOL1         0.0959
       4    H3      18.658287   18.342669   19.496359 H          1 MOL1         0.0959
       5    C2      20.518304   19.004601   20.452185 C.3        1 MOL1        -0.1410
       6    H4      21.042029   19.255978   19.519364 H          1 MOL1         0.0948
       7    H5      21.281305   18.582475   21.119724 H          1 MOL1         0.0948
       8    C3      19.937778   20.307996   21.057837 C.3        1 MOL1        -0.1435
       9    H6      20.759339   21.019360   21.219406 H          1 MOL1         0.0948
      10    H7      19.274881   20.777730   20.318230 H          1 MOL1         0.0948
      11    C4      19.155092   20.132436   22.384865 C.3        1 MOL1        -0.1435
      12    H8      18.264177   19.513465   22.214867 H          1 MOL1         0.0948
      13    H9      18.782852   21.117691   22.697624 H          1 MOL1         0.0948
      14    C5      20.003420   19.526291   23.528448 C.3        1 MOL1        -0.1435
      15    H10     20.323206   18.515743   23.246479 H          1 MOL1         0.0948
      16    H11     20.913504   20.125970   23.667387 H          1 MOL1         0.0948
      17    C6      19.213178   19.469437   24.858877 C.3        1 MOL1        -0.1500
      18    H12     18.334138   18.822131   24.739736 H          1 MOL1         0.0948
      19    H13     18.831620   20.474488   25.082327 H          1 MOL1         0.0948
      20    C7      20.054400   18.987900   26.063016 C.3        1 MOL1         0.1162
      21    H14     20.944993   19.619874   26.134258 H          1 MOL1         0.0910
      22    C8      20.506077   17.524506   25.908331 C.3        1 MOL1        -0.2491
      23    H15     19.646996   16.856862   25.767113 H          1 MOL1         0.0959
      24    H16     21.180533   17.403150   25.052920 H          1 MOL1         0.0959
      25    H17     21.051727   17.192475   26.800167 H          1 MOL1         0.0959
      26    N1      19.303967   19.166045   27.353544 N.4        1 MOL1        -0.5987
      27    H18     19.030787   20.142281   27.499252 H          1 MOL1         0.3605
      28    H19     19.871913   18.885504   28.158183 H          1 MOL1         0.3605
      29    H20     18.450152   18.601722   27.370630 H          1 MOL1         0.3605
@<TRIPOS>BOND
    1     1     2    1
    2     1     3    1
    3     1     4    1
    4     1     5    1
    5     5     6    1
    6     5     7    1
    7     5     8    1
    8     8     9    1
    9     8    10    1
   10     8    11    1
   11    11    12    1
   12    11    13    1
   13    11    14    1
   14    14    15    1
   15    14    16    1
   16    14    17    1
   17    17    18    1
   18    17    19    1
   19    17    20    1
   20    20    21    1
   21    20    22    1
   22    22    23    1
   23    22    24    1
   24    22    25    1
   25    20    26    1
   26    26    27    1
   27    26    28    1
   28    26    29    1
@<TRIPOS>SUBSTRUCTURE
       1 MOL1            1 RESIDUE      1      MOL     
@<SCITEGIC>MOL_PROPERTY
VM2 Rank
SciTegic.value.IntegerValue
48

@<SCITEGIC>MOL_PROPERTY
Conf_Id
SciTegic.value.IntegerValue
1295

@<SCITEGIC>MOL_PROPERTY
Probability
SciTegic.value.DoubleValue
0.56

@<SCITEGIC>MOL_PROPERTY
Sum Probability
SciTegic.value.DoubleValue
89.66

@<SCITEGIC>MOL_PROPERTY
Delta G
SciTegic.value.DoubleValue
1.738

@<SCITEGIC>MOL_PROPERTY
G
SciTegic.value.DoubleValue
35.440

@<SCITEGIC>MOL_PROPERTY
E
SciTegic.value.DoubleValue
-2.396

@<SCITEGIC>MOL_PROPERTY
-TS
SciTegic.value.DoubleValue
37.836

@<SCITEGIC>MOL_PROPERTY
U+W
SciTegic.value.DoubleValue
-26.541

@<SCITEGIC>MOL_PROPERTY
U
SciTegic.value.DoubleValue
25.494

@<SCITEGIC>MOL_PROPERTY
W
SciTegic.value.DoubleValue
-52.034

@<SCITEGIC>MOL_PROPERTY
W(PB)
SciTegic.value.DoubleValue
-54.507

@<SCITEGIC>MOL_PROPERTY
W(SA)
SciTegic.value.DoubleValue
2.472

@<SCITEGIC>MOL_PROPERTY
Valence
SciTegic.value.DoubleValue
4.663

@<SCITEGIC>MOL_PROPERTY
Coulomb
SciTegic.value.DoubleValue
19.570

@<SCITEGIC>MOL_PROPERTY
VdW
SciTegic.value.DoubleValue
1.261

@<SCITEGIC>MOL_PROPERTY
VdW6
SciTegic.value.DoubleValue
-9.758

@<SCITEGIC>MOL_PROPERTY
VdW12
SciTegic.value.DoubleValue
11.019

@<SCITEGIC>MOL_PROPERTY
Bond
SciTegic.value.DoubleValue
0.281

@<SCITEGIC>MOL_PROPERTY
Angle
SciTegic.value.DoubleValue
1.806

@<SCITEGIC>MOL_PROPERTY
Pdih
SciTegic.value.DoubleValue
2.576

@<SCITEGIC>MOL_PROPERTY
Idih
SciTegic.value.DoubleValue
0.000

@<SCITEGIC>MOL_PROPERTY
Tether
SciTegic.value.DoubleValue
0.000

@<TRIPOS>MOLECULE
guest-s15_vm2.mol2 : vm2 ligand conformer 49
          29          28           1
SMALL
USER_CHARGES
 
@<TRIPOS>ATOM
       1    C1      19.736456   20.242785   19.595560 C.3        1 MOL1        -0.2426
       2    H1      18.776247   20.600006   19.987965 H          1 MOL1         0.0959
       3    H2      20.522478   20.933358   19.927659 H          1 MOL1         0.0959
       4    H3      19.685182   20.293819   18.500261 H          1 MOL1         0.0959
       5    C2      20.035098   18.798215   20.056432 C.3        1 MOL1        -0.1410
       6    H4      20.942510   18.443970   19.547659 H          1 MOL1         0.0948
       7    H5      19.222300   18.132218   19.734699 H          1 MOL1         0.0948
       8    C3      20.240958   18.672712   21.585135 C.3        1 MOL1        -0.1435
       9    H6      20.546512   17.642284   21.812999 H          1 MOL1         0.0948
      10    H7      21.074813   19.319268   21.888398 H          1 MOL1         0.0948
      11    C4      18.972402   19.018639   22.405094 C.3        1 MOL1        -0.1435
      12    H8      18.120705   18.453892   22.001654 H          1 MOL1         0.0948
      13    H9      18.724354   20.081463   22.284712 H          1 MOL1         0.0948
      14    C5      19.106317   18.694681   23.913260 C.3        1 MOL1        -0.1435
      15    H10     18.131543   18.867384   24.387698 H          1 MOL1         0.0948
      16    H11     19.324494   17.625147   24.032229 H          1 MOL1         0.0948
      17    C6      20.191168   19.544815   24.629158 C.3        1 MOL1        -0.1500
      18    H12     20.019131   20.607196   24.412335 H          1 MOL1         0.0948
      19    H13     21.179229   19.306632   24.215945 H          1 MOL1         0.0948
      20    C7      20.251211   19.361503   26.164010 C.3        1 MOL1         0.1162
      21    H14     21.041604   20.018931   26.539281 H          1 MOL1         0.0910
      22    C8      20.617148   17.920362   26.559495 C.3        1 MOL1        -0.2491
      23    H15     19.821426   17.213421   26.296028 H          1 MOL1         0.0959
      24    H16     21.540238   17.601444   26.059717 H          1 MOL1         0.0959
      25    H17     20.783265   17.849921   27.641453 H          1 MOL1         0.0959
      26    N1      18.985242   19.802289   26.845857 N.4        1 MOL1        -0.5987
      27    H18     18.757400   20.775199   26.621748 H          1 MOL1         0.3605
      28    H19     19.065512   19.733345   27.864405 H          1 MOL1         0.3605
      29    H20     18.189825   19.225626   26.560859 H          1 MOL1         0.3605
@<TRIPOS>BOND
    1     1     2    1
    2     1     3    1
    3     1     4    1
    4     1     5    1
    5     5     6    1
    6     5     7    1
    7     5     8    1
    8     8     9    1
    9     8    10    1
   10     8    11    1
   11    11    12    1
   12    11    13    1
   13    11    14    1
   14    14    15    1
   15    14    16    1
   16    14    17    1
   17    17    18    1
   18    17    19    1
   19    17    20    1
   20    20    21    1
   21    20    22    1
   22    22    23    1
   23    22    24    1
   24    22    25    1
   25    20    26    1
   26    26    27    1
   27    26    28    1
   28    26    29    1
@<TRIPOS>SUBSTRUCTURE
       1 MOL1            1 RESIDUE      1      MOL     
@<SCITEGIC>MOL_PROPERTY
VM2 Rank
SciTegic.value.IntegerValue
49

@<SCITEGIC>MOL_PROPERTY
Conf_Id
SciTegic.value.IntegerValue
185

@<SCITEGIC>MOL_PROPERTY
Probability
SciTegic.value.DoubleValue
0.55

@<SCITEGIC>MOL_PROPERTY
Sum Probability
SciTegic.value.DoubleValue
90.21

@<SCITEGIC>MOL_PROPERTY
Delta G
SciTegic.value.DoubleValue
1.745

@<SCITEGIC>MOL_PROPERTY
G
SciTegic.value.DoubleValue
35.447

@<SCITEGIC>MOL_PROPERTY
E
SciTegic.value.DoubleValue
-2.333

@<SCITEGIC>MOL_PROPERTY
-TS
SciTegic.value.DoubleValue
37.780

@<SCITEGIC>MOL_PROPERTY
U+W
SciTegic.value.DoubleValue
-26.477

@<SCITEGIC>MOL_PROPERTY
U
SciTegic.value.DoubleValue
25.725

@<SCITEGIC>MOL_PROPERTY
W
SciTegic.value.DoubleValue
-52.202

@<SCITEGIC>MOL_PROPERTY
W(PB)
SciTegic.value.DoubleValue
-54.669

@<SCITEGIC>MOL_PROPERTY
W(SA)
SciTegic.value.DoubleValue
2.467

@<SCITEGIC>MOL_PROPERTY
Valence
SciTegic.value.DoubleValue
4.677

@<SCITEGIC>MOL_PROPERTY
Coulomb
SciTegic.value.DoubleValue
19.669

@<SCITEGIC>MOL_PROPERTY
VdW
SciTegic.value.DoubleValue
1.379

@<SCITEGIC>MOL_PROPERTY
VdW6
SciTegic.value.DoubleValue
-9.934

@<SCITEGIC>MOL_PROPERTY
VdW12
SciTegic.value.DoubleValue
11.313

@<SCITEGIC>MOL_PROPERTY
Bond
SciTegic.value.DoubleValue
0.305

@<SCITEGIC>MOL_PROPERTY
Angle
SciTegic.value.DoubleValue
1.629

@<SCITEGIC>MOL_PROPERTY
Pdih
SciTegic.value.DoubleValue
2.742

@<SCITEGIC>MOL_PROPERTY
Idih
SciTegic.value.DoubleValue
0.000

@<SCITEGIC>MOL_PROPERTY
Tether
SciTegic.value.DoubleValue
0.000

@<TRIPOS>MOLECULE
guest-s15_vm2.mol2 : vm2 ligand conformer 50
          29          28           1
SMALL
USER_CHARGES
 
@<TRIPOS>ATOM
       1    C1      18.725486   18.969182   19.590586 C.3        1 MOL1        -0.2426
       2    H1      18.626056   19.010920   18.498208 H          1 MOL1         0.0959
       3    H2      18.829780   17.914075   19.872505 H          1 MOL1         0.0959
       4    H3      17.794049   19.351875   20.027608 H          1 MOL1         0.0959
       5    C2      19.940854   19.802947   20.055455 C.3        1 MOL1        -0.1410
       6    H4      19.847829   20.821050   19.652272 H          1 MOL1         0.0948
       7    H5      20.861834   19.384987   19.625545 H          1 MOL1         0.0948
       8    C3      20.073016   19.887831   21.595094 C.3        1 MOL1        -0.1435
       9    H6      20.895347   20.574884   21.837559 H          1 MOL1         0.0948
      10    H7      19.159956   20.336451   22.007455 H          1 MOL1         0.0948
      11    C4      20.344009   18.515957   22.263170 C.3        1 MOL1        -0.1435
      12    H8      21.178352   18.025574   21.743044 H          1 MOL1         0.0948
      13    H9      19.473305   17.858297   22.140463 H          1 MOL1         0.0948
      14    C5      20.697650   18.617399   23.767584 C.3        1 MOL1        -0.1435
      15    H10     21.003444   17.620036   24.108361 H          1 MOL1         0.0948
      16    H11     21.571663   19.270574   23.896863 H          1 MOL1         0.0948
      17    C6      19.526002   19.130773   24.644631 C.3        1 MOL1        -0.1500
      18    H12     18.656473   18.471023   24.524826 H          1 MOL1         0.0948
      19    H13     19.218402   20.120352   24.285775 H          1 MOL1         0.0948
      20    C7      19.879868   19.257174   26.144369 C.3        1 MOL1         0.1162
      21    H14     20.783179   19.868456   26.233726 H          1 MOL1         0.0910
      22    C8      20.149197   17.889461   26.797524 C.3        1 MOL1        -0.2491
      23    H15     21.033356   17.406915   26.365751 H          1 MOL1         0.0959
      24    H16     20.337063   18.005238   27.872080 H          1 MOL1         0.0959
      25    H17     19.293043   17.214761   26.673076 H          1 MOL1         0.0959
      26    N1      18.799917   19.985276   26.895587 N.4        1 MOL1        -0.5987
      27    H18     17.912999   19.475272   26.863184 H          1 MOL1         0.3605
      28    H19     18.633307   20.918119   26.507130 H          1 MOL1         0.3605
      29    H20     19.047081   20.106033   27.882024 H          1 MOL1         0.3605
@<TRIPOS>BOND
    1     1     2    1
    2     1     3    1
    3     1     4    1
    4     1     5    1
    5     5     6    1
    6     5     7    1
    7     5     8    1
    8     8     9    1
    9     8    10    1
   10     8    11    1
   11    11    12    1
   12    11    13    1
   13    11    14    1
   14    14    15    1
   15    14    16    1
   16    14    17    1
   17    17    18    1
   18    17    19    1
   19    17    20    1
   20    20    21    1
   21    20    22    1
   22    22    23    1
   23    22    24    1
   24    22    25    1
   25    20    26    1
   26    26    27    1
   27    26    28    1
   28    26    29    1
@<TRIPOS>SUBSTRUCTURE
       1 MOL1            1 RESIDUE      1      MOL     
@<SCITEGIC>MOL_PROPERTY
VM2 Rank
SciTegic.value.IntegerValue
50

@<SCITEGIC>MOL_PROPERTY
Conf_Id
SciTegic.value.IntegerValue
1550

@<SCITEGIC>MOL_PROPERTY
Probability
SciTegic.value.DoubleValue
0.53

@<SCITEGIC>MOL_PROPERTY
Sum Probability
SciTegic.value.DoubleValue
90.75

@<SCITEGIC>MOL_PROPERTY
Delta G
SciTegic.value.DoubleValue
1.767

@<SCITEGIC>MOL_PROPERTY
G
SciTegic.value.DoubleValue
35.470

@<SCITEGIC>MOL_PROPERTY
E
SciTegic.value.DoubleValue
-2.100

@<SCITEGIC>MOL_PROPERTY
-TS
SciTegic.value.DoubleValue
37.570

@<SCITEGIC>MOL_PROPERTY
U+W
SciTegic.value.DoubleValue
-26.245

@<SCITEGIC>MOL_PROPERTY
U
SciTegic.value.DoubleValue
25.974

@<SCITEGIC>MOL_PROPERTY
W
SciTegic.value.DoubleValue
-52.219

@<SCITEGIC>MOL_PROPERTY
W(PB)
SciTegic.value.DoubleValue
-54.709

@<SCITEGIC>MOL_PROPERTY
W(SA)
SciTegic.value.DoubleValue
2.490

@<SCITEGIC>MOL_PROPERTY
Valence
SciTegic.value.DoubleValue
4.812

@<SCITEGIC>MOL_PROPERTY
Coulomb
SciTegic.value.DoubleValue
19.700

@<SCITEGIC>MOL_PROPERTY
VdW
SciTegic.value.DoubleValue
1.463

@<SCITEGIC>MOL_PROPERTY
VdW6
SciTegic.value.DoubleValue
-9.391

@<SCITEGIC>MOL_PROPERTY
VdW12
SciTegic.value.DoubleValue
10.853

@<SCITEGIC>MOL_PROPERTY
Bond
SciTegic.value.DoubleValue
0.285

@<SCITEGIC>MOL_PROPERTY
Angle
SciTegic.value.DoubleValue
1.671

@<SCITEGIC>MOL_PROPERTY
Pdih
SciTegic.value.DoubleValue
2.855

@<SCITEGIC>MOL_PROPERTY
Idih
SciTegic.value.DoubleValue
0.000

@<SCITEGIC>MOL_PROPERTY
Tether
SciTegic.value.DoubleValue
0.000

@<TRIPOS>MOLECULE
guest-s15_vm2.mol2 : vm2 ligand conformer 51
          29          28           1
SMALL
USER_CHARGES
 
@<TRIPOS>ATOM
       1    C1      20.140418   19.162651   19.204054 C.3        1 MOL1        -0.2426
       2    H1      20.955101   19.851387   19.459262 H          1 MOL1         0.0959
       3    H2      20.542351   18.141179   19.196045 H          1 MOL1         0.0959
       4    H3      19.814021   19.402779   18.183890 H          1 MOL1         0.0959
       5    C2      18.958815   19.287270   20.192585 C.3        1 MOL1        -0.1410
       6    H4      18.123699   18.676523   19.821989 H          1 MOL1         0.0948
       7    H5      18.597176   20.324901   20.208487 H          1 MOL1         0.0948
       8    C3      19.305382   18.831276   21.630641 C.3        1 MOL1        -0.1435
       9    H6      18.377830   18.827112   22.217289 H          1 MOL1         0.0948
      10    H7      19.664176   17.793095   21.609522 H          1 MOL1         0.0948
      11    C4      20.354977   19.733865   22.327634 C.3        1 MOL1        -0.1435
      12    H8      19.995392   20.771744   22.349843 H          1 MOL1         0.0948
      13    H9      21.280637   19.740281   21.737937 H          1 MOL1         0.0948
      14    C5      20.706676   19.274841   23.764250 C.3        1 MOL1        -0.1435
      15    H10     21.079306   18.242571   23.729235 H          1 MOL1         0.0948
      16    H11     21.536991   19.892939   24.132978 H          1 MOL1         0.0948
      17    C6      19.520063   19.383059   24.756536 C.3        1 MOL1        -0.1500
      18    H12     18.735880   18.664201   24.487768 H          1 MOL1         0.0948
      19    H13     19.075283   20.382537   24.663176 H          1 MOL1         0.0948
      20    C7      19.926620   19.163693   26.231444 C.3        1 MOL1         0.1162
      21    H14     20.732183   19.863867   26.473173 H          1 MOL1         0.0910
      22    C8      20.432550   17.732371   26.485339 C.3        1 MOL1        -0.2491
      23    H15     19.677772   16.988496   26.201315 H          1 MOL1         0.0959
      24    H16     21.348050   17.526953   25.918579 H          1 MOL1         0.0959
      25    H17     20.669071   17.588843   27.546845 H          1 MOL1         0.0959
      26    N1      18.790499   19.486975   27.161517 N.4        1 MOL1        -0.5987
      27    H18     19.067986   19.381084   28.141573 H          1 MOL1         0.3605
      28    H19     17.989572   18.869784   27.002437 H          1 MOL1         0.3605
      29    H20     18.465822   20.450606   27.039475 H          1 MOL1         0.3605
@<TRIPOS>BOND
    1     1     2    1
    2     1     3    1
    3     1     4    1
    4     1     5    1
    5     5     6    1
    6     5     7    1
    7     5     8    1
    8     8     9    1
    9     8    10    1
   10     8    11    1
   11    11    12    1
   12    11    13    1
   13    11    14    1
   14    14    15    1
   15    14    16    1
   16    14    17    1
   17    17    18    1
   18    17    19    1
   19    17    20    1
   20    20    21    1
   21    20    22    1
   22    22    23    1
   23    22    24    1
   24    22    25    1
   25    20    26    1
   26    26    27    1
   27    26    28    1
   28    26    29    1
@<TRIPOS>SUBSTRUCTURE
       1 MOL1            1 RESIDUE      1      MOL     
@<SCITEGIC>MOL_PROPERTY
VM2 Rank
SciTegic.value.IntegerValue
51

@<SCITEGIC>MOL_PROPERTY
Conf_Id
SciTegic.value.IntegerValue
1262

@<SCITEGIC>MOL_PROPERTY
Probability
SciTegic.value.DoubleValue
0.51

@<SCITEGIC>MOL_PROPERTY
Sum Probability
SciTegic.value.DoubleValue
91.26

@<SCITEGIC>MOL_PROPERTY
Delta G
SciTegic.value.DoubleValue
1.792

@<SCITEGIC>MOL_PROPERTY
G
SciTegic.value.DoubleValue
35.494

@<SCITEGIC>MOL_PROPERTY
E
SciTegic.value.DoubleValue
-2.104

@<SCITEGIC>MOL_PROPERTY
-TS
SciTegic.value.DoubleValue
37.598

@<SCITEGIC>MOL_PROPERTY
U+W
SciTegic.value.DoubleValue
-26.248

@<SCITEGIC>MOL_PROPERTY
U
SciTegic.value.DoubleValue
25.821

@<SCITEGIC>MOL_PROPERTY
W
SciTegic.value.DoubleValue
-52.069

@<SCITEGIC>MOL_PROPERTY
W(PB)
SciTegic.value.DoubleValue
-54.583

@<SCITEGIC>MOL_PROPERTY
W(SA)
SciTegic.value.DoubleValue
2.514

@<SCITEGIC>MOL_PROPERTY
Valence
SciTegic.value.DoubleValue
4.779

@<SCITEGIC>MOL_PROPERTY
Coulomb
SciTegic.value.DoubleValue
19.614

@<SCITEGIC>MOL_PROPERTY
VdW
SciTegic.value.DoubleValue
1.428

@<SCITEGIC>MOL_PROPERTY
VdW6
SciTegic.value.DoubleValue
-9.390

@<SCITEGIC>MOL_PROPERTY
VdW12
SciTegic.value.DoubleValue
10.817

@<SCITEGIC>MOL_PROPERTY
Bond
SciTegic.value.DoubleValue
0.283

@<SCITEGIC>MOL_PROPERTY
Angle
SciTegic.value.DoubleValue
1.640

@<SCITEGIC>MOL_PROPERTY
Pdih
SciTegic.value.DoubleValue
2.857

@<SCITEGIC>MOL_PROPERTY
Idih
SciTegic.value.DoubleValue
0.000

@<SCITEGIC>MOL_PROPERTY
Tether
SciTegic.value.DoubleValue
0.000

@<TRIPOS>MOLECULE
guest-s15_vm2.mol2 : vm2 ligand conformer 52
          29          28           1
SMALL
USER_CHARGES
 
@<TRIPOS>ATOM
       1    C1      20.173192   19.311529   19.180143 C.3        1 MOL1        -0.2426
       2    H1      20.826658   20.192829   19.216348 H          1 MOL1         0.0959
       3    H2      20.776913   18.425310   19.411035 H          1 MOL1         0.0959
       4    H3      19.811925   19.203897   18.149204 H          1 MOL1         0.0959
       5    C2      18.984100   19.460766   20.156254 C.3        1 MOL1        -0.1410
       6    H4      18.365629   18.552787   20.128092 H          1 MOL1         0.0948
       7    H5      18.341871   20.280819   19.805766 H          1 MOL1         0.0948
       8    C3      19.413564   19.757067   21.613673 C.3        1 MOL1        -0.1435
       9    H6      20.030930   20.665558   21.635922 H          1 MOL1         0.0948
      10    H7      18.509046   19.982631   22.192217 H          1 MOL1         0.0948
      11    C4      20.180510   18.586391   22.280326 C.3        1 MOL1        -0.1435
      12    H8      21.078675   18.360095   21.691530 H          1 MOL1         0.0948
      13    H9      19.562526   17.678223   22.262169 H          1 MOL1         0.0948
      14    C5      20.627509   18.881967   23.733711 C.3        1 MOL1        -0.1435
      15    H10     21.305307   18.076893   24.044843 H          1 MOL1         0.0948
      16    H11     21.217009   19.808932   23.756000 H          1 MOL1         0.0948
      17    C6      19.450100   18.983859   24.738472 C.3        1 MOL1        -0.1500
      18    H12     18.869269   18.052124   24.724531 H          1 MOL1         0.0948
      19    H13     18.769688   19.780083   24.414316 H          1 MOL1         0.0948
      20    C7      19.892819   19.298168   26.186181 C.3        1 MOL1         0.1162
      21    H14     20.519703   20.194969   26.166507 H          1 MOL1         0.0910
      22    C8      20.704185   18.148809   26.811097 C.3        1 MOL1        -0.2491
      23    H15     20.140372   17.207860   26.790178 H          1 MOL1         0.0959
      24    H16     21.651724   17.994216   26.282633 H          1 MOL1         0.0959
      25    H17     20.950532   18.374001   27.856073 H          1 MOL1         0.0959
      26    N1      18.710022   19.627445   27.054143 N.4        1 MOL1        -0.5987
      27    H18     19.000946   19.874535   28.004427 H          1 MOL1         0.3605
      28    H19     18.067947   18.833672   27.127982 H          1 MOL1         0.3605
      29    H20     18.178487   20.420152   26.682733 H          1 MOL1         0.3605
@<TRIPOS>BOND
    1     1     2    1
    2     1     3    1
    3     1     4    1
    4     1     5    1
    5     5     6    1
    6     5     7    1
    7     5     8    1
    8     8     9    1
    9     8    10    1
   10     8    11    1
   11    11    12    1
   12    11    13    1
   13    11    14    1
   14    14    15    1
   15    14    16    1
   16    14    17    1
   17    17    18    1
   18    17    19    1
   19    17    20    1
   20    20    21    1
   21    20    22    1
   22    22    23    1
   23    22    24    1
   24    22    25    1
   25    20    26    1
   26    26    27    1
   27    26    28    1
   28    26    29    1
@<TRIPOS>SUBSTRUCTURE
       1 MOL1            1 RESIDUE      1      MOL     
@<SCITEGIC>MOL_PROPERTY
VM2 Rank
SciTegic.value.IntegerValue
52

@<SCITEGIC>MOL_PROPERTY
Conf_Id
SciTegic.value.IntegerValue
234

@<SCITEGIC>MOL_PROPERTY
Probability
SciTegic.value.DoubleValue
0.47

@<SCITEGIC>MOL_PROPERTY
Sum Probability
SciTegic.value.DoubleValue
91.73

@<SCITEGIC>MOL_PROPERTY
Delta G
SciTegic.value.DoubleValue
1.840

@<SCITEGIC>MOL_PROPERTY
G
SciTegic.value.DoubleValue
35.542

@<SCITEGIC>MOL_PROPERTY
E
SciTegic.value.DoubleValue
-1.910

@<SCITEGIC>MOL_PROPERTY
-TS
SciTegic.value.DoubleValue
37.452

@<SCITEGIC>MOL_PROPERTY
U+W
SciTegic.value.DoubleValue
-26.055

@<SCITEGIC>MOL_PROPERTY
U
SciTegic.value.DoubleValue
26.144

@<SCITEGIC>MOL_PROPERTY
W
SciTegic.value.DoubleValue
-52.199

@<SCITEGIC>MOL_PROPERTY
W(PB)
SciTegic.value.DoubleValue
-54.705

@<SCITEGIC>MOL_PROPERTY
W(SA)
SciTegic.value.DoubleValue
2.506

@<SCITEGIC>MOL_PROPERTY
Valence
SciTegic.value.DoubleValue
4.933

@<SCITEGIC>MOL_PROPERTY
Coulomb
SciTegic.value.DoubleValue
19.671

@<SCITEGIC>MOL_PROPERTY
VdW
SciTegic.value.DoubleValue
1.541

@<SCITEGIC>MOL_PROPERTY
VdW6
SciTegic.value.DoubleValue
-9.288

@<SCITEGIC>MOL_PROPERTY
VdW12
SciTegic.value.DoubleValue
10.829

@<SCITEGIC>MOL_PROPERTY
Bond
SciTegic.value.DoubleValue
0.296

@<SCITEGIC>MOL_PROPERTY
Angle
SciTegic.value.DoubleValue
1.772

@<SCITEGIC>MOL_PROPERTY
Pdih
SciTegic.value.DoubleValue
2.865

@<SCITEGIC>MOL_PROPERTY
Idih
SciTegic.value.DoubleValue
0.000

@<SCITEGIC>MOL_PROPERTY
Tether
SciTegic.value.DoubleValue
0.000

@<TRIPOS>MOLECULE
guest-s15_vm2.mol2 : vm2 ligand conformer 53
          29          28           1
SMALL
USER_CHARGES
 
@<TRIPOS>ATOM
       1    C1      19.327680   20.626080   19.868548 C.3        1 MOL1        -0.2426
       2    H1      18.368990   20.974215   20.274659 H          1 MOL1         0.0959
       3    H2      19.905357   21.508496   19.564179 H          1 MOL1         0.0959
       4    H3      19.122380   20.031193   18.969007 H          1 MOL1         0.0959
       5    C2      20.105431   19.800113   20.914790 C.3        1 MOL1        -0.1410
       6    H4      20.326145   20.439075   21.780176 H          1 MOL1         0.0948
       7    H5      21.071161   19.490977   20.491221 H          1 MOL1         0.0948
       8    C3      19.308661   18.552459   21.362981 C.3        1 MOL1        -0.1435
       9    H6      18.361692   18.861955   21.824166 H          1 MOL1         0.0948
      10    H7      19.031763   17.968621   20.474353 H          1 MOL1         0.0948
      11    C4      20.093714   17.625954   22.327602 C.3        1 MOL1        -0.1435
      12    H8      20.963500   17.217413   21.794892 H          1 MOL1         0.0948
      13    H9      19.462855   16.761804   22.577446 H          1 MOL1         0.0948
      14    C5      20.584394   18.286663   23.642394 C.3        1 MOL1        -0.1435
      15    H10     21.138172   17.527293   24.208877 H          1 MOL1         0.0948
      16    H11     21.307292   19.081501   23.416103 H          1 MOL1         0.0948
      17    C6      19.437056   18.854730   24.517616 C.3        1 MOL1        -0.1500
      18    H12     18.722078   18.056239   24.756030 H          1 MOL1         0.0948
      19    H13     18.885817   19.605267   23.938172 H          1 MOL1         0.0948
      20    C7      19.923255   19.525452   25.822931 C.3        1 MOL1         0.1162
      21    H14     20.679030   20.273315   25.563873 H          1 MOL1         0.0910
      22    C8      20.551076   18.514544   26.799470 C.3        1 MOL1        -0.2491
      23    H15     19.850549   17.704087   27.036376 H          1 MOL1         0.0959
      24    H16     21.463237   18.070796   26.384698 H          1 MOL1         0.0959
      25    H17     20.830270   19.007617   27.738773 H          1 MOL1         0.0959
      26    N1      18.804734   20.270005   26.497668 N.4        1 MOL1        -0.5987
      27    H18     18.399419   20.981034   25.882056 H          1 MOL1         0.3605
      28    H19     19.130436   20.748499   27.342464 H          1 MOL1         0.3605
      29    H20     18.049766   19.637614   26.776745 H          1 MOL1         0.3605
@<TRIPOS>BOND
    1     1     2    1
    2     1     3    1
    3     1     4    1
    4     1     5    1
    5     5     6    1
    6     5     7    1
    7     5     8    1
    8     8     9    1
    9     8    10    1
   10     8    11    1
   11    11    12    1
   12    11    13    1
   13    11    14    1
   14    14    15    1
   15    14    16    1
   16    14    17    1
   17    17    18    1
   18    17    19    1
   19    17    20    1
   20    20    21    1
   21    20    22    1
   22    22    23    1
   23    22    24    1
   24    22    25    1
   25    20    26    1
   26    26    27    1
   27    26    28    1
   28    26    29    1
@<TRIPOS>SUBSTRUCTURE
       1 MOL1            1 RESIDUE      1      MOL     
@<SCITEGIC>MOL_PROPERTY
VM2 Rank
SciTegic.value.IntegerValue
53

@<SCITEGIC>MOL_PROPERTY
Conf_Id
SciTegic.value.IntegerValue
307

@<SCITEGIC>MOL_PROPERTY
Probability
SciTegic.value.DoubleValue
0.47

@<SCITEGIC>MOL_PROPERTY
Sum Probability
SciTegic.value.DoubleValue
92.20

@<SCITEGIC>MOL_PROPERTY
Delta G
SciTegic.value.DoubleValue
1.842

@<SCITEGIC>MOL_PROPERTY
G
SciTegic.value.DoubleValue
35.544

@<SCITEGIC>MOL_PROPERTY
E
SciTegic.value.DoubleValue
-2.258

@<SCITEGIC>MOL_PROPERTY
-TS
SciTegic.value.DoubleValue
37.802

@<SCITEGIC>MOL_PROPERTY
U+W
SciTegic.value.DoubleValue
-26.402

@<SCITEGIC>MOL_PROPERTY
U
SciTegic.value.DoubleValue
26.111

@<SCITEGIC>MOL_PROPERTY
W
SciTegic.value.DoubleValue
-52.514

@<SCITEGIC>MOL_PROPERTY
W(PB)
SciTegic.value.DoubleValue
-54.998

@<SCITEGIC>MOL_PROPERTY
W(SA)
SciTegic.value.DoubleValue
2.485

@<SCITEGIC>MOL_PROPERTY
Valence
SciTegic.value.DoubleValue
4.789

@<SCITEGIC>MOL_PROPERTY
Coulomb
SciTegic.value.DoubleValue
20.049

@<SCITEGIC>MOL_PROPERTY
VdW
SciTegic.value.DoubleValue
1.273

@<SCITEGIC>MOL_PROPERTY
VdW6
SciTegic.value.DoubleValue
-9.803

@<SCITEGIC>MOL_PROPERTY
VdW12
SciTegic.value.DoubleValue
11.077

@<SCITEGIC>MOL_PROPERTY
Bond
SciTegic.value.DoubleValue
0.295

@<SCITEGIC>MOL_PROPERTY
Angle
SciTegic.value.DoubleValue
1.940

@<SCITEGIC>MOL_PROPERTY
Pdih
SciTegic.value.DoubleValue
2.553

@<SCITEGIC>MOL_PROPERTY
Idih
SciTegic.value.DoubleValue
0.000

@<SCITEGIC>MOL_PROPERTY
Tether
SciTegic.value.DoubleValue
0.000

@<TRIPOS>MOLECULE
guest-s15_vm2.mol2 : vm2 ligand conformer 54
          29          28           1
SMALL
USER_CHARGES
 
@<TRIPOS>ATOM
       1    C1      19.003746   20.470612   20.378597 C.3        1 MOL1        -0.2426
       2    H1      19.236796   21.030459   21.292902 H          1 MOL1         0.0959
       3    H2      19.773874   20.697540   19.630034 H          1 MOL1         0.0959
       4    H3      18.044266   20.843843   19.997915 H          1 MOL1         0.0959
       5    C2      18.924423   18.951412   20.650172 C.3        1 MOL1        -0.1410
       6    H4      18.574375   18.447085   19.738721 H          1 MOL1         0.0948
       7    H5      18.162450   18.750787   21.415072 H          1 MOL1         0.0948
       8    C3      20.280687   18.328194   21.068148 C.3        1 MOL1        -0.1435
       9    H6      20.143248   17.248071   21.214912 H          1 MOL1         0.0948
      10    H7      20.989500   18.430285   20.234931 H          1 MOL1         0.0948
      11    C4      20.923490   18.932208   22.343409 C.3        1 MOL1        -0.1435
      12    H8      21.173602   19.987571   22.172007 H          1 MOL1         0.0948
      13    H9      21.879171   18.420823   22.523100 H          1 MOL1         0.0948
      14    C5      20.036825   18.801494   23.604775 C.3        1 MOL1        -0.1435
      15    H10     19.109710   19.369942   23.461080 H          1 MOL1         0.0948
      16    H11     19.753291   17.748925   23.734642 H          1 MOL1         0.0948
      17    C6      20.769751   19.314549   24.871568 C.3        1 MOL1        -0.1500
      18    H12     21.097315   20.349001   24.704053 H          1 MOL1         0.0948
      19    H13     21.685829   18.728468   25.023319 H          1 MOL1         0.0948
      20    C7      19.932066   19.271621   26.171399 C.3        1 MOL1         0.1162
      21    H14     20.554614   19.681167   26.972939 H          1 MOL1         0.0910
      22    C8      19.550554   17.834510   26.566907 C.3        1 MOL1        -0.2491
      23    H15     18.845100   17.391237   25.854110 H          1 MOL1         0.0959
      24    H16     20.440043   17.194105   26.614509 H          1 MOL1         0.0959
      25    H17     19.078416   17.821920   27.556917 H          1 MOL1         0.0959
      26    N1      18.714459   20.151400   26.099025 N.4        1 MOL1        -0.5987
      27    H18     18.964005   21.120080   25.879730 H          1 MOL1         0.3605
      28    H19     18.206012   20.159823   26.987896 H          1 MOL1         0.3605
      29    H20     18.065782   19.828392   25.376976 H          1 MOL1         0.3605
@<TRIPOS>BOND
    1     1     2    1
    2     1     3    1
    3     1     4    1
    4     1     5    1
    5     5     6    1
    6     5     7    1
    7     5     8    1
    8     8     9    1
    9     8    10    1
   10     8    11    1
   11    11    12    1
   12    11    13    1
   13    11    14    1
   14    14    15    1
   15    14    16    1
   16    14    17    1
   17    17    18    1
   18    17    19    1
   19    17    20    1
   20    20    21    1
   21    20    22    1
   22    22    23    1
   23    22    24    1
   24    22    25    1
   25    20    26    1
   26    26    27    1
   27    26    28    1
   28    26    29    1
@<TRIPOS>SUBSTRUCTURE
       1 MOL1            1 RESIDUE      1      MOL     
@<SCITEGIC>MOL_PROPERTY
VM2 Rank
SciTegic.value.IntegerValue
54

@<SCITEGIC>MOL_PROPERTY
Conf_Id
SciTegic.value.IntegerValue
169

@<SCITEGIC>MOL_PROPERTY
Probability
SciTegic.value.DoubleValue
0.46

@<SCITEGIC>MOL_PROPERTY
Sum Probability
SciTegic.value.DoubleValue
92.66

@<SCITEGIC>MOL_PROPERTY
Delta G
SciTegic.value.DoubleValue
1.851

@<SCITEGIC>MOL_PROPERTY
G
SciTegic.value.DoubleValue
35.553

@<SCITEGIC>MOL_PROPERTY
E
SciTegic.value.DoubleValue
-2.418

@<SCITEGIC>MOL_PROPERTY
-TS
SciTegic.value.DoubleValue
37.971

@<SCITEGIC>MOL_PROPERTY
U+W
SciTegic.value.DoubleValue
-26.563

@<SCITEGIC>MOL_PROPERTY
U
SciTegic.value.DoubleValue
25.998

@<SCITEGIC>MOL_PROPERTY
W
SciTegic.value.DoubleValue
-52.561

@<SCITEGIC>MOL_PROPERTY
W(PB)
SciTegic.value.DoubleValue
-55.000

@<SCITEGIC>MOL_PROPERTY
W(SA)
SciTegic.value.DoubleValue
2.440

@<SCITEGIC>MOL_PROPERTY
Valence
SciTegic.value.DoubleValue
4.627

@<SCITEGIC>MOL_PROPERTY
Coulomb
SciTegic.value.DoubleValue
20.145

@<SCITEGIC>MOL_PROPERTY
VdW
SciTegic.value.DoubleValue
1.225

@<SCITEGIC>MOL_PROPERTY
VdW6
SciTegic.value.DoubleValue
-10.242

@<SCITEGIC>MOL_PROPERTY
VdW12
SciTegic.value.DoubleValue
11.467

@<SCITEGIC>MOL_PROPERTY
Bond
SciTegic.value.DoubleValue
0.303

@<SCITEGIC>MOL_PROPERTY
Angle
SciTegic.value.DoubleValue
1.847

@<SCITEGIC>MOL_PROPERTY
Pdih
SciTegic.value.DoubleValue
2.477

@<SCITEGIC>MOL_PROPERTY
Idih
SciTegic.value.DoubleValue
0.000

@<SCITEGIC>MOL_PROPERTY
Tether
SciTegic.value.DoubleValue
0.000

@<TRIPOS>MOLECULE
guest-s15_vm2.mol2 : vm2 ligand conformer 55
          29          28           1
SMALL
USER_CHARGES
 
@<TRIPOS>ATOM
       1    C1      20.896153   19.018837   19.798112 C.3        1 MOL1        -0.2426
       2    H1      21.856278   18.824504   20.293689 H          1 MOL1         0.0959
       3    H2      20.768954   18.271311   19.004367 H          1 MOL1         0.0959
       4    H3      20.949729   20.007629   19.324166 H          1 MOL1         0.0959
       5    C2      19.728655   18.948406   20.804915 C.3        1 MOL1        -0.1410
       6    H4      19.682690   17.935881   21.227305 H          1 MOL1         0.0948
       7    H5      18.780139   19.116539   20.276104 H          1 MOL1         0.0948
       8    C3      19.887571   19.991747   21.935526 C.3        1 MOL1        -0.1435
       9    H6      20.819976   19.805162   22.484416 H          1 MOL1         0.0948
      10    H7      19.996179   20.988864   21.487059 H          1 MOL1         0.0948
      11    C4      18.689089   20.026861   22.918495 C.3        1 MOL1        -0.1435
      12    H8      17.784126   20.312372   22.364687 H          1 MOL1         0.0948
      13    H9      18.854086   20.831440   23.647408 H          1 MOL1         0.0948
      14    C5      18.411539   18.697450   23.670981 C.3        1 MOL1        -0.1435
      15    H10     17.563357   18.848054   24.352073 H          1 MOL1         0.0948
      16    H11     18.074948   17.935831   22.955178 H          1 MOL1         0.0948
      17    C6      19.618797   18.137384   24.469195 C.3        1 MOL1        -0.1500
      18    H12     20.401201   17.824948   23.765700 H          1 MOL1         0.0948
      19    H13     19.306912   17.225829   24.995948 H          1 MOL1         0.0948
      20    C7      20.219007   19.134755   25.484377 C.3        1 MOL1         0.1162
      21    H14     20.520792   20.036455   24.943231 H          1 MOL1         0.0910
      22    C8      21.466731   18.534873   26.151186 C.3        1 MOL1        -0.2491
      23    H15     22.223628   18.276677   25.400063 H          1 MOL1         0.0959
      24    H16     21.918862   19.253272   26.846055 H          1 MOL1         0.0959
      25    H17     21.218452   17.625609   26.712872 H          1 MOL1         0.0959
      26    N1      19.218457   19.565686   26.521214 N.4        1 MOL1        -0.5987
      27    H18     18.396893   19.995371   26.087444 H          1 MOL1         0.3605
      28    H19     19.619848   20.250393   27.168189 H          1 MOL1         0.3605
      29    H20     18.893349   18.770749   27.077795 H          1 MOL1         0.3605
@<TRIPOS>BOND
    1     1     2    1
    2     1     3    1
    3     1     4    1
    4     1     5    1
    5     5     6    1
    6     5     7    1
    7     5     8    1
    8     8     9    1
    9     8    10    1
   10     8    11    1
   11    11    12    1
   12    11    13    1
   13    11    14    1
   14    14    15    1
   15    14    16    1
   16    14    17    1
   17    17    18    1
   18    17    19    1
   19    17    20    1
   20    20    21    1
   21    20    22    1
   22    22    23    1
   23    22    24    1
   24    22    25    1
   25    20    26    1
   26    26    27    1
   27    26    28    1
   28    26    29    1
@<TRIPOS>SUBSTRUCTURE
       1 MOL1            1 RESIDUE      1      MOL     
@<SCITEGIC>MOL_PROPERTY
VM2 Rank
SciTegic.value.IntegerValue
55

@<SCITEGIC>MOL_PROPERTY
Conf_Id
SciTegic.value.IntegerValue
1244

@<SCITEGIC>MOL_PROPERTY
Probability
SciTegic.value.DoubleValue
0.44

@<SCITEGIC>MOL_PROPERTY
Sum Probability
SciTegic.value.DoubleValue
93.10

@<SCITEGIC>MOL_PROPERTY
Delta G
SciTegic.value.DoubleValue
1.884

@<SCITEGIC>MOL_PROPERTY
G
SciTegic.value.DoubleValue
35.587

@<SCITEGIC>MOL_PROPERTY
E
SciTegic.value.DoubleValue
-2.611

@<SCITEGIC>MOL_PROPERTY
-TS
SciTegic.value.DoubleValue
38.197

@<SCITEGIC>MOL_PROPERTY
U+W
SciTegic.value.DoubleValue
-26.755

@<SCITEGIC>MOL_PROPERTY
U
SciTegic.value.DoubleValue
25.507

@<SCITEGIC>MOL_PROPERTY
W
SciTegic.value.DoubleValue
-52.262

@<SCITEGIC>MOL_PROPERTY
W(PB)
SciTegic.value.DoubleValue
-54.690

@<SCITEGIC>MOL_PROPERTY
W(SA)
SciTegic.value.DoubleValue
2.428

@<SCITEGIC>MOL_PROPERTY
Valence
SciTegic.value.DoubleValue
4.386

@<SCITEGIC>MOL_PROPERTY
Coulomb
SciTegic.value.DoubleValue
20.418

@<SCITEGIC>MOL_PROPERTY
VdW
SciTegic.value.DoubleValue
0.702

@<SCITEGIC>MOL_PROPERTY
VdW6
SciTegic.value.DoubleValue
-10.964

@<SCITEGIC>MOL_PROPERTY
VdW12
SciTegic.value.DoubleValue
11.666

@<SCITEGIC>MOL_PROPERTY
Bond
SciTegic.value.DoubleValue
0.307

@<SCITEGIC>MOL_PROPERTY
Angle
SciTegic.value.DoubleValue
1.748

@<SCITEGIC>MOL_PROPERTY
Pdih
SciTegic.value.DoubleValue
2.332

@<SCITEGIC>MOL_PROPERTY
Idih
SciTegic.value.DoubleValue
0.000

@<SCITEGIC>MOL_PROPERTY
Tether
SciTegic.value.DoubleValue
0.000

@<TRIPOS>MOLECULE
guest-s15_vm2.mol2 : vm2 ligand conformer 56
          29          28           1
SMALL
USER_CHARGES
 
@<TRIPOS>ATOM
       1    C1      20.606289   19.282453   19.516439 C.3        1 MOL1        -0.2426
       2    H1      20.563249   19.320633   18.420263 H          1 MOL1         0.0959
       3    H2      21.397016   19.968977   19.845754 H          1 MOL1         0.0959
       4    H3      20.895606   18.262938   19.800131 H          1 MOL1         0.0959
       5    C2      19.241083   19.674515   20.125445 C.3        1 MOL1        -0.1410
       6    H4      18.472843   18.958353   19.801988 H          1 MOL1         0.0948
       7    H5      18.940063   20.651449   19.722055 H          1 MOL1         0.0948
       8    C3      19.260833   19.759180   21.670613 C.3        1 MOL1        -0.1435
       9    H6      20.009920   20.500292   21.978405 H          1 MOL1         0.0948
      10    H7      18.287935   20.138625   22.011969 H          1 MOL1         0.0948
      11    C4      19.543289   18.397990   22.355341 C.3        1 MOL1        -0.1435
      12    H8      20.563750   18.064660   22.124710 H          1 MOL1         0.0948
      13    H9      18.867490   17.640369   21.935329 H          1 MOL1         0.0948
      14    C5      19.352159   18.427344   23.891710 C.3        1 MOL1        -0.1435
      15    H10     18.325867   18.742549   24.121854 H          1 MOL1         0.0948
      16    H11     19.452117   17.399583   24.263598 H          1 MOL1         0.0948
      17    C6      20.370831   19.346266   24.620137 C.3        1 MOL1        -0.1500
      18    H12     20.250792   20.378577   24.269672 H          1 MOL1         0.0948
      19    H13     21.391077   19.048876   24.344048 H          1 MOL1         0.0948
      20    C7      20.254214   19.352193   26.162779 C.3        1 MOL1         0.1162
      21    H14     20.983831   20.075296   26.540325 H          1 MOL1         0.0910
      22    C8      20.598016   17.983969   26.777162 C.3        1 MOL1        -0.2491
      23    H15     20.646166   18.056652   27.870594 H          1 MOL1         0.0959
      24    H16     19.847863   17.224997   26.525846 H          1 MOL1         0.0959
      25    H17     21.575455   17.632375   26.424237 H          1 MOL1         0.0959
      26    N1      18.909285   19.832091   26.634376 N.4        1 MOL1        -0.5987
      27    H18     18.869308   19.888520   27.656064 H          1 MOL1         0.3605
      28    H19     18.163621   19.200311   26.332010 H          1 MOL1         0.3605
      29    H20     18.693133   20.763265   26.267198 H          1 MOL1         0.3605
@<TRIPOS>BOND
    1     1     2    1
    2     1     3    1
    3     1     4    1
    4     1     5    1
    5     5     6    1
    6     5     7    1
    7     5     8    1
    8     8     9    1
    9     8    10    1
   10     8    11    1
   11    11    12    1
   12    11    13    1
   13    11    14    1
   14    14    15    1
   15    14    16    1
   16    14    17    1
   17    17    18    1
   18    17    19    1
   19    17    20    1
   20    20    21    1
   21    20    22    1
   22    22    23    1
   23    22    24    1
   24    22    25    1
   25    20    26    1
   26    26    27    1
   27    26    28    1
   28    26    29    1
@<TRIPOS>SUBSTRUCTURE
       1 MOL1            1 RESIDUE      1      MOL     
@<SCITEGIC>MOL_PROPERTY
VM2 Rank
SciTegic.value.IntegerValue
56

@<SCITEGIC>MOL_PROPERTY
Conf_Id
SciTegic.value.IntegerValue
1016

@<SCITEGIC>MOL_PROPERTY
Probability
SciTegic.value.DoubleValue
0.43

@<SCITEGIC>MOL_PROPERTY
Sum Probability
SciTegic.value.DoubleValue
93.54

@<SCITEGIC>MOL_PROPERTY
Delta G
SciTegic.value.DoubleValue
1.890

@<SCITEGIC>MOL_PROPERTY
G
SciTegic.value.DoubleValue
35.592

@<SCITEGIC>MOL_PROPERTY
E
SciTegic.value.DoubleValue
-2.142

@<SCITEGIC>MOL_PROPERTY
-TS
SciTegic.value.DoubleValue
37.734

@<SCITEGIC>MOL_PROPERTY
U+W
SciTegic.value.DoubleValue
-26.287

@<SCITEGIC>MOL_PROPERTY
U
SciTegic.value.DoubleValue
25.995

@<SCITEGIC>MOL_PROPERTY
W
SciTegic.value.DoubleValue
-52.282

@<SCITEGIC>MOL_PROPERTY
W(PB)
SciTegic.value.DoubleValue
-54.748

@<SCITEGIC>MOL_PROPERTY
W(SA)
SciTegic.value.DoubleValue
2.466

@<SCITEGIC>MOL_PROPERTY
Valence
SciTegic.value.DoubleValue
4.756

@<SCITEGIC>MOL_PROPERTY
Coulomb
SciTegic.value.DoubleValue
19.829

@<SCITEGIC>MOL_PROPERTY
VdW
SciTegic.value.DoubleValue
1.410

@<SCITEGIC>MOL_PROPERTY
VdW6
SciTegic.value.DoubleValue
-9.885

@<SCITEGIC>MOL_PROPERTY
VdW12
SciTegic.value.DoubleValue
11.295

@<SCITEGIC>MOL_PROPERTY
Bond
SciTegic.value.DoubleValue
0.310

@<SCITEGIC>MOL_PROPERTY
Angle
SciTegic.value.DoubleValue
1.687

@<SCITEGIC>MOL_PROPERTY
Pdih
SciTegic.value.DoubleValue
2.759

@<SCITEGIC>MOL_PROPERTY
Idih
SciTegic.value.DoubleValue
0.000

@<SCITEGIC>MOL_PROPERTY
Tether
SciTegic.value.DoubleValue
0.000

@<TRIPOS>MOLECULE
guest-s15_vm2.mol2 : vm2 ligand conformer 57
          29          28           1
SMALL
USER_CHARGES
 
@<TRIPOS>ATOM
       1    C1      20.178720   20.322793   20.079683 C.3        1 MOL1        -0.2426
       2    H1      19.575416   20.002867   19.220269 H          1 MOL1         0.0959
       3    H2      19.573329   21.004664   20.689736 H          1 MOL1         0.0959
       4    H3      21.034674   20.892948   19.696184 H          1 MOL1         0.0959
       5    C2      20.662335   19.106662   20.901288 C.3        1 MOL1        -0.1410
       6    H4      21.253135   19.450952   21.760590 H          1 MOL1         0.0948
       7    H5      21.348862   18.512177   20.282572 H          1 MOL1         0.0948
       8    C3      19.507454   18.189904   21.378140 C.3        1 MOL1        -0.1435
       9    H6      18.996211   17.778265   20.497126 H          1 MOL1         0.0948
      10    H7      19.932309   17.323152   21.901308 H          1 MOL1         0.0948
      11    C4      18.451037   18.875632   22.286150 C.3        1 MOL1        -0.1435
      12    H8      17.705693   18.125783   22.584773 H          1 MOL1         0.0948
      13    H9      17.898754   19.620452   21.697772 H          1 MOL1         0.0948
      14    C5      19.011625   19.560249   23.559515 C.3        1 MOL1        -0.1435
      15    H10     19.686139   20.379573   23.277513 H          1 MOL1         0.0948
      16    H11     18.170967   20.028314   24.087988 H          1 MOL1         0.0948
      17    C6      19.744755   18.583303   24.514113 C.3        1 MOL1        -0.1500
      18    H12     20.593755   18.131182   23.986509 H          1 MOL1         0.0948
      19    H13     19.072529   17.760842   24.792205 H          1 MOL1         0.0948
      20    C7      20.276696   19.273555   25.788752 C.3        1 MOL1         0.1162
      21    H14     20.913001   20.110651   25.485410 H          1 MOL1         0.0910
      22    C8      21.128348   18.293369   26.611187 C.3        1 MOL1        -0.2491
      23    H15     20.534337   17.431938   26.941392 H          1 MOL1         0.0959
      24    H16     21.973169   17.919243   26.019526 H          1 MOL1         0.0959
      25    H17     21.538418   18.787148   27.500807 H          1 MOL1         0.0959
      26    N1      19.175030   19.850532   26.635173 N.4        1 MOL1        -0.5987
      27    H18     18.625906   20.540056   26.115013 H          1 MOL1         0.3605
      28    H19     19.547843   20.319134   27.465851 H          1 MOL1         0.3605
      29    H20     18.531643   19.122296   26.956471 H          1 MOL1         0.3605
@<TRIPOS>BOND
    1     1     2    1
    2     1     3    1
    3     1     4    1
    4     1     5    1
    5     5     6    1
    6     5     7    1
    7     5     8    1
    8     8     9    1
    9     8    10    1
   10     8    11    1
   11    11    12    1
   12    11    13    1
   13    11    14    1
   14    14    15    1
   15    14    16    1
   16    14    17    1
   17    17    18    1
   18    17    19    1
   19    17    20    1
   20    20    21    1
   21    20    22    1
   22    22    23    1
   23    22    24    1
   24    22    25    1
   25    20    26    1
   26    26    27    1
   27    26    28    1
   28    26    29    1
@<TRIPOS>SUBSTRUCTURE
       1 MOL1            1 RESIDUE      1      MOL     
@<SCITEGIC>MOL_PROPERTY
VM2 Rank
SciTegic.value.IntegerValue
57

@<SCITEGIC>MOL_PROPERTY
Conf_Id
SciTegic.value.IntegerValue
455

@<SCITEGIC>MOL_PROPERTY
Probability
SciTegic.value.DoubleValue
0.43

@<SCITEGIC>MOL_PROPERTY
Sum Probability
SciTegic.value.DoubleValue
93.96

@<SCITEGIC>MOL_PROPERTY
Delta G
SciTegic.value.DoubleValue
1.899

@<SCITEGIC>MOL_PROPERTY
G
SciTegic.value.DoubleValue
35.601

@<SCITEGIC>MOL_PROPERTY
E
SciTegic.value.DoubleValue
-2.555

@<SCITEGIC>MOL_PROPERTY
-TS
SciTegic.value.DoubleValue
38.156

@<SCITEGIC>MOL_PROPERTY
U+W
SciTegic.value.DoubleValue
-26.699

@<SCITEGIC>MOL_PROPERTY
U
SciTegic.value.DoubleValue
25.696

@<SCITEGIC>MOL_PROPERTY
W
SciTegic.value.DoubleValue
-52.395

@<SCITEGIC>MOL_PROPERTY
W(PB)
SciTegic.value.DoubleValue
-54.863

@<SCITEGIC>MOL_PROPERTY
W(SA)
SciTegic.value.DoubleValue
2.468

@<SCITEGIC>MOL_PROPERTY
Valence
SciTegic.value.DoubleValue
4.599

@<SCITEGIC>MOL_PROPERTY
Coulomb
SciTegic.value.DoubleValue
20.006

@<SCITEGIC>MOL_PROPERTY
VdW
SciTegic.value.DoubleValue
1.091

@<SCITEGIC>MOL_PROPERTY
VdW6
SciTegic.value.DoubleValue
-10.568

@<SCITEGIC>MOL_PROPERTY
VdW12
SciTegic.value.DoubleValue
11.659

@<SCITEGIC>MOL_PROPERTY
Bond
SciTegic.value.DoubleValue
0.319

@<SCITEGIC>MOL_PROPERTY
Angle
SciTegic.value.DoubleValue
1.895

@<SCITEGIC>MOL_PROPERTY
Pdih
SciTegic.value.DoubleValue
2.384

@<SCITEGIC>MOL_PROPERTY
Idih
SciTegic.value.DoubleValue
0.000

@<SCITEGIC>MOL_PROPERTY
Tether
SciTegic.value.DoubleValue
0.000

@<TRIPOS>MOLECULE
guest-s15_vm2.mol2 : vm2 ligand conformer 58
          29          28           1
SMALL
USER_CHARGES
 
@<TRIPOS>ATOM
       1    C1      19.687476   19.915290   19.606947 C.3        1 MOL1        -0.2426
       2    H1      18.868505   20.544581   19.976373 H          1 MOL1         0.0959
       3    H2      20.180105   20.461297   18.792016 H          1 MOL1         0.0959
       4    H3      19.254643   18.999563   19.183728 H          1 MOL1         0.0959
       5    C2      20.701119   19.585154   20.726023 C.3        1 MOL1        -0.1410
       6    H4      21.093256   20.516898   21.157048 H          1 MOL1         0.0948
       7    H5      21.561605   19.066942   20.280174 H          1 MOL1         0.0948
       8    C3      20.114573   18.695006   21.848233 C.3        1 MOL1        -0.1435
       9    H6      19.727582   17.763311   21.413308 H          1 MOL1         0.0948
      10    H7      20.936789   18.407883   22.516202 H          1 MOL1         0.0948
      11    C4      18.999766   19.391986   22.668617 C.3        1 MOL1        -0.1435
      12    H8      18.179398   19.679261   21.998457 H          1 MOL1         0.0948
      13    H9      19.384916   20.327782   23.094477 H          1 MOL1         0.0948
      14    C5      18.406414   18.499708   23.789878 C.3        1 MOL1        -0.1435
      15    H10     17.589118   19.044961   24.280722 H          1 MOL1         0.0948
      16    H11     17.939408   17.616036   23.333591 H          1 MOL1         0.0948
      17    C6      19.424241   18.027452   24.862450 C.3        1 MOL1        -0.1500
      18    H12     20.126950   17.318794   24.405952 H          1 MOL1         0.0948
      19    H13     18.889038   17.460816   25.635914 H          1 MOL1         0.0948
      20    C7      20.218591   19.173502   25.526835 C.3        1 MOL1         0.1162
      21    H14     20.747511   19.724481   24.743426 H          1 MOL1         0.0910
      22    C8      21.261751   18.607192   26.502784 C.3        1 MOL1        -0.2491
      23    H15     20.782525   18.045535   27.314440 H          1 MOL1         0.0959
      24    H16     21.955167   17.933587   25.983981 H          1 MOL1         0.0959
      25    H17     21.854217   19.415149   26.949505 H          1 MOL1         0.0959
      26    N1      19.322069   20.160710   26.222234 N.4        1 MOL1        -0.5987
      27    H18     19.858180   20.932029   26.629893 H          1 MOL1         0.3605
      28    H19     18.797098   19.716881   26.980422 H          1 MOL1         0.3605
      29    H20     18.642811   20.565996   25.572499 H          1 MOL1         0.3605
@<TRIPOS>BOND
    1     1     2    1
    2     1     3    1
    3     1     4    1
    4     1     5    1
    5     5     6    1
    6     5     7    1
    7     5     8    1
    8     8     9    1
    9     8    10    1
   10     8    11    1
   11    11    12    1
   12    11    13    1
   13    11    14    1
   14    14    15    1
   15    14    16    1
   16    14    17    1
   17    17    18    1
   18    17    19    1
   19    17    20    1
   20    20    21    1
   21    20    22    1
   22    22    23    1
   23    22    24    1
   24    22    25    1
   25    20    26    1
   26    26    27    1
   27    26    28    1
   28    26    29    1
@<TRIPOS>SUBSTRUCTURE
       1 MOL1            1 RESIDUE      1      MOL     
@<SCITEGIC>MOL_PROPERTY
VM2 Rank
SciTegic.value.IntegerValue
58

@<SCITEGIC>MOL_PROPERTY
Conf_Id
SciTegic.value.IntegerValue
785

@<SCITEGIC>MOL_PROPERTY
Probability
SciTegic.value.DoubleValue
0.42

@<SCITEGIC>MOL_PROPERTY
Sum Probability
SciTegic.value.DoubleValue
94.38

@<SCITEGIC>MOL_PROPERTY
Delta G
SciTegic.value.DoubleValue
1.915

@<SCITEGIC>MOL_PROPERTY
G
SciTegic.value.DoubleValue
35.617

@<SCITEGIC>MOL_PROPERTY
E
SciTegic.value.DoubleValue
-2.321

@<SCITEGIC>MOL_PROPERTY
-TS
SciTegic.value.DoubleValue
37.938

@<SCITEGIC>MOL_PROPERTY
U+W
SciTegic.value.DoubleValue
-26.466

@<SCITEGIC>MOL_PROPERTY
U
SciTegic.value.DoubleValue
25.816

@<SCITEGIC>MOL_PROPERTY
W
SciTegic.value.DoubleValue
-52.282

@<SCITEGIC>MOL_PROPERTY
W(PB)
SciTegic.value.DoubleValue
-54.728

@<SCITEGIC>MOL_PROPERTY
W(SA)
SciTegic.value.DoubleValue
2.446

@<SCITEGIC>MOL_PROPERTY
Valence
SciTegic.value.DoubleValue
4.503

@<SCITEGIC>MOL_PROPERTY
Coulomb
SciTegic.value.DoubleValue
20.342

@<SCITEGIC>MOL_PROPERTY
VdW
SciTegic.value.DoubleValue
0.971

@<SCITEGIC>MOL_PROPERTY
VdW6
SciTegic.value.DoubleValue
-10.532

@<SCITEGIC>MOL_PROPERTY
VdW12
SciTegic.value.DoubleValue
11.503

@<SCITEGIC>MOL_PROPERTY
Bond
SciTegic.value.DoubleValue
0.307

@<SCITEGIC>MOL_PROPERTY
Angle
SciTegic.value.DoubleValue
1.715

@<SCITEGIC>MOL_PROPERTY
Pdih
SciTegic.value.DoubleValue
2.481

@<SCITEGIC>MOL_PROPERTY
Idih
SciTegic.value.DoubleValue
0.000

@<SCITEGIC>MOL_PROPERTY
Tether
SciTegic.value.DoubleValue
0.000

@<TRIPOS>MOLECULE
guest-s15_vm2.mol2 : vm2 ligand conformer 59
          29          28           1
SMALL
USER_CHARGES
 
@<TRIPOS>ATOM
       1    C1      19.154621   19.074812   19.295537 C.3        1 MOL1        -0.2426
       2    H1      19.292660   19.379709   18.250114 H          1 MOL1         0.0959
       3    H2      18.991923   17.989297   19.309756 H          1 MOL1         0.0959
       4    H3      18.244540   19.564374   19.663315 H          1 MOL1         0.0959
       5    C2      20.390421   19.462693   20.138918 C.3        1 MOL1        -0.1410
       6    H4      20.511387   20.554975   20.138027 H          1 MOL1         0.0948
       7    H5      21.288820   19.053734   19.655796 H          1 MOL1         0.0948
       8    C3      20.332282   18.943324   21.595970 C.3        1 MOL1        -0.1435
       9    H6      20.212292   17.851276   21.591247 H          1 MOL1         0.0948
      10    H7      21.302679   19.146870   22.066237 H          1 MOL1         0.0948
      11    C4      19.202411   19.590657   22.436657 C.3        1 MOL1        -0.1435
      12    H8      18.234054   19.392402   21.959621 H          1 MOL1         0.0948
      13    H9      19.324952   20.682389   22.445033 H          1 MOL1         0.0948
      14    C5      19.133895   19.064328   23.891552 C.3        1 MOL1        -0.1435
      15    H10     18.227698   19.471947   24.358170 H          1 MOL1         0.0948
      16    H11     19.009252   17.973526   23.872617 H          1 MOL1         0.0948
      17    C6      20.372942   19.446965   24.746599 C.3        1 MOL1        -0.1500
      18    H12     20.550866   20.527023   24.662627 H          1 MOL1         0.0948
      19    H13     21.267839   18.958973   24.341263 H          1 MOL1         0.0948
      20    C7      20.263149   19.083920   26.246355 C.3        1 MOL1         0.1162
      21    H14     21.189130   19.411833   26.728841 H          1 MOL1         0.0910
      22    C8      20.135942   17.566302   26.465141 C.3        1 MOL1        -0.2491
      23    H15     20.193576   17.326612   27.533980 H          1 MOL1         0.0959
      24    H16     19.181807   17.180943   26.086322 H          1 MOL1         0.0959
      25    H17     20.948700   17.030135   25.959636 H          1 MOL1         0.0959
      26    N1      19.150337   19.823001   26.937271 N.4        1 MOL1        -0.5987
      27    H18     19.251321   20.836678   26.832565 H          1 MOL1         0.3605
      28    H19     19.132394   19.619070   27.940632 H          1 MOL1         0.3605
      29    H20     18.237990   19.562723   26.554757 H          1 MOL1         0.3605
@<TRIPOS>BOND
    1     1     2    1
    2     1     3    1
    3     1     4    1
    4     1     5    1
    5     5     6    1
    6     5     7    1
    7     5     8    1
    8     8     9    1
    9     8    10    1
   10     8    11    1
   11    11    12    1
   12    11    13    1
   13    11    14    1
   14    14    15    1
   15    14    16    1
   16    14    17    1
   17    17    18    1
   18    17    19    1
   19    17    20    1
   20    20    21    1
   21    20    22    1
   22    22    23    1
   23    22    24    1
   24    22    25    1
   25    20    26    1
   26    26    27    1
   27    26    28    1
   28    26    29    1
@<TRIPOS>SUBSTRUCTURE
       1 MOL1            1 RESIDUE      1      MOL     
@<SCITEGIC>MOL_PROPERTY
VM2 Rank
SciTegic.value.IntegerValue
59

@<SCITEGIC>MOL_PROPERTY
Conf_Id
SciTegic.value.IntegerValue
573

@<SCITEGIC>MOL_PROPERTY
Probability
SciTegic.value.DoubleValue
0.40

@<SCITEGIC>MOL_PROPERTY
Sum Probability
SciTegic.value.DoubleValue
94.78

@<SCITEGIC>MOL_PROPERTY
Delta G
SciTegic.value.DoubleValue
1.934

@<SCITEGIC>MOL_PROPERTY
G
SciTegic.value.DoubleValue
35.637

@<SCITEGIC>MOL_PROPERTY
E
SciTegic.value.DoubleValue
-2.059

@<SCITEGIC>MOL_PROPERTY
-TS
SciTegic.value.DoubleValue
37.695

@<SCITEGIC>MOL_PROPERTY
U+W
SciTegic.value.DoubleValue
-26.203

@<SCITEGIC>MOL_PROPERTY
U
SciTegic.value.DoubleValue
25.894

@<SCITEGIC>MOL_PROPERTY
W
SciTegic.value.DoubleValue
-52.097

@<SCITEGIC>MOL_PROPERTY
W(PB)
SciTegic.value.DoubleValue
-54.605

@<SCITEGIC>MOL_PROPERTY
W(SA)
SciTegic.value.DoubleValue
2.507

@<SCITEGIC>MOL_PROPERTY
Valence
SciTegic.value.DoubleValue
4.779

@<SCITEGIC>MOL_PROPERTY
Coulomb
SciTegic.value.DoubleValue
19.659

@<SCITEGIC>MOL_PROPERTY
VdW
SciTegic.value.DoubleValue
1.456

@<SCITEGIC>MOL_PROPERTY
VdW6
SciTegic.value.DoubleValue
-9.843

@<SCITEGIC>MOL_PROPERTY
VdW12
SciTegic.value.DoubleValue
11.299

@<SCITEGIC>MOL_PROPERTY
Bond
SciTegic.value.DoubleValue
0.315

@<SCITEGIC>MOL_PROPERTY
Angle
SciTegic.value.DoubleValue
1.725

@<SCITEGIC>MOL_PROPERTY
Pdih
SciTegic.value.DoubleValue
2.740

@<SCITEGIC>MOL_PROPERTY
Idih
SciTegic.value.DoubleValue
0.000

@<SCITEGIC>MOL_PROPERTY
Tether
SciTegic.value.DoubleValue
0.000

@<TRIPOS>MOLECULE
guest-s15_vm2.mol2 : vm2 ligand conformer 60
          29          28           1
SMALL
USER_CHARGES
 
@<TRIPOS>ATOM
       1    C1      18.894993   20.213615   20.247911 C.3        1 MOL1        -0.2426
       2    H1      19.454624   20.056338   19.316784 H          1 MOL1         0.0959
       3    H2      17.886507   20.554706   19.980682 H          1 MOL1         0.0959
       4    H3      19.380344   21.022424   20.808118 H          1 MOL1         0.0959
       5    C2      18.824261   18.912728   21.078890 C.3        1 MOL1        -0.1410
       6    H4      18.237501   18.168854   20.522207 H          1 MOL1         0.0948
       7    H5      18.271217   19.096971   22.009467 H          1 MOL1         0.0948
       8    C3      20.216327   18.308711   21.393638 C.3        1 MOL1        -0.1435
       9    H6      20.080500   17.363311   21.935353 H          1 MOL1         0.0948
      10    H7      20.706328   18.037881   20.448369 H          1 MOL1         0.0948
      11    C4      21.170691   19.231877   22.198146 C.3        1 MOL1        -0.1435
      12    H8      21.445649   20.096592   21.579625 H          1 MOL1         0.0948
      13    H9      22.109392   18.691340   22.381554 H          1 MOL1         0.0948
      14    C5      20.611399   19.740456   23.551534 C.3        1 MOL1        -0.1435
      15    H10     21.366823   20.389024   24.016341 H          1 MOL1         0.0948
      16    H11     19.735054   20.375590   23.370598 H          1 MOL1         0.0948
      17    C6      20.253439   18.598357   24.536172 C.3        1 MOL1        -0.1500
      18    H12     21.118643   17.929076   24.632566 H          1 MOL1         0.0948
      19    H13     19.431310   17.994309   24.131870 H          1 MOL1         0.0948
      20    C7      19.864442   19.115838   25.937530 C.3        1 MOL1         0.1162
      21    H14     20.686874   19.730107   26.316861 H          1 MOL1         0.0910
      22    C8      19.655649   17.938596   26.903280 C.3        1 MOL1        -0.2491
      23    H15     18.836350   17.290365   26.567906 H          1 MOL1         0.0959
      24    H16     20.565022   17.329250   26.977341 H          1 MOL1         0.0959
      25    H17     19.414891   18.300612   27.910439 H          1 MOL1         0.0959
      26    N1      18.644799   19.995823   25.906899 N.4        1 MOL1        -0.5987
      27    H18     17.826917   19.487377   25.560603 H          1 MOL1         0.3605
      28    H19     18.785285   20.807164   25.298929 H          1 MOL1         0.3605
      29    H20     18.414733   20.348234   26.840466 H          1 MOL1         0.3605
@<TRIPOS>BOND
    1     1     2    1
    2     1     3    1
    3     1     4    1
    4     1     5    1
    5     5     6    1
    6     5     7    1
    7     5     8    1
    8     8     9    1
    9     8    10    1
   10     8    11    1
   11    11    12    1
   12    11    13    1
   13    11    14    1
   14    14    15    1
   15    14    16    1
   16    14    17    1
   17    17    18    1
   18    17    19    1
   19    17    20    1
   20    20    21    1
   21    20    22    1
   22    22    23    1
   23    22    24    1
   24    22    25    1
   25    20    26    1
   26    26    27    1
   27    26    28    1
   28    26    29    1
@<TRIPOS>SUBSTRUCTURE
       1 MOL1            1 RESIDUE      1      MOL     
@<SCITEGIC>MOL_PROPERTY
VM2 Rank
SciTegic.value.IntegerValue
60

@<SCITEGIC>MOL_PROPERTY
Conf_Id
SciTegic.value.IntegerValue
1112

@<SCITEGIC>MOL_PROPERTY
Probability
SciTegic.value.DoubleValue
0.38

@<SCITEGIC>MOL_PROPERTY
Sum Probability
SciTegic.value.DoubleValue
95.16

@<SCITEGIC>MOL_PROPERTY
Delta G
SciTegic.value.DoubleValue
1.971

@<SCITEGIC>MOL_PROPERTY
G
SciTegic.value.DoubleValue
35.673

@<SCITEGIC>MOL_PROPERTY
E
SciTegic.value.DoubleValue
-2.498

@<SCITEGIC>MOL_PROPERTY
-TS
SciTegic.value.DoubleValue
38.171

@<SCITEGIC>MOL_PROPERTY
U+W
SciTegic.value.DoubleValue
-26.643

@<SCITEGIC>MOL_PROPERTY
U
SciTegic.value.DoubleValue
26.016

@<SCITEGIC>MOL_PROPERTY
W
SciTegic.value.DoubleValue
-52.658

@<SCITEGIC>MOL_PROPERTY
W(PB)
SciTegic.value.DoubleValue
-55.102

@<SCITEGIC>MOL_PROPERTY
W(SA)
SciTegic.value.DoubleValue
2.443

@<SCITEGIC>MOL_PROPERTY
Valence
SciTegic.value.DoubleValue
4.552

@<SCITEGIC>MOL_PROPERTY
Coulomb
SciTegic.value.DoubleValue
20.496

@<SCITEGIC>MOL_PROPERTY
VdW
SciTegic.value.DoubleValue
0.968

@<SCITEGIC>MOL_PROPERTY
VdW6
SciTegic.value.DoubleValue
-10.659

@<SCITEGIC>MOL_PROPERTY
VdW12
SciTegic.value.DoubleValue
11.627

@<SCITEGIC>MOL_PROPERTY
Bond
SciTegic.value.DoubleValue
0.311

@<SCITEGIC>MOL_PROPERTY
Angle
SciTegic.value.DoubleValue
1.812

@<SCITEGIC>MOL_PROPERTY
Pdih
SciTegic.value.DoubleValue
2.428

@<SCITEGIC>MOL_PROPERTY
Idih
SciTegic.value.DoubleValue
0.000

@<SCITEGIC>MOL_PROPERTY
Tether
SciTegic.value.DoubleValue
0.000

@<TRIPOS>MOLECULE
guest-s15_vm2.mol2 : vm2 ligand conformer 61
          29          28           1
SMALL
USER_CHARGES
 
@<TRIPOS>ATOM
       1    C1      19.090516   19.173606   19.307326 C.3        1 MOL1        -0.2426
       2    H1      19.346053   19.193219   18.239971 H          1 MOL1         0.0959
       3    H2      18.843232   18.137006   19.567112 H          1 MOL1         0.0959
       4    H3      18.191952   19.788142   19.448543 H          1 MOL1         0.0959
       5    C2      20.267889   19.707639   20.154425 C.3        1 MOL1        -0.1410
       6    H4      20.559167   20.694923   19.769454 H          1 MOL1         0.0948
       7    H5      21.143447   19.056460   20.023743 H          1 MOL1         0.0948
       8    C3      19.935299   19.842231   21.660244 C.3        1 MOL1        -0.1435
       9    H6      20.775337   20.353547   22.146912 H          1 MOL1         0.0948
      10    H7      19.060173   20.494549   21.785154 H          1 MOL1         0.0948
      11    C4      19.678885   18.482454   22.358786 C.3        1 MOL1        -0.1435
      12    H8      20.555177   17.831039   22.237392 H          1 MOL1         0.0948
      13    H9      18.843549   17.971391   21.863194 H          1 MOL1         0.0948
      14    C5      19.332283   18.612461   23.862695 C.3        1 MOL1        -0.1435
      15    H10     18.465299   19.276447   23.977143 H          1 MOL1         0.0948
      16    H11     19.015659   17.624417   24.220546 H          1 MOL1         0.0948
      17    C6      20.516730   19.121849   24.729303 C.3        1 MOL1        -0.1500
      18    H12     20.812496   20.124258   24.397584 H          1 MOL1         0.0948
      19    H13     21.390746   18.477794   24.565496 H          1 MOL1         0.0948
      20    C7      20.228225   19.192294   26.247650 C.3        1 MOL1         0.1162
      21    H14     21.115617   19.617413   26.726787 H          1 MOL1         0.0910
      22    C8      19.993534   17.800514   26.860556 C.3        1 MOL1        -0.2491
      23    H15     19.059221   17.351091   26.504206 H          1 MOL1         0.0959
      24    H16     20.818793   17.121209   26.613470 H          1 MOL1         0.0959
      25    H17     19.935479   17.868687   27.953798 H          1 MOL1         0.0959
      26    N1      19.092639   20.122952   26.573017 N.4        1 MOL1        -0.5987
      27    H18     19.263094   21.064720   26.208800 H          1 MOL1         0.3605
      28    H19     18.954678   20.205665   27.584331 H          1 MOL1         0.3605
      29    H20     18.213622   19.790200   26.169043 H          1 MOL1         0.3605
@<TRIPOS>BOND
    1     1     2    1
    2     1     3    1
    3     1     4    1
    4     1     5    1
    5     5     6    1
    6     5     7    1
    7     5     8    1
    8     8     9    1
    9     8    10    1
   10     8    11    1
   11    11    12    1
   12    11    13    1
   13    11    14    1
   14    14    15    1
   15    14    16    1
   16    14    17    1
   17    17    18    1
   18    17    19    1
   19    17    20    1
   20    20    21    1
   21    20    22    1
   22    22    23    1
   23    22    24    1
   24    22    25    1
   25    20    26    1
   26    26    27    1
   27    26    28    1
   28    26    29    1
@<TRIPOS>SUBSTRUCTURE
       1 MOL1            1 RESIDUE      1      MOL     
@<SCITEGIC>MOL_PROPERTY
VM2 Rank
SciTegic.value.IntegerValue
61

@<SCITEGIC>MOL_PROPERTY
Conf_Id
SciTegic.value.IntegerValue
517

@<SCITEGIC>MOL_PROPERTY
Probability
SciTegic.value.DoubleValue
0.38

@<SCITEGIC>MOL_PROPERTY
Sum Probability
SciTegic.value.DoubleValue
95.54

@<SCITEGIC>MOL_PROPERTY
Delta G
SciTegic.value.DoubleValue
1.975

@<SCITEGIC>MOL_PROPERTY
G
SciTegic.value.DoubleValue
35.677

@<SCITEGIC>MOL_PROPERTY
E
SciTegic.value.DoubleValue
-1.953

@<SCITEGIC>MOL_PROPERTY
-TS
SciTegic.value.DoubleValue
37.630

@<SCITEGIC>MOL_PROPERTY
U+W
SciTegic.value.DoubleValue
-26.098

@<SCITEGIC>MOL_PROPERTY
U
SciTegic.value.DoubleValue
26.189

@<SCITEGIC>MOL_PROPERTY
W
SciTegic.value.DoubleValue
-52.286

@<SCITEGIC>MOL_PROPERTY
W(PB)
SciTegic.value.DoubleValue
-54.796

@<SCITEGIC>MOL_PROPERTY
W(SA)
SciTegic.value.DoubleValue
2.510

@<SCITEGIC>MOL_PROPERTY
Valence
SciTegic.value.DoubleValue
4.871

@<SCITEGIC>MOL_PROPERTY
Coulomb
SciTegic.value.DoubleValue
19.831

@<SCITEGIC>MOL_PROPERTY
VdW
SciTegic.value.DoubleValue
1.487

@<SCITEGIC>MOL_PROPERTY
VdW6
SciTegic.value.DoubleValue
-9.787

@<SCITEGIC>MOL_PROPERTY
VdW12
SciTegic.value.DoubleValue
11.273

@<SCITEGIC>MOL_PROPERTY
Bond
SciTegic.value.DoubleValue
0.320

@<SCITEGIC>MOL_PROPERTY
Angle
SciTegic.value.DoubleValue
1.789

@<SCITEGIC>MOL_PROPERTY
Pdih
SciTegic.value.DoubleValue
2.762

@<SCITEGIC>MOL_PROPERTY
Idih
SciTegic.value.DoubleValue
0.000

@<SCITEGIC>MOL_PROPERTY
Tether
SciTegic.value.DoubleValue
0.000

@<TRIPOS>MOLECULE
guest-s15_vm2.mol2 : vm2 ligand conformer 62
          29          28           1
SMALL
USER_CHARGES
 
@<TRIPOS>ATOM
       1    C1      21.173184   20.043502   20.770802 C.3        1 MOL1        -0.2426
       2    H1      20.789223   21.023706   20.459807 H          1 MOL1         0.0959
       3    H2      21.440180   20.099771   21.833139 H          1 MOL1         0.0959
       4    H3      22.095427   19.849666   20.208013 H          1 MOL1         0.0959
       5    C2      20.133753   18.931013   20.506159 C.3        1 MOL1        -0.1410
       6    H4      20.531669   17.964138   20.841949 H          1 MOL1         0.0948
       7    H5      19.987736   18.834952   19.421229 H          1 MOL1         0.0948
       8    C3      18.757949   19.203239   21.166051 C.3        1 MOL1        -0.1435
       9    H6      18.329157   20.115533   20.729073 H          1 MOL1         0.0948
      10    H7      18.069656   18.389807   20.898316 H          1 MOL1         0.0948
      11    C4      18.783223   19.355072   22.708660 C.3        1 MOL1        -0.1435
      12    H8      17.761049   19.566077   23.051740 H          1 MOL1         0.0948
      13    H9      19.381954   20.233370   22.981418 H          1 MOL1         0.0948
      14    C5      19.311424   18.096949   23.442492 C.3        1 MOL1        -0.1435
      15    H10     18.756998   17.216384   23.090108 H          1 MOL1         0.0948
      16    H11     20.361928   17.918421   23.181018 H          1 MOL1         0.0948
      17    C6      19.164834   18.186523   24.983276 C.3        1 MOL1        -0.1500
      18    H12     19.542290   17.258700   25.433176 H          1 MOL1         0.0948
      19    H13     18.095243   18.229882   25.227537 H          1 MOL1         0.0948
      20    C7      19.872419   19.396474   25.637693 C.3        1 MOL1         0.1162
      21    H14     19.488933   20.311595   25.177002 H          1 MOL1         0.0910
      22    C8      21.397760   19.352247   25.437771 C.3        1 MOL1        -0.2491
      23    H15     21.823435   18.423944   25.838625 H          1 MOL1         0.0959
      24    H16     21.662251   19.421104   24.376399 H          1 MOL1         0.0959
      25    H17     21.879097   20.195657   25.947908 H          1 MOL1         0.0959
      26    N1      19.541454   19.490980   27.101095 N.4        1 MOL1        -0.5987
      27    H18     18.531674   19.564389   27.255415 H          1 MOL1         0.3605
      28    H19     19.975940   20.312783   27.530653 H          1 MOL1         0.3605
      29    H20     19.871815   18.668379   27.612868 H          1 MOL1         0.3605
@<TRIPOS>BOND
    1     1     2    1
    2     1     3    1
    3     1     4    1
    4     1     5    1
    5     5     6    1
    6     5     7    1
    7     5     8    1
    8     8     9    1
    9     8    10    1
   10     8    11    1
   11    11    12    1
   12    11    13    1
   13    11    14    1
   14    14    15    1
   15    14    16    1
   16    14    17    1
   17    17    18    1
   18    17    19    1
   19    17    20    1
   20    20    21    1
   21    20    22    1
   22    22    23    1
   23    22    24    1
   24    22    25    1
   25    20    26    1
   26    26    27    1
   27    26    28    1
   28    26    29    1
@<TRIPOS>SUBSTRUCTURE
       1 MOL1            1 RESIDUE      1      MOL     
@<SCITEGIC>MOL_PROPERTY
VM2 Rank
SciTegic.value.IntegerValue
62

@<SCITEGIC>MOL_PROPERTY
Conf_Id
SciTegic.value.IntegerValue
207

@<SCITEGIC>MOL_PROPERTY
Probability
SciTegic.value.DoubleValue
0.36

@<SCITEGIC>MOL_PROPERTY
Sum Probability
SciTegic.value.DoubleValue
95.90

@<SCITEGIC>MOL_PROPERTY
Delta G
SciTegic.value.DoubleValue
2.003

@<SCITEGIC>MOL_PROPERTY
G
SciTegic.value.DoubleValue
35.706

@<SCITEGIC>MOL_PROPERTY
E
SciTegic.value.DoubleValue
-2.507

@<SCITEGIC>MOL_PROPERTY
-TS
SciTegic.value.DoubleValue
38.213

@<SCITEGIC>MOL_PROPERTY
U+W
SciTegic.value.DoubleValue
-26.652

@<SCITEGIC>MOL_PROPERTY
U
SciTegic.value.DoubleValue
25.905

@<SCITEGIC>MOL_PROPERTY
W
SciTegic.value.DoubleValue
-52.556

@<SCITEGIC>MOL_PROPERTY
W(PB)
SciTegic.value.DoubleValue
-54.967

@<SCITEGIC>MOL_PROPERTY
W(SA)
SciTegic.value.DoubleValue
2.411

@<SCITEGIC>MOL_PROPERTY
Valence
SciTegic.value.DoubleValue
4.893

@<SCITEGIC>MOL_PROPERTY
Coulomb
SciTegic.value.DoubleValue
20.129

@<SCITEGIC>MOL_PROPERTY
VdW
SciTegic.value.DoubleValue
0.883

@<SCITEGIC>MOL_PROPERTY
VdW6
SciTegic.value.DoubleValue
-10.962

@<SCITEGIC>MOL_PROPERTY
VdW12
SciTegic.value.DoubleValue
11.845

@<SCITEGIC>MOL_PROPERTY
Bond
SciTegic.value.DoubleValue
0.307

@<SCITEGIC>MOL_PROPERTY
Angle
SciTegic.value.DoubleValue
2.003

@<SCITEGIC>MOL_PROPERTY
Pdih
SciTegic.value.DoubleValue
2.583

@<SCITEGIC>MOL_PROPERTY
Idih
SciTegic.value.DoubleValue
0.000

@<SCITEGIC>MOL_PROPERTY
Tether
SciTegic.value.DoubleValue
0.000

@<TRIPOS>MOLECULE
guest-s15_vm2.mol2 : vm2 ligand conformer 63
          29          28           1
SMALL
USER_CHARGES
 
@<TRIPOS>ATOM
       1    C1      20.368171   20.735039   20.617466 C.3        1 MOL1        -0.2426
       2    H1      19.915268   21.474338   21.290759 H          1 MOL1         0.0959
       3    H2      21.352009   20.461479   21.018320 H          1 MOL1         0.0959
       4    H3      20.530956   21.220457   19.646500 H          1 MOL1         0.0959
       5    C2      19.456445   19.497443   20.457046 C.3        1 MOL1        -0.1410
       6    H4      19.943733   18.761099   19.802800 H          1 MOL1         0.0948
       7    H5      18.533366   19.801484   19.944010 H          1 MOL1         0.0948
       8    C3      19.080977   18.834672   21.803961 C.3        1 MOL1        -0.1435
       9    H6      18.575341   19.574592   22.438144 H          1 MOL1         0.0948
      10    H7      18.349119   18.038391   21.610623 H          1 MOL1         0.0948
      11    C4      20.297346   18.232624   22.551262 C.3        1 MOL1        -0.1435
      12    H8      20.998895   19.028092   22.832438 H          1 MOL1         0.0948
      13    H9      20.846168   17.571226   21.866906 H          1 MOL1         0.0948
      14    C5      19.904201   17.417882   23.810295 C.3        1 MOL1        -0.1435
      15    H10     19.293676   16.557373   23.503930 H          1 MOL1         0.0948
      16    H11     20.812486   16.990469   24.255641 H          1 MOL1         0.0948
      17    C6      19.128155   18.220826   24.888749 C.3        1 MOL1        -0.1500
      18    H12     18.961227   17.575885   25.761584 H          1 MOL1         0.0948
      19    H13     18.130163   18.460396   24.500183 H          1 MOL1         0.0948
      20    C7      19.814168   19.529801   25.344525 C.3        1 MOL1         0.1162
      21    H14     19.987097   20.153135   24.462106 H          1 MOL1         0.0910
      22    C8      21.167632   19.263266   26.026725 C.3        1 MOL1        -0.2491
      23    H15     21.618967   20.202186   26.370197 H          1 MOL1         0.0959
      24    H16     21.050449   18.603767   26.895603 H          1 MOL1         0.0959
      25    H17     21.876892   18.795292   25.334164 H          1 MOL1         0.0959
      26    N1      18.918904   20.324448   26.253970 N.4        1 MOL1        -0.5987
      27    H18     19.354600   21.209960   26.527277 H          1 MOL1         0.3605
      28    H19     18.708321   19.809981   27.113456 H          1 MOL1         0.3605
      29    H20     18.027164   20.549482   25.803565 H          1 MOL1         0.3605
@<TRIPOS>BOND
    1     1     2    1
    2     1     3    1
    3     1     4    1
    4     1     5    1
    5     5     6    1
    6     5     7    1
    7     5     8    1
    8     8     9    1
    9     8    10    1
   10     8    11    1
   11    11    12    1
   12    11    13    1
   13    11    14    1
   14    14    15    1
   15    14    16    1
   16    14    17    1
   17    17    18    1
   18    17    19    1
   19    17    20    1
   20    20    21    1
   21    20    22    1
   22    22    23    1
   23    22    24    1
   24    22    25    1
   25    20    26    1
   26    26    27    1
   27    26    28    1
   28    26    29    1
@<TRIPOS>SUBSTRUCTURE
       1 MOL1            1 RESIDUE      1      MOL     
@<SCITEGIC>MOL_PROPERTY
VM2 Rank
SciTegic.value.IntegerValue
63

@<SCITEGIC>MOL_PROPERTY
Conf_Id
SciTegic.value.IntegerValue
558

@<SCITEGIC>MOL_PROPERTY
Probability
SciTegic.value.DoubleValue
0.34

@<SCITEGIC>MOL_PROPERTY
Sum Probability
SciTegic.value.DoubleValue
96.24

@<SCITEGIC>MOL_PROPERTY
Delta G
SciTegic.value.DoubleValue
2.033

@<SCITEGIC>MOL_PROPERTY
G
SciTegic.value.DoubleValue
35.735

@<SCITEGIC>MOL_PROPERTY
E
SciTegic.value.DoubleValue
-2.372

@<SCITEGIC>MOL_PROPERTY
-TS
SciTegic.value.DoubleValue
38.107

@<SCITEGIC>MOL_PROPERTY
U+W
SciTegic.value.DoubleValue
-26.517

@<SCITEGIC>MOL_PROPERTY
U
SciTegic.value.DoubleValue
26.272

@<SCITEGIC>MOL_PROPERTY
W
SciTegic.value.DoubleValue
-52.789

@<SCITEGIC>MOL_PROPERTY
W(PB)
SciTegic.value.DoubleValue
-55.205

@<SCITEGIC>MOL_PROPERTY
W(SA)
SciTegic.value.DoubleValue
2.416

@<SCITEGIC>MOL_PROPERTY
Valence
SciTegic.value.DoubleValue
4.866

@<SCITEGIC>MOL_PROPERTY
Coulomb
SciTegic.value.DoubleValue
20.503

@<SCITEGIC>MOL_PROPERTY
VdW
SciTegic.value.DoubleValue
0.903

@<SCITEGIC>MOL_PROPERTY
VdW6
SciTegic.value.DoubleValue
-10.948

@<SCITEGIC>MOL_PROPERTY
VdW12
SciTegic.value.DoubleValue
11.850

@<SCITEGIC>MOL_PROPERTY
Bond
SciTegic.value.DoubleValue
0.308

@<SCITEGIC>MOL_PROPERTY
Angle
SciTegic.value.DoubleValue
1.874

@<SCITEGIC>MOL_PROPERTY
Pdih
SciTegic.value.DoubleValue
2.685

@<SCITEGIC>MOL_PROPERTY
Idih
SciTegic.value.DoubleValue
0.000

@<SCITEGIC>MOL_PROPERTY
Tether
SciTegic.value.DoubleValue
0.000

@<TRIPOS>MOLECULE
guest-s15_vm2.mol2 : vm2 ligand conformer 64
          29          28           1
SMALL
USER_CHARGES
 
@<TRIPOS>ATOM
       1    C1      19.321793   20.643677   19.937616 C.3        1 MOL1        -0.2426
       2    H1      18.387105   21.178708   19.725246 H          1 MOL1         0.0959
       3    H2      20.074007   21.384873   20.237627 H          1 MOL1         0.0959
       4    H3      19.659119   20.171887   19.005506 H          1 MOL1         0.0959
       5    C2      19.107526   19.591747   21.046309 C.3        1 MOL1        -0.1410
       6    H4      18.329990   18.882157   20.730849 H          1 MOL1         0.0948
       7    H5      18.733451   20.095646   21.947295 H          1 MOL1         0.0948
       8    C3      20.413263   18.826976   21.366560 C.3        1 MOL1        -0.1435
       9    H6      20.810612   18.395929   20.437321 H          1 MOL1         0.0948
      10    H7      21.178181   19.529991   21.721485 H          1 MOL1         0.0948
      11    C4      20.226671   17.680008   22.393492 C.3        1 MOL1        -0.1435
      12    H8      21.193275   17.179246   22.541978 H          1 MOL1         0.0948
      13    H9      19.560136   16.921717   21.960007 H          1 MOL1         0.0948
      14    C5      19.663098   18.104433   23.774538 C.3        1 MOL1        -0.1435
      15    H10     18.645309   18.495650   23.652681 H          1 MOL1         0.0948
      16    H11     19.568335   17.199780   24.388627 H          1 MOL1         0.0948
      17    C6      20.553222   19.142135   24.511543 C.3        1 MOL1        -0.1500
      18    H12     20.624515   20.056961   23.910598 H          1 MOL1         0.0948
      19    H13     21.576039   18.751253   24.592415 H          1 MOL1         0.0948
      20    C7      20.058018   19.539125   25.922319 C.3        1 MOL1         0.1162
      21    H14     20.739742   20.306992   26.300979 H          1 MOL1         0.0910
      22    C8      20.099065   18.357454   26.906991 C.3        1 MOL1        -0.2491
      23    H15     21.092973   17.893145   26.917895 H          1 MOL1         0.0959
      24    H16     19.881523   18.700572   27.925879 H          1 MOL1         0.0959
      25    H17     19.362210   17.587555   26.649640 H          1 MOL1         0.0959
      26    N1      18.693346   20.170445   25.894634 N.4        1 MOL1        -0.5987
      27    H18     17.986625   19.510418   25.560808 H          1 MOL1         0.3605
      28    H19     18.670244   20.987441   25.277778 H          1 MOL1         0.3605
      29    H20     18.406906   20.482181   26.827072 H          1 MOL1         0.3605
@<TRIPOS>BOND
    1     1     2    1
    2     1     3    1
    3     1     4    1
    4     1     5    1
    5     5     6    1
    6     5     7    1
    7     5     8    1
    8     8     9    1
    9     8    10    1
   10     8    11    1
   11    11    12    1
   12    11    13    1
   13    11    14    1
   14    14    15    1
   15    14    16    1
   16    14    17    1
   17    17    18    1
   18    17    19    1
   19    17    20    1
   20    20    21    1
   21    20    22    1
   22    22    23    1
   23    22    24    1
   24    22    25    1
   25    20    26    1
   26    26    27    1
   27    26    28    1
   28    26    29    1
@<TRIPOS>SUBSTRUCTURE
       1 MOL1            1 RESIDUE      1      MOL     
@<SCITEGIC>MOL_PROPERTY
VM2 Rank
SciTegic.value.IntegerValue
64

@<SCITEGIC>MOL_PROPERTY
Conf_Id
SciTegic.value.IntegerValue
1376

@<SCITEGIC>MOL_PROPERTY
Probability
SciTegic.value.DoubleValue
0.33

@<SCITEGIC>MOL_PROPERTY
Sum Probability
SciTegic.value.DoubleValue
96.57

@<SCITEGIC>MOL_PROPERTY
Delta G
SciTegic.value.DoubleValue
2.045

@<SCITEGIC>MOL_PROPERTY
G
SciTegic.value.DoubleValue
35.747

@<SCITEGIC>MOL_PROPERTY
E
SciTegic.value.DoubleValue
-2.214

@<SCITEGIC>MOL_PROPERTY
-TS
SciTegic.value.DoubleValue
37.961

@<SCITEGIC>MOL_PROPERTY
U+W
SciTegic.value.DoubleValue
-26.359

@<SCITEGIC>MOL_PROPERTY
U
SciTegic.value.DoubleValue
26.386

@<SCITEGIC>MOL_PROPERTY
W
SciTegic.value.DoubleValue
-52.745

@<SCITEGIC>MOL_PROPERTY
W(PB)
SciTegic.value.DoubleValue
-55.195

@<SCITEGIC>MOL_PROPERTY
W(SA)
SciTegic.value.DoubleValue
2.450

@<SCITEGIC>MOL_PROPERTY
Valence
SciTegic.value.DoubleValue
4.726

@<SCITEGIC>MOL_PROPERTY
Coulomb
SciTegic.value.DoubleValue
20.483

@<SCITEGIC>MOL_PROPERTY
VdW
SciTegic.value.DoubleValue
1.177

@<SCITEGIC>MOL_PROPERTY
VdW6
SciTegic.value.DoubleValue
-10.349

@<SCITEGIC>MOL_PROPERTY
VdW12
SciTegic.value.DoubleValue
11.526

@<SCITEGIC>MOL_PROPERTY
Bond
SciTegic.value.DoubleValue
0.319

@<SCITEGIC>MOL_PROPERTY
Angle
SciTegic.value.DoubleValue
1.933

@<SCITEGIC>MOL_PROPERTY
Pdih
SciTegic.value.DoubleValue
2.474

@<SCITEGIC>MOL_PROPERTY
Idih
SciTegic.value.DoubleValue
0.000

@<SCITEGIC>MOL_PROPERTY
Tether
SciTegic.value.DoubleValue
0.000

@<TRIPOS>MOLECULE
guest-s15_vm2.mol2 : vm2 ligand conformer 65
          29          28           1
SMALL
USER_CHARGES
 
@<TRIPOS>ATOM
       1    C1      20.237120   19.531412   19.574008 C.3        1 MOL1        -0.2426
       2    H1      20.516070   20.231852   18.776205 H          1 MOL1         0.0959
       3    H2      21.131489   18.949417   19.828154 H          1 MOL1         0.0959
       4    H3      19.482561   18.844690   19.168955 H          1 MOL1         0.0959
       5    C2      19.689891   20.298368   20.799203 C.3        1 MOL1        -0.1410
       6    H4      18.879484   20.961839   20.466330 H          1 MOL1         0.0948
       7    H5      20.473685   20.951665   21.207327 H          1 MOL1         0.0948
       8    C3      19.145593   19.373500   21.914583 C.3        1 MOL1        -0.1435
       9    H6      18.663510   20.004825   22.671948 H          1 MOL1         0.0948
      10    H7      18.359029   18.726046   21.503376 H          1 MOL1         0.0948
      11    C4      20.240664   18.505190   22.584233 C.3        1 MOL1        -0.1435
      12    H8      21.032716   19.151806   22.984453 H          1 MOL1         0.0948
      13    H9      20.719969   17.873326   21.825555 H          1 MOL1         0.0948
      14    C5      19.697655   17.576802   23.701435 C.3        1 MOL1        -0.1435
      15    H10     18.977438   16.872760   23.262454 H          1 MOL1         0.0948
      16    H11     20.521850   16.956786   24.078701 H          1 MOL1         0.0948
      17    C6      19.018303   18.307756   24.890767 C.3        1 MOL1        -0.1500
      18    H12     18.742974   17.566775   25.652879 H          1 MOL1         0.0948
      19    H13     18.072277   18.743190   24.545035 H          1 MOL1         0.0948
      20    C7      19.871610   19.419203   25.545015 C.3        1 MOL1         0.1162
      21    H14     20.150667   20.139868   24.770552 H          1 MOL1         0.0910
      22    C8      21.158053   18.859869   26.177950 C.3        1 MOL1        -0.2491
      23    H15     20.929204   18.098293   26.933763 H          1 MOL1         0.0959
      24    H16     21.809388   18.407179   25.421282 H          1 MOL1         0.0959
      25    H17     21.729795   19.660368   26.663292 H          1 MOL1         0.0959
      26    N1      19.077111   20.183900   26.566805 N.4        1 MOL1        -0.5987
      27    H18     19.627122   20.945259   26.974831 H          1 MOL1         0.3605
      28    H19     18.776555   19.578641   27.335613 H          1 MOL1         0.3605
      29    H20     18.236531   20.600862   26.156575 H          1 MOL1         0.3605
@<TRIPOS>BOND
    1     1     2    1
    2     1     3    1
    3     1     4    1
    4     1     5    1
    5     5     6    1
    6     5     7    1
    7     5     8    1
    8     8     9    1
    9     8    10    1
   10     8    11    1
   11    11    12    1
   12    11    13    1
   13    11    14    1
   14    14    15    1
   15    14    16    1
   16    14    17    1
   17    17    18    1
   18    17    19    1
   19    17    20    1
   20    20    21    1
   21    20    22    1
   22    22    23    1
   23    22    24    1
   24    22    25    1
   25    20    26    1
   26    26    27    1
   27    26    28    1
   28    26    29    1
@<TRIPOS>SUBSTRUCTURE
       1 MOL1            1 RESIDUE      1      MOL     
@<SCITEGIC>MOL_PROPERTY
VM2 Rank
SciTegic.value.IntegerValue
65

@<SCITEGIC>MOL_PROPERTY
Conf_Id
SciTegic.value.IntegerValue
187

@<SCITEGIC>MOL_PROPERTY
Probability
SciTegic.value.DoubleValue
0.27

@<SCITEGIC>MOL_PROPERTY
Sum Probability
SciTegic.value.DoubleValue
96.84

@<SCITEGIC>MOL_PROPERTY
Delta G
SciTegic.value.DoubleValue
2.170

@<SCITEGIC>MOL_PROPERTY
G
SciTegic.value.DoubleValue
35.872

@<SCITEGIC>MOL_PROPERTY
E
SciTegic.value.DoubleValue
-2.189

@<SCITEGIC>MOL_PROPERTY
-TS
SciTegic.value.DoubleValue
38.061

@<SCITEGIC>MOL_PROPERTY
U+W
SciTegic.value.DoubleValue
-26.334

@<SCITEGIC>MOL_PROPERTY
U
SciTegic.value.DoubleValue
26.391

@<SCITEGIC>MOL_PROPERTY
W
SciTegic.value.DoubleValue
-52.725

@<SCITEGIC>MOL_PROPERTY
W(PB)
SciTegic.value.DoubleValue
-55.162

@<SCITEGIC>MOL_PROPERTY
W(SA)
SciTegic.value.DoubleValue
2.436

@<SCITEGIC>MOL_PROPERTY
Valence
SciTegic.value.DoubleValue
4.975

@<SCITEGIC>MOL_PROPERTY
Coulomb
SciTegic.value.DoubleValue
20.373

@<SCITEGIC>MOL_PROPERTY
VdW
SciTegic.value.DoubleValue
1.044

@<SCITEGIC>MOL_PROPERTY
VdW6
SciTegic.value.DoubleValue
-10.751

@<SCITEGIC>MOL_PROPERTY
VdW12
SciTegic.value.DoubleValue
11.795

@<SCITEGIC>MOL_PROPERTY
Bond
SciTegic.value.DoubleValue
0.316

@<SCITEGIC>MOL_PROPERTY
Angle
SciTegic.value.DoubleValue
1.996

@<SCITEGIC>MOL_PROPERTY
Pdih
SciTegic.value.DoubleValue
2.662

@<SCITEGIC>MOL_PROPERTY
Idih
SciTegic.value.DoubleValue
0.000

@<SCITEGIC>MOL_PROPERTY
Tether
SciTegic.value.DoubleValue
0.000

@<TRIPOS>MOLECULE
guest-s15_vm2.mol2 : vm2 ligand conformer 66
          29          28           1
SMALL
USER_CHARGES
 
@<TRIPOS>ATOM
       1    C1      18.946390   20.266579   19.913595 C.3        1 MOL1        -0.2426
       2    H1      18.408783   21.025469   20.496917 H          1 MOL1         0.0959
       3    H2      19.781059   20.759237   19.398021 H          1 MOL1         0.0959
       4    H3      18.259771   19.879635   19.149506 H          1 MOL1         0.0959
       5    C2      19.450829   19.124821   20.821113 C.3        1 MOL1        -0.1410
       6    H4      19.957252   18.367220   20.206974 H          1 MOL1         0.0948
       7    H5      18.587404   18.631861   21.287177 H          1 MOL1         0.0948
       8    C3      20.418697   19.646779   21.908704 C.3        1 MOL1        -0.1435
       9    H6      21.239706   20.191727   21.422779 H          1 MOL1         0.0948
      10    H7      19.903642   20.380438   22.542571 H          1 MOL1         0.0948
      11    C4      21.030107   18.522756   22.784236 C.3        1 MOL1        -0.1435
      12    H8      21.748438   18.970514   23.483955 H          1 MOL1         0.0948
      13    H9      21.621147   17.854671   22.142804 H          1 MOL1         0.0948
      14    C5      20.003709   17.669622   23.577172 C.3        1 MOL1        -0.1435
      15    H10     19.393953   17.085553   22.875260 H          1 MOL1         0.0948
      16    H11     20.548292   16.924828   24.172544 H          1 MOL1         0.0948
      17    C6      19.061137   18.482359   24.504690 C.3        1 MOL1        -0.1500
      18    H12     18.418068   17.785697   25.058510 H          1 MOL1         0.0948
      19    H13     18.385035   19.082120   23.882183 H          1 MOL1         0.0948
      20    C7      19.781297   19.417196   25.504113 C.3        1 MOL1         0.1162
      21    H14     20.433235   20.089377   24.938353 H          1 MOL1         0.0910
      22    C8      20.643615   18.632384   26.508507 C.3        1 MOL1        -0.2491
      23    H15     20.039029   17.909286   27.069955 H          1 MOL1         0.0959
      24    H16     21.447783   18.086763   26.001317 H          1 MOL1         0.0959
      25    H17     21.115293   19.313145   27.227764 H          1 MOL1         0.0959
      26    N1      18.800220   20.293505   26.231870 N.4        1 MOL1        -0.5987
      27    H18     18.243505   20.856909   25.582766 H          1 MOL1         0.3605
      28    H19     19.276352   20.940822   26.866649 H          1 MOL1         0.3605
      29    H20     18.149298   19.738461   26.793975 H          1 MOL1         0.3605
@<TRIPOS>BOND
    1     1     2    1
    2     1     3    1
    3     1     4    1
    4     1     5    1
    5     5     6    1
    6     5     7    1
    7     5     8    1
    8     8     9    1
    9     8    10    1
   10     8    11    1
   11    11    12    1
   12    11    13    1
   13    11    14    1
   14    14    15    1
   15    14    16    1
   16    14    17    1
   17    17    18    1
   18    17    19    1
   19    17    20    1
   20    20    21    1
   21    20    22    1
   22    22    23    1
   23    22    24    1
   24    22    25    1
   25    20    26    1
   26    26    27    1
   27    26    28    1
   28    26    29    1
@<TRIPOS>SUBSTRUCTURE
       1 MOL1            1 RESIDUE      1      MOL     
@<SCITEGIC>MOL_PROPERTY
VM2 Rank
SciTegic.value.IntegerValue
66

@<SCITEGIC>MOL_PROPERTY
Conf_Id
SciTegic.value.IntegerValue
173

@<SCITEGIC>MOL_PROPERTY
Probability
SciTegic.value.DoubleValue
0.27

@<SCITEGIC>MOL_PROPERTY
Sum Probability
SciTegic.value.DoubleValue
97.11

@<SCITEGIC>MOL_PROPERTY
Delta G
SciTegic.value.DoubleValue
2.177

@<SCITEGIC>MOL_PROPERTY
G
SciTegic.value.DoubleValue
35.879

@<SCITEGIC>MOL_PROPERTY
E
SciTegic.value.DoubleValue
-2.424

@<SCITEGIC>MOL_PROPERTY
-TS
SciTegic.value.DoubleValue
38.303

@<SCITEGIC>MOL_PROPERTY
U+W
SciTegic.value.DoubleValue
-26.569

@<SCITEGIC>MOL_PROPERTY
U
SciTegic.value.DoubleValue
26.205

@<SCITEGIC>MOL_PROPERTY
W
SciTegic.value.DoubleValue
-52.774

@<SCITEGIC>MOL_PROPERTY
W(PB)
SciTegic.value.DoubleValue
-55.195

@<SCITEGIC>MOL_PROPERTY
W(SA)
SciTegic.value.DoubleValue
2.421

@<SCITEGIC>MOL_PROPERTY
Valence
SciTegic.value.DoubleValue
4.871

@<SCITEGIC>MOL_PROPERTY
Coulomb
SciTegic.value.DoubleValue
20.549

@<SCITEGIC>MOL_PROPERTY
VdW
SciTegic.value.DoubleValue
0.785

@<SCITEGIC>MOL_PROPERTY
VdW6
SciTegic.value.DoubleValue
-11.159

@<SCITEGIC>MOL_PROPERTY
VdW12
SciTegic.value.DoubleValue
11.945

@<SCITEGIC>MOL_PROPERTY
Bond
SciTegic.value.DoubleValue
0.316

@<SCITEGIC>MOL_PROPERTY
Angle
SciTegic.value.DoubleValue
2.038

@<SCITEGIC>MOL_PROPERTY
Pdih
SciTegic.value.DoubleValue
2.517

@<SCITEGIC>MOL_PROPERTY
Idih
SciTegic.value.DoubleValue
0.000

@<SCITEGIC>MOL_PROPERTY
Tether
SciTegic.value.DoubleValue
0.000

@<TRIPOS>MOLECULE
guest-s15_vm2.mol2 : vm2 ligand conformer 67
          29          28           1
SMALL
USER_CHARGES
 
@<TRIPOS>ATOM
       1    C1      20.170189   18.186802   20.084748 C.3        1 MOL1        -0.2426
       2    H1      20.233387   18.858342   19.218744 H          1 MOL1         0.0959
       3    H2      21.142312   18.189268   20.593233 H          1 MOL1         0.0959
       4    H3      19.995121   17.170110   19.709927 H          1 MOL1         0.0959
       5    C2      19.032009   18.616195   21.037645 C.3        1 MOL1        -0.1410
       6    H4      18.996012   17.938493   21.901038 H          1 MOL1         0.0948
       7    H5      18.071148   18.494035   20.518652 H          1 MOL1         0.0948
       8    C3      19.152364   20.085820   21.514744 C.3        1 MOL1        -0.1435
       9    H6      19.082677   20.748333   20.641128 H          1 MOL1         0.0948
      10    H7      18.282633   20.330194   22.138895 H          1 MOL1         0.0948
      11    C4      20.454522   20.424440   22.289391 C.3        1 MOL1        -0.1435
      12    H8      20.416108   21.478619   22.596324 H          1 MOL1         0.0948
      13    H9      21.312359   20.347835   21.608112 H          1 MOL1         0.0948
      14    C5      20.725396   19.546886   23.538310 C.3        1 MOL1        -0.1435
      15    H10     20.877261   18.506211   23.225950 H          1 MOL1         0.0948
      16    H11     21.672630   19.870521   23.991260 H          1 MOL1         0.0948
      17    C6      19.602011   19.631803   24.603226 C.3        1 MOL1        -0.1500
      18    H12     18.672110   19.206708   24.204695 H          1 MOL1         0.0948
      19    H13     19.398321   20.690285   24.811924 H          1 MOL1         0.0948
      20    C7      19.955686   18.927899   25.932745 C.3        1 MOL1         0.1162
      21    H14     20.906019   19.333059   26.293727 H          1 MOL1         0.0910
      22    C8      20.108645   17.406199   25.758565 C.3        1 MOL1        -0.2491
      23    H15     19.197778   16.961253   25.338986 H          1 MOL1         0.0959
      24    H16     20.946952   17.162915   25.095638 H          1 MOL1         0.0959
      25    H17     20.308680   16.925118   26.723903 H          1 MOL1         0.0959
      26    N1      18.935178   19.229955   26.994625 N.4        1 MOL1        -0.5987
      27    H18     18.847694   20.237247   27.157654 H          1 MOL1         0.3605
      28    H19     19.186451   18.797621   27.888292 H          1 MOL1         0.3605
      29    H20     18.009630   18.878567   26.734721 H          1 MOL1         0.3605
@<TRIPOS>BOND
    1     1     2    1
    2     1     3    1
    3     1     4    1
    4     1     5    1
    5     5     6    1
    6     5     7    1
    7     5     8    1
    8     8     9    1
    9     8    10    1
   10     8    11    1
   11    11    12    1
   12    11    13    1
   13    11    14    1
   14    14    15    1
   15    14    16    1
   16    14    17    1
   17    17    18    1
   18    17    19    1
   19    17    20    1
   20    20    21    1
   21    20    22    1
   22    22    23    1
   23    22    24    1
   24    22    25    1
   25    20    26    1
   26    26    27    1
   27    26    28    1
   28    26    29    1
@<TRIPOS>SUBSTRUCTURE
       1 MOL1            1 RESIDUE      1      MOL     
@<SCITEGIC>MOL_PROPERTY
VM2 Rank
SciTegic.value.IntegerValue
67

@<SCITEGIC>MOL_PROPERTY
Conf_Id
SciTegic.value.IntegerValue
1264

@<SCITEGIC>MOL_PROPERTY
Probability
SciTegic.value.DoubleValue
0.26

@<SCITEGIC>MOL_PROPERTY
Sum Probability
SciTegic.value.DoubleValue
97.38

@<SCITEGIC>MOL_PROPERTY
Delta G
SciTegic.value.DoubleValue
2.186

@<SCITEGIC>MOL_PROPERTY
G
SciTegic.value.DoubleValue
35.888

@<SCITEGIC>MOL_PROPERTY
E
SciTegic.value.DoubleValue
-2.307

@<SCITEGIC>MOL_PROPERTY
-TS
SciTegic.value.DoubleValue
38.195

@<SCITEGIC>MOL_PROPERTY
U+W
SciTegic.value.DoubleValue
-26.451

@<SCITEGIC>MOL_PROPERTY
U
SciTegic.value.DoubleValue
26.060

@<SCITEGIC>MOL_PROPERTY
W
SciTegic.value.DoubleValue
-52.511

@<SCITEGIC>MOL_PROPERTY
W(PB)
SciTegic.value.DoubleValue
-54.927

@<SCITEGIC>MOL_PROPERTY
W(SA)
SciTegic.value.DoubleValue
2.416

@<SCITEGIC>MOL_PROPERTY
Valence
SciTegic.value.DoubleValue
5.062

@<SCITEGIC>MOL_PROPERTY
Coulomb
SciTegic.value.DoubleValue
19.918

@<SCITEGIC>MOL_PROPERTY
VdW
SciTegic.value.DoubleValue
1.080

@<SCITEGIC>MOL_PROPERTY
VdW6
SciTegic.value.DoubleValue
-10.857

@<SCITEGIC>MOL_PROPERTY
VdW12
SciTegic.value.DoubleValue
11.937

@<SCITEGIC>MOL_PROPERTY
Bond
SciTegic.value.DoubleValue
0.323

@<SCITEGIC>MOL_PROPERTY
Angle
SciTegic.value.DoubleValue
2.057

@<SCITEGIC>MOL_PROPERTY
Pdih
SciTegic.value.DoubleValue
2.682

@<SCITEGIC>MOL_PROPERTY
Idih
SciTegic.value.DoubleValue
0.000

@<SCITEGIC>MOL_PROPERTY
Tether
SciTegic.value.DoubleValue
0.000

@<TRIPOS>MOLECULE
guest-s15_vm2.mol2 : vm2 ligand conformer 68
          29          28           1
SMALL
USER_CHARGES
 
@<TRIPOS>ATOM
       1    C1      18.968477   18.329144   20.195069 C.3        1 MOL1        -0.2426
       2    H1      18.918720   19.023708   19.346529 H          1 MOL1         0.0959
       3    H2      18.875195   17.309060   19.800705 H          1 MOL1         0.0959
       4    H3      18.102087   18.514447   20.842073 H          1 MOL1         0.0959
       5    C2      20.296815   18.491777   20.967670 C.3        1 MOL1        -0.1410
       6    H4      21.126362   18.192824   20.311923 H          1 MOL1         0.0948
       7    H5      20.319069   17.796258   21.817245 H          1 MOL1         0.0948
       8    C3      20.549924   19.941019   21.455018 C.3        1 MOL1        -0.1435
       9    H6      21.532824   19.986886   21.942228 H          1 MOL1         0.0948
      10    H7      20.625412   20.600506   20.579601 H          1 MOL1         0.0948
      11    C4      19.471186   20.513929   22.413504 C.3        1 MOL1        -0.1435
      12    H8      18.528265   20.637243   21.864311 H          1 MOL1         0.0948
      13    H9      19.771108   21.527251   22.713802 H          1 MOL1         0.0948
      14    C5      19.202590   19.671454   23.686955 C.3        1 MOL1        -0.1435
      15    H10     18.409615   20.167651   24.261332 H          1 MOL1         0.0948
      16    H11     18.801278   18.692077   23.398014 H          1 MOL1         0.0948
      17    C6      20.459093   19.495296   24.582344 C.3        1 MOL1        -0.1500
      18    H12     20.890219   20.481856   24.796763 H          1 MOL1         0.0948
      19    H13     21.229550   18.940335   24.032689 H          1 MOL1         0.0948
      20    C7      20.203555   18.768827   25.923743 C.3        1 MOL1         0.1162
      21    H14     21.157348   18.729632   26.458987 H          1 MOL1         0.0910
      22    C8      19.727551   17.320762   25.714109 C.3        1 MOL1        -0.2491
      23    H15     18.727719   17.283446   25.265547 H          1 MOL1         0.0959
      24    H16     20.418550   16.773964   25.060571 H          1 MOL1         0.0959
      25    H17     19.684754   16.788691   26.672359 H          1 MOL1         0.0959
      26    N1      19.256809   19.523792   26.815588 N.4        1 MOL1        -0.5987
      27    H18     19.588932   20.475749   26.994870 H          1 MOL1         0.3605
      28    H19     19.148212   19.061219   27.722687 H          1 MOL1         0.3605
      29    H20     18.327498   19.595535   26.394100 H          1 MOL1         0.3605
@<TRIPOS>BOND
    1     1     2    1
    2     1     3    1
    3     1     4    1
    4     1     5    1
    5     5     6    1
    6     5     7    1
    7     5     8    1
    8     8     9    1
    9     8    10    1
   10     8    11    1
   11    11    12    1
   12    11    13    1
   13    11    14    1
   14    14    15    1
   15    14    16    1
   16    14    17    1
   17    17    18    1
   18    17    19    1
   19    17    20    1
   20    20    21    1
   21    20    22    1
   22    22    23    1
   23    22    24    1
   24    22    25    1
   25    20    26    1
   26    26    27    1
   27    26    28    1
   28    26    29    1
@<TRIPOS>SUBSTRUCTURE
       1 MOL1            1 RESIDUE      1      MOL     
@<SCITEGIC>MOL_PROPERTY
VM2 Rank
SciTegic.value.IntegerValue
68

@<SCITEGIC>MOL_PROPERTY
Conf_Id
SciTegic.value.IntegerValue
1194

@<SCITEGIC>MOL_PROPERTY
Probability
SciTegic.value.DoubleValue
0.22

@<SCITEGIC>MOL_PROPERTY
Sum Probability
SciTegic.value.DoubleValue
97.60

@<SCITEGIC>MOL_PROPERTY
Delta G
SciTegic.value.DoubleValue
2.284

@<SCITEGIC>MOL_PROPERTY
G
SciTegic.value.DoubleValue
35.986

@<SCITEGIC>MOL_PROPERTY
E
SciTegic.value.DoubleValue
-2.343

@<SCITEGIC>MOL_PROPERTY
-TS
SciTegic.value.DoubleValue
38.329

@<SCITEGIC>MOL_PROPERTY
U+W
SciTegic.value.DoubleValue
-26.488

@<SCITEGIC>MOL_PROPERTY
U
SciTegic.value.DoubleValue
26.082

@<SCITEGIC>MOL_PROPERTY
W
SciTegic.value.DoubleValue
-52.570

@<SCITEGIC>MOL_PROPERTY
W(PB)
SciTegic.value.DoubleValue
-54.967

@<SCITEGIC>MOL_PROPERTY
W(SA)
SciTegic.value.DoubleValue
2.396

@<SCITEGIC>MOL_PROPERTY
Valence
SciTegic.value.DoubleValue
5.054

@<SCITEGIC>MOL_PROPERTY
Coulomb
SciTegic.value.DoubleValue
19.931

@<SCITEGIC>MOL_PROPERTY
VdW
SciTegic.value.DoubleValue
1.097

@<SCITEGIC>MOL_PROPERTY
VdW6
SciTegic.value.DoubleValue
-11.342

@<SCITEGIC>MOL_PROPERTY
VdW12
SciTegic.value.DoubleValue
12.440

@<SCITEGIC>MOL_PROPERTY
Bond
SciTegic.value.DoubleValue
0.355

@<SCITEGIC>MOL_PROPERTY
Angle
SciTegic.value.DoubleValue
2.147

@<SCITEGIC>MOL_PROPERTY
Pdih
SciTegic.value.DoubleValue
2.552

@<SCITEGIC>MOL_PROPERTY
Idih
SciTegic.value.DoubleValue
0.000

@<SCITEGIC>MOL_PROPERTY
Tether
SciTegic.value.DoubleValue
0.000

@<TRIPOS>MOLECULE
guest-s15_vm2.mol2 : vm2 ligand conformer 69
          29          28           1
SMALL
USER_CHARGES
 
@<TRIPOS>ATOM
       1    C1      20.501399   20.129849   20.075066 C.3        1 MOL1        -0.2426
       2    H1      20.668202   21.161885   19.740582 H          1 MOL1         0.0959
       3    H2      21.406489   19.801985   20.601300 H          1 MOL1         0.0959
       4    H3      20.376529   19.503041   19.182630 H          1 MOL1         0.0959
       5    C2      19.256461   20.050556   20.987082 C.3        1 MOL1        -0.1410
       6    H4      18.399750   20.486960   20.454978 H          1 MOL1         0.0948
       7    H5      19.408168   20.675751   21.877089 H          1 MOL1         0.0948
       8    C3      18.893323   18.603147   21.404983 C.3        1 MOL1        -0.1435
       9    H6      17.970345   18.623789   21.999157 H          1 MOL1         0.0948
      10    H7      18.647355   18.026160   20.502991 H          1 MOL1         0.0948
      11    C4      19.997853   17.844712   22.189666 C.3        1 MOL1        -0.1435
      12    H8      20.850525   17.660004   21.522716 H          1 MOL1         0.0948
      13    H9      19.616143   16.850734   22.460390 H          1 MOL1         0.0948
      14    C5      20.510933   18.551171   23.471394 C.3        1 MOL1        -0.1435
      15    H10     21.307908   17.929095   23.898053 H          1 MOL1         0.0948
      16    H11     20.980757   19.508273   23.209171 H          1 MOL1         0.0948
      17    C6      19.406240   18.782860   24.534769 C.3        1 MOL1        -0.1500
      18    H12     18.952933   17.822472   24.813635 H          1 MOL1         0.0948
      19    H13     18.606622   19.388501   24.091327 H          1 MOL1         0.0948
      20    C7      19.906558   19.510653   25.803602 C.3        1 MOL1         0.1162
      21    H14     20.405427   20.434588   25.495255 H          1 MOL1         0.0910
      22    C8      20.906891   18.660483   26.607468 C.3        1 MOL1        -0.2491
      23    H15     20.473019   17.690818   26.881709 H          1 MOL1         0.0959
      24    H16     21.825200   18.477964   26.037887 H          1 MOL1         0.0959
      25    H17     21.197003   19.176303   27.531113 H          1 MOL1         0.0959
      26    N1      18.756343   19.922571   26.679969 N.4        1 MOL1        -0.5987
      27    H18     18.098491   20.527355   26.179701 H          1 MOL1         0.3605
      28    H19     19.079732   20.439304   27.502836 H          1 MOL1         0.3605
      29    H20     18.232878   19.109687   27.016086 H          1 MOL1         0.3605
@<TRIPOS>BOND
    1     1     2    1
    2     1     3    1
    3     1     4    1
    4     1     5    1
    5     5     6    1
    6     5     7    1
    7     5     8    1
    8     8     9    1
    9     8    10    1
   10     8    11    1
   11    11    12    1
   12    11    13    1
   13    11    14    1
   14    14    15    1
   15    14    16    1
   16    14    17    1
   17    17    18    1
   18    17    19    1
   19    17    20    1
   20    20    21    1
   21    20    22    1
   22    22    23    1
   23    22    24    1
   24    22    25    1
   25    20    26    1
   26    26    27    1
   27    26    28    1
   28    26    29    1
@<TRIPOS>SUBSTRUCTURE
       1 MOL1            1 RESIDUE      1      MOL     
@<SCITEGIC>MOL_PROPERTY
VM2 Rank
SciTegic.value.IntegerValue
69

@<SCITEGIC>MOL_PROPERTY
Conf_Id
SciTegic.value.IntegerValue
575

@<SCITEGIC>MOL_PROPERTY
Probability
SciTegic.value.DoubleValue
0.19

@<SCITEGIC>MOL_PROPERTY
Sum Probability
SciTegic.value.DoubleValue
97.79

@<SCITEGIC>MOL_PROPERTY
Delta G
SciTegic.value.DoubleValue
2.388

@<SCITEGIC>MOL_PROPERTY
G
SciTegic.value.DoubleValue
36.091

@<SCITEGIC>MOL_PROPERTY
E
SciTegic.value.DoubleValue
-2.047

@<SCITEGIC>MOL_PROPERTY
-TS
SciTegic.value.DoubleValue
38.138

@<SCITEGIC>MOL_PROPERTY
U+W
SciTegic.value.DoubleValue
-26.192

@<SCITEGIC>MOL_PROPERTY
U
SciTegic.value.DoubleValue
26.466

@<SCITEGIC>MOL_PROPERTY
W
SciTegic.value.DoubleValue
-52.658

@<SCITEGIC>MOL_PROPERTY
W(PB)
SciTegic.value.DoubleValue
-55.088

@<SCITEGIC>MOL_PROPERTY
W(SA)
SciTegic.value.DoubleValue
2.430

@<SCITEGIC>MOL_PROPERTY
Valence
SciTegic.value.DoubleValue
5.199

@<SCITEGIC>MOL_PROPERTY
Coulomb
SciTegic.value.DoubleValue
20.030

@<SCITEGIC>MOL_PROPERTY
VdW
SciTegic.value.DoubleValue
1.237

@<SCITEGIC>MOL_PROPERTY
VdW6
SciTegic.value.DoubleValue
-10.692

@<SCITEGIC>MOL_PROPERTY
VdW12
SciTegic.value.DoubleValue
11.929

@<SCITEGIC>MOL_PROPERTY
Bond
SciTegic.value.DoubleValue
0.334

@<SCITEGIC>MOL_PROPERTY
Angle
SciTegic.value.DoubleValue
2.222

@<SCITEGIC>MOL_PROPERTY
Pdih
SciTegic.value.DoubleValue
2.643

@<SCITEGIC>MOL_PROPERTY
Idih
SciTegic.value.DoubleValue
0.000

@<SCITEGIC>MOL_PROPERTY
Tether
SciTegic.value.DoubleValue
0.000

@<TRIPOS>MOLECULE
guest-s15_vm2.mol2 : vm2 ligand conformer 70
          29          28           1
SMALL
USER_CHARGES
 
@<TRIPOS>ATOM
       1    C1      19.366613   19.196525   19.787954 C.3        1 MOL1        -0.2426
       2    H1      18.378362   19.431740   20.202219 H          1 MOL1         0.0959
       3    H2      19.774006   20.107681   19.331071 H          1 MOL1         0.0959
       4    H3      19.223443   18.455637   18.990839 H          1 MOL1         0.0959
       5    C2      20.318859   18.646630   20.873609 C.3        1 MOL1        -0.1410
       6    H4      21.252286   18.321554   20.393435 H          1 MOL1         0.0948
       7    H5      19.883131   17.745897   21.325936 H          1 MOL1         0.0948
       8    C3      20.663815   19.684910   21.971203 C.3        1 MOL1        -0.1435
       9    H6      21.389743   19.241539   22.665510 H          1 MOL1         0.0948
      10    H7      21.182881   20.533322   21.504586 H          1 MOL1         0.0948
      11    C4      19.448752   20.227306   22.770617 C.3        1 MOL1        -0.1435
      12    H8      18.800415   20.803549   22.097316 H          1 MOL1         0.0948
      13    H9      19.811246   20.952229   23.511349 H          1 MOL1         0.0948
      14    C5      18.593639   19.145249   23.483122 C.3        1 MOL1        -0.1435
      15    H10     17.773227   19.639992   24.019768 H          1 MOL1         0.0948
      16    H11     18.106409   18.511663   22.730157 H          1 MOL1         0.0948
      17    C6      19.380742   18.240002   24.467717 C.3        1 MOL1        -0.1500
      18    H12     20.088004   17.621374   23.900712 H          1 MOL1         0.0948
      19    H13     18.682644   17.538959   24.944000 H          1 MOL1         0.0948
      20    C7      20.149985   19.016365   25.559101 C.3        1 MOL1         0.1162
      21    H14     20.839455   19.708852   25.067130 H          1 MOL1         0.0910
      22    C8      20.975387   18.050034   26.422972 C.3        1 MOL1        -0.2491
      23    H15     20.329244   17.332499   26.944063 H          1 MOL1         0.0959
      24    H16     21.685229   17.485294   25.805785 H          1 MOL1         0.0959
      25    H17     21.553146   18.599671   27.176268 H          1 MOL1         0.0959
      26    N1      19.238208   19.848979   26.417707 N.4        1 MOL1        -0.5987
      27    H18     18.707082   20.518044   25.853781 H          1 MOL1         0.3605
      28    H19     19.763962   20.382263   27.116053 H          1 MOL1         0.3605
      29    H20     18.564277   19.265188   26.920093 H          1 MOL1         0.3605
@<TRIPOS>BOND
    1     1     2    1
    2     1     3    1
    3     1     4    1
    4     1     5    1
    5     5     6    1
    6     5     7    1
    7     5     8    1
    8     8     9    1
    9     8    10    1
   10     8    11    1
   11    11    12    1
   12    11    13    1
   13    11    14    1
   14    14    15    1
   15    14    16    1
   16    14    17    1
   17    17    18    1
   18    17    19    1
   19    17    20    1
   20    20    21    1
   21    20    22    1
   22    22    23    1
   23    22    24    1
   24    22    25    1
   25    20    26    1
   26    26    27    1
   27    26    28    1
   28    26    29    1
@<TRIPOS>SUBSTRUCTURE
       1 MOL1            1 RESIDUE      1      MOL     
@<SCITEGIC>MOL_PROPERTY
VM2 Rank
SciTegic.value.IntegerValue
70

@<SCITEGIC>MOL_PROPERTY
Conf_Id
SciTegic.value.IntegerValue
181

@<SCITEGIC>MOL_PROPERTY
Probability
SciTegic.value.DoubleValue
0.17

@<SCITEGIC>MOL_PROPERTY
Sum Probability
SciTegic.value.DoubleValue
97.96

@<SCITEGIC>MOL_PROPERTY
Delta G
SciTegic.value.DoubleValue
2.438

@<SCITEGIC>MOL_PROPERTY
G
SciTegic.value.DoubleValue
36.140

@<SCITEGIC>MOL_PROPERTY
E
SciTegic.value.DoubleValue
-2.351

@<SCITEGIC>MOL_PROPERTY
-TS
SciTegic.value.DoubleValue
38.490

@<SCITEGIC>MOL_PROPERTY
U+W
SciTegic.value.DoubleValue
-26.495

@<SCITEGIC>MOL_PROPERTY
U
SciTegic.value.DoubleValue
25.928

@<SCITEGIC>MOL_PROPERTY
W
SciTegic.value.DoubleValue
-52.423

@<SCITEGIC>MOL_PROPERTY
W(PB)
SciTegic.value.DoubleValue
-54.828

@<SCITEGIC>MOL_PROPERTY
W(SA)
SciTegic.value.DoubleValue
2.405

@<SCITEGIC>MOL_PROPERTY
Valence
SciTegic.value.DoubleValue
4.806

@<SCITEGIC>MOL_PROPERTY
Coulomb
SciTegic.value.DoubleValue
20.407

@<SCITEGIC>MOL_PROPERTY
VdW
SciTegic.value.DoubleValue
0.715

@<SCITEGIC>MOL_PROPERTY
VdW6
SciTegic.value.DoubleValue
-11.781

@<SCITEGIC>MOL_PROPERTY
VdW12
SciTegic.value.DoubleValue
12.496

@<SCITEGIC>MOL_PROPERTY
Bond
SciTegic.value.DoubleValue
0.347

@<SCITEGIC>MOL_PROPERTY
Angle
SciTegic.value.DoubleValue
2.053

@<SCITEGIC>MOL_PROPERTY
Pdih
SciTegic.value.DoubleValue
2.406

@<SCITEGIC>MOL_PROPERTY
Idih
SciTegic.value.DoubleValue
0.000

@<SCITEGIC>MOL_PROPERTY
Tether
SciTegic.value.DoubleValue
0.000

@<TRIPOS>MOLECULE
guest-s15_vm2.mol2 : vm2 ligand conformer 71
          29          28           1
SMALL
USER_CHARGES
 
@<TRIPOS>ATOM
       1    C1      19.203696   20.870103   20.911174 C.3        1 MOL1        -0.2426
       2    H1      18.347275   21.372298   20.442960 H          1 MOL1         0.0959
       3    H2      19.132400   21.034996   21.992924 H          1 MOL1         0.0959
       4    H3      20.118170   21.357070   20.548419 H          1 MOL1         0.0959
       5    C2      19.203024   19.363918   20.565339 C.3        1 MOL1        -0.1410
       6    H4      19.159146   19.252773   19.472930 H          1 MOL1         0.0948
       7    H5      18.288204   18.894677   20.951082 H          1 MOL1         0.0948
       8    C3      20.453574   18.611132   21.086728 C.3        1 MOL1        -0.1435
       9    H6      20.395472   17.562268   20.764827 H          1 MOL1         0.0948
      10    H7      21.346284   19.025969   20.598786 H          1 MOL1         0.0948
      11    C4      20.659870   18.656552   22.622476 C.3        1 MOL1        -0.1435
      12    H8      20.825363   19.693728   22.940087 H          1 MOL1         0.0948
      13    H9      21.585404   18.115347   22.862447 H          1 MOL1         0.0948
      14    C5      19.488974   18.028254   23.419323 C.3        1 MOL1        -0.1435
      15    H10     18.568024   18.601844   23.255668 H          1 MOL1         0.0948
      16    H11     19.292624   17.018931   23.032326 H          1 MOL1         0.0948
      17    C6      19.775290   17.926213   24.939217 C.3        1 MOL1        -0.1500
      18    H12     20.639654   17.266432   25.092527 H          1 MOL1         0.0948
      19    H13     18.924885   17.436637   25.432136 H          1 MOL1         0.0948
      20    C7      20.050271   19.284280   25.622809 C.3        1 MOL1         0.1162
      21    H14     20.907784   19.751291   25.129532 H          1 MOL1         0.0910
      22    C8      20.404419   19.076079   27.103627 C.3        1 MOL1        -0.2491
      23    H15     20.638426   20.033536   27.585183 H          1 MOL1         0.0959
      24    H16     19.572940   18.612949   27.649581 H          1 MOL1         0.0959
      25    H17     21.283762   18.428055   27.206387 H          1 MOL1         0.0959
      26    N1      18.896882   20.239469   25.483307 N.4        1 MOL1        -0.5987
      27    H18     18.054309   19.873061   25.934395 H          1 MOL1         0.3605
      28    H19     18.672707   20.408133   24.499030 H          1 MOL1         0.3605
      29    H20     19.106399   21.145022   25.913236 H          1 MOL1         0.3605
@<TRIPOS>BOND
    1     1     2    1
    2     1     3    1
    3     1     4    1
    4     1     5    1
    5     5     6    1
    6     5     7    1
    7     5     8    1
    8     8     9    1
    9     8    10    1
   10     8    11    1
   11    11    12    1
   12    11    13    1
   13    11    14    1
   14    14    15    1
   15    14    16    1
   16    14    17    1
   17    17    18    1
   18    17    19    1
   19    17    20    1
   20    20    21    1
   21    20    22    1
   22    22    23    1
   23    22    24    1
   24    22    25    1
   25    20    26    1
   26    26    27    1
   27    26    28    1
   28    26    29    1
@<TRIPOS>SUBSTRUCTURE
       1 MOL1            1 RESIDUE      1      MOL     
@<SCITEGIC>MOL_PROPERTY
VM2 Rank
SciTegic.value.IntegerValue
71

@<SCITEGIC>MOL_PROPERTY
Conf_Id
SciTegic.value.IntegerValue
1594

@<SCITEGIC>MOL_PROPERTY
Probability
SciTegic.value.DoubleValue
0.17

@<SCITEGIC>MOL_PROPERTY
Sum Probability
SciTegic.value.DoubleValue
98.13

@<SCITEGIC>MOL_PROPERTY
Delta G
SciTegic.value.DoubleValue
2.465

@<SCITEGIC>MOL_PROPERTY
G
SciTegic.value.DoubleValue
36.167

@<SCITEGIC>MOL_PROPERTY
E
SciTegic.value.DoubleValue
-1.826

@<SCITEGIC>MOL_PROPERTY
-TS
SciTegic.value.DoubleValue
37.992

@<SCITEGIC>MOL_PROPERTY
U+W
SciTegic.value.DoubleValue
-25.970

@<SCITEGIC>MOL_PROPERTY
U
SciTegic.value.DoubleValue
26.280

@<SCITEGIC>MOL_PROPERTY
W
SciTegic.value.DoubleValue
-52.250

@<SCITEGIC>MOL_PROPERTY
W(PB)
SciTegic.value.DoubleValue
-54.673

@<SCITEGIC>MOL_PROPERTY
W(SA)
SciTegic.value.DoubleValue
2.423

@<SCITEGIC>MOL_PROPERTY
Valence
SciTegic.value.DoubleValue
4.388

@<SCITEGIC>MOL_PROPERTY
Coulomb
SciTegic.value.DoubleValue
21.060

@<SCITEGIC>MOL_PROPERTY
VdW
SciTegic.value.DoubleValue
0.832

@<SCITEGIC>MOL_PROPERTY
VdW6
SciTegic.value.DoubleValue
-10.644

@<SCITEGIC>MOL_PROPERTY
VdW12
SciTegic.value.DoubleValue
11.476

@<SCITEGIC>MOL_PROPERTY
Bond
SciTegic.value.DoubleValue
0.296

@<SCITEGIC>MOL_PROPERTY
Angle
SciTegic.value.DoubleValue
1.681

@<SCITEGIC>MOL_PROPERTY
Pdih
SciTegic.value.DoubleValue
2.411

@<SCITEGIC>MOL_PROPERTY
Idih
SciTegic.value.DoubleValue
0.000

@<SCITEGIC>MOL_PROPERTY
Tether
SciTegic.value.DoubleValue
0.000

@<TRIPOS>MOLECULE
guest-s15_vm2.mol2 : vm2 ligand conformer 72
          29          28           1
SMALL
USER_CHARGES
 
@<TRIPOS>ATOM
       1    C1      19.310537   19.982270   19.002522 C.3        1 MOL1        -0.2426
       2    H1      18.468666   19.910744   18.301677 H          1 MOL1         0.0959
       3    H2      19.569980   21.043521   19.110623 H          1 MOL1         0.0959
       4    H3      20.168105   19.464605   18.553240 H          1 MOL1         0.0959
       5    C2      18.939308   19.360514   20.365394 C.3        1 MOL1        -0.1410
       6    H4      18.652529   18.309474   20.220553 H          1 MOL1         0.0948
       7    H5      18.058714   19.876238   20.773357 H          1 MOL1         0.0948
       8    C3      20.108376   19.448245   21.371248 C.3        1 MOL1        -0.1435
       9    H6      20.986693   18.934304   20.956692 H          1 MOL1         0.0948
      10    H7      20.392717   20.500378   21.511235 H          1 MOL1         0.0948
      11    C4      19.741283   18.825791   22.737213 C.3        1 MOL1        -0.1435
      12    H8      19.462300   17.772794   22.592979 H          1 MOL1         0.0948
      13    H9      18.855697   19.334884   23.132722 H          1 MOL1         0.0948
      14    C5      20.918571   18.913262   23.739680 C.3        1 MOL1        -0.1435
      15    H10     21.786460   18.412408   23.288555 H          1 MOL1         0.0948
      16    H11     21.217411   19.960053   23.889524 H          1 MOL1         0.0948
      17    C6      20.634045   18.242462   25.109561 C.3        1 MOL1        -0.1500
      18    H12     21.596025   17.910250   25.522301 H          1 MOL1         0.0948
      19    H13     20.035750   17.332037   24.972056 H          1 MOL1         0.0948
      20    C7      19.971038   19.170710   26.154235 C.3        1 MOL1         0.1162
      21    H14     20.591551   20.066329   26.256169 H          1 MOL1         0.0910
      22    C8      19.910746   18.471648   27.522011 C.3        1 MOL1        -0.2491
      23    H15     19.297851   17.562674   27.476324 H          1 MOL1         0.0959
      24    H16     20.915301   18.189690   27.861297 H          1 MOL1         0.0959
      25    H17     19.479203   19.137141   28.279854 H          1 MOL1         0.0959
      26    N1      18.602096   19.641096   25.752137 N.4        1 MOL1        -0.5987
      27    H18     18.635826   20.163577   24.872940 H          1 MOL1         0.3605
      28    H19     18.195599   20.257915   26.461347 H          1 MOL1         0.3605
      29    H20     17.960759   18.853931   25.623827 H          1 MOL1         0.3605
@<TRIPOS>BOND
    1     1     2    1
    2     1     3    1
    3     1     4    1
    4     1     5    1
    5     5     6    1
    6     5     7    1
    7     5     8    1
    8     8     9    1
    9     8    10    1
   10     8    11    1
   11    11    12    1
   12    11    13    1
   13    11    14    1
   14    14    15    1
   15    14    16    1
   16    14    17    1
   17    17    18    1
   18    17    19    1
   19    17    20    1
   20    20    21    1
   21    20    22    1
   22    22    23    1
   23    22    24    1
   24    22    25    1
   25    20    26    1
   26    26    27    1
   27    26    28    1
   28    26    29    1
@<TRIPOS>SUBSTRUCTURE
       1 MOL1            1 RESIDUE      1      MOL     
@<SCITEGIC>MOL_PROPERTY
VM2 Rank
SciTegic.value.IntegerValue
72

@<SCITEGIC>MOL_PROPERTY
Conf_Id
SciTegic.value.IntegerValue
1144

@<SCITEGIC>MOL_PROPERTY
Probability
SciTegic.value.DoubleValue
0.13

@<SCITEGIC>MOL_PROPERTY
Sum Probability
SciTegic.value.DoubleValue
98.26

@<SCITEGIC>MOL_PROPERTY
Delta G
SciTegic.value.DoubleValue
2.611

@<SCITEGIC>MOL_PROPERTY
G
SciTegic.value.DoubleValue
36.313

@<SCITEGIC>MOL_PROPERTY
E
SciTegic.value.DoubleValue
-0.878

@<SCITEGIC>MOL_PROPERTY
-TS
SciTegic.value.DoubleValue
37.191

@<SCITEGIC>MOL_PROPERTY
U+W
SciTegic.value.DoubleValue
-25.022

@<SCITEGIC>MOL_PROPERTY
U
SciTegic.value.DoubleValue
27.084

@<SCITEGIC>MOL_PROPERTY
W
SciTegic.value.DoubleValue
-52.106

@<SCITEGIC>MOL_PROPERTY
W(PB)
SciTegic.value.DoubleValue
-54.623

@<SCITEGIC>MOL_PROPERTY
W(SA)
SciTegic.value.DoubleValue
2.517

@<SCITEGIC>MOL_PROPERTY
Valence
SciTegic.value.DoubleValue
5.155

@<SCITEGIC>MOL_PROPERTY
Coulomb
SciTegic.value.DoubleValue
20.852

@<SCITEGIC>MOL_PROPERTY
VdW
SciTegic.value.DoubleValue
1.077

@<SCITEGIC>MOL_PROPERTY
VdW6
SciTegic.value.DoubleValue
-8.818

@<SCITEGIC>MOL_PROPERTY
VdW12
SciTegic.value.DoubleValue
9.895

@<SCITEGIC>MOL_PROPERTY
Bond
SciTegic.value.DoubleValue
0.258

@<SCITEGIC>MOL_PROPERTY
Angle
SciTegic.value.DoubleValue
1.437

@<SCITEGIC>MOL_PROPERTY
Pdih
SciTegic.value.DoubleValue
3.461

@<SCITEGIC>MOL_PROPERTY
Idih
SciTegic.value.DoubleValue
0.000

@<SCITEGIC>MOL_PROPERTY
Tether
SciTegic.value.DoubleValue
0.000

@<TRIPOS>MOLECULE
guest-s15_vm2.mol2 : vm2 ligand conformer 73
          29          28           1
SMALL
USER_CHARGES
 
@<TRIPOS>ATOM
       1    C1      19.633527   18.983405   19.766722 C.3        1 MOL1        -0.2426
       2    H1      20.026612   18.006920   20.075819 H          1 MOL1         0.0959
       3    H2      18.856745   18.803629   19.012339 H          1 MOL1         0.0959
       4    H3      20.445329   19.544844   19.286432 H          1 MOL1         0.0959
       5    C2      19.052537   19.764907   20.966528 C.3        1 MOL1        -0.1410
       6    H4      18.254487   19.177148   21.439203 H          1 MOL1         0.0948
       7    H5      18.572286   20.680069   20.593218 H          1 MOL1         0.0948
       8    C3      20.120870   20.161195   22.016927 C.3        1 MOL1        -0.1435
       9    H6      20.855101   20.825572   21.541045 H          1 MOL1         0.0948
      10    H7      19.643273   20.763639   22.800790 H          1 MOL1         0.0948
      11    C4      20.877927   18.972498   22.667695 C.3        1 MOL1        -0.1435
      12    H8      21.606904   19.370358   23.386105 H          1 MOL1         0.0948
      13    H9      21.477264   18.461871   21.902390 H          1 MOL1         0.0948
      14    C5      19.976204   17.926767   23.376604 C.3        1 MOL1        -0.1435
      15    H10     19.350086   17.419703   22.630595 H          1 MOL1         0.0948
      16    H11     20.613343   17.139455   23.800641 H          1 MOL1         0.0948
      17    C6      19.061828   18.506094   24.489116 C.3        1 MOL1        -0.1500
      18    H12     18.507691   17.683171   24.959533 H          1 MOL1         0.0948
      19    H13     18.304076   19.149057   24.023836 H          1 MOL1         0.0948
      20    C7      19.799721   19.314891   25.581250 C.3        1 MOL1         0.1162
      21    H14     20.361414   20.117789   25.094681 H          1 MOL1         0.0910
      22    C8      20.786378   18.442328   26.377167 C.3        1 MOL1        -0.2491
      23    H15     20.274770   17.593021   26.846794 H          1 MOL1         0.0959
      24    H16     21.580738   18.050123   25.731566 H          1 MOL1         0.0959
      25    H17     21.269623   19.028640   27.168339 H          1 MOL1         0.0959
      26    N1      18.827007   19.983914   26.511990 N.4        1 MOL1        -0.5987
      27    H18     18.186540   20.603249   26.007106 H          1 MOL1         0.3605
      28    H19     19.310905   20.551774   27.213440 H          1 MOL1         0.3605
      29    H20     18.258582   19.297010   27.014754 H          1 MOL1         0.3605
@<TRIPOS>BOND
    1     1     2    1
    2     1     3    1
    3     1     4    1
    4     1     5    1
    5     5     6    1
    6     5     7    1
    7     5     8    1
    8     8     9    1
    9     8    10    1
   10     8    11    1
   11    11    12    1
   12    11    13    1
   13    11    14    1
   14    14    15    1
   15    14    16    1
   16    14    17    1
   17    17    18    1
   18    17    19    1
   19    17    20    1
   20    20    21    1
   21    20    22    1
   22    22    23    1
   23    22    24    1
   24    22    25    1
   25    20    26    1
   26    26    27    1
   27    26    28    1
   28    26    29    1
@<TRIPOS>SUBSTRUCTURE
       1 MOL1            1 RESIDUE      1      MOL     
@<SCITEGIC>MOL_PROPERTY
VM2 Rank
SciTegic.value.IntegerValue
73

@<SCITEGIC>MOL_PROPERTY
Conf_Id
SciTegic.value.IntegerValue
1050

@<SCITEGIC>MOL_PROPERTY
Probability
SciTegic.value.DoubleValue
0.10

@<SCITEGIC>MOL_PROPERTY
Sum Probability
SciTegic.value.DoubleValue
98.36

@<SCITEGIC>MOL_PROPERTY
Delta G
SciTegic.value.DoubleValue
2.766

@<SCITEGIC>MOL_PROPERTY
G
SciTegic.value.DoubleValue
36.468

@<SCITEGIC>MOL_PROPERTY
E
SciTegic.value.DoubleValue
-2.128

@<SCITEGIC>MOL_PROPERTY
-TS
SciTegic.value.DoubleValue
38.595

@<SCITEGIC>MOL_PROPERTY
U+W
SciTegic.value.DoubleValue
-26.272

@<SCITEGIC>MOL_PROPERTY
U
SciTegic.value.DoubleValue
26.596

@<SCITEGIC>MOL_PROPERTY
W
SciTegic.value.DoubleValue
-52.868

@<SCITEGIC>MOL_PROPERTY
W(PB)
SciTegic.value.DoubleValue
-55.271

@<SCITEGIC>MOL_PROPERTY
W(SA)
SciTegic.value.DoubleValue
2.403

@<SCITEGIC>MOL_PROPERTY
Valence
SciTegic.value.DoubleValue
5.291

@<SCITEGIC>MOL_PROPERTY
Coulomb
SciTegic.value.DoubleValue
20.508

@<SCITEGIC>MOL_PROPERTY
VdW
SciTegic.value.DoubleValue
0.797

@<SCITEGIC>MOL_PROPERTY
VdW6
SciTegic.value.DoubleValue
-11.980

@<SCITEGIC>MOL_PROPERTY
VdW12
SciTegic.value.DoubleValue
12.776

@<SCITEGIC>MOL_PROPERTY
Bond
SciTegic.value.DoubleValue
0.357

@<SCITEGIC>MOL_PROPERTY
Angle
SciTegic.value.DoubleValue
2.346

@<SCITEGIC>MOL_PROPERTY
Pdih
SciTegic.value.DoubleValue
2.589

@<SCITEGIC>MOL_PROPERTY
Idih
SciTegic.value.DoubleValue
0.000

@<SCITEGIC>MOL_PROPERTY
Tether
SciTegic.value.DoubleValue
0.000

@<TRIPOS>MOLECULE
guest-s15_vm2.mol2 : vm2 ligand conformer 74
          29          28           1
SMALL
USER_CHARGES
 
@<TRIPOS>ATOM
       1    C1      18.497224   19.673778   20.313682 C.3        1 MOL1        -0.2426
       2    H1      17.928759   18.949892   20.910677 H          1 MOL1         0.0959
       3    H2      17.817419   20.495503   20.054020 H          1 MOL1         0.0959
       4    H3      18.804573   19.183902   19.380692 H          1 MOL1         0.0959
       5    C2      19.722376   20.208754   21.088710 C.3        1 MOL1        -0.1410
       6    H4      19.392210   20.684270   22.021765 H          1 MOL1         0.0948
       7    H5      20.195820   21.004205   20.496568 H          1 MOL1         0.0948
       8    C3      20.782465   19.118965   21.389014 C.3        1 MOL1        -0.1435
       9    H6      21.171510   18.732464   20.437048 H          1 MOL1         0.0948
      10    H7      21.641854   19.585072   21.888647 H          1 MOL1         0.0948
      11    C4      20.277369   17.921343   22.238282 C.3        1 MOL1        -0.1435
      12    H8      21.117958   17.235933   22.413145 H          1 MOL1         0.0948
      13    H9      19.546971   17.346859   21.653101 H          1 MOL1         0.0948
      14    C5      19.642132   18.294866   23.602502 C.3        1 MOL1        -0.1435
      15    H10     18.740823   18.897698   23.435345 H          1 MOL1         0.0948
      16    H11     19.302837   17.366350   24.079138 H          1 MOL1         0.0948
      17    C6      20.619096   19.039922   24.552500 C.3        1 MOL1        -0.1500
      18    H12     20.945253   19.976117   24.083289 H          1 MOL1         0.0948
      19    H13     21.526051   18.435939   24.687004 H          1 MOL1         0.0948
      20    C7      20.037792   19.383499   25.944273 C.3        1 MOL1         0.1162
      21    H14     20.805326   19.943998   26.486926 H          1 MOL1         0.0910
      22    C8      19.715778   18.123753   26.767011 C.3        1 MOL1        -0.2491
      23    H15     18.878996   17.560386   26.337622 H          1 MOL1         0.0959
      24    H16     20.587168   17.459369   26.820193 H          1 MOL1         0.0959
      25    H17     19.442838   18.396566   27.793781 H          1 MOL1         0.0959
      26    N1      18.841768   20.291121   25.858026 N.4        1 MOL1        -0.5987
      27    H18     19.061645   21.154687   25.353653 H          1 MOL1         0.3605
      28    H19     18.506269   20.556472   26.788453 H          1 MOL1         0.3605
      29    H20     18.066296   19.836382   25.369776 H          1 MOL1         0.3605
@<TRIPOS>BOND
    1     1     2    1
    2     1     3    1
    3     1     4    1
    4     1     5    1
    5     5     6    1
    6     5     7    1
    7     5     8    1
    8     8     9    1
    9     8    10    1
   10     8    11    1
   11    11    12    1
   12    11    13    1
   13    11    14    1
   14    14    15    1
   15    14    16    1
   16    14    17    1
   17    17    18    1
   18    17    19    1
   19    17    20    1
   20    20    21    1
   21    20    22    1
   22    22    23    1
   23    22    24    1
   24    22    25    1
   25    20    26    1
   26    26    27    1
   27    26    28    1
   28    26    29    1
@<TRIPOS>SUBSTRUCTURE
       1 MOL1            1 RESIDUE      1      MOL     
@<SCITEGIC>MOL_PROPERTY
VM2 Rank
SciTegic.value.IntegerValue
74

@<SCITEGIC>MOL_PROPERTY
Conf_Id
SciTegic.value.IntegerValue
1510

@<SCITEGIC>MOL_PROPERTY
Probability
SciTegic.value.DoubleValue
0.10

@<SCITEGIC>MOL_PROPERTY
Sum Probability
SciTegic.value.DoubleValue
98.45

@<SCITEGIC>MOL_PROPERTY
Delta G
SciTegic.value.DoubleValue
2.784

@<SCITEGIC>MOL_PROPERTY
G
SciTegic.value.DoubleValue
36.486

@<SCITEGIC>MOL_PROPERTY
E
SciTegic.value.DoubleValue
-1.810

@<SCITEGIC>MOL_PROPERTY
-TS
SciTegic.value.DoubleValue
38.296

@<SCITEGIC>MOL_PROPERTY
U+W
SciTegic.value.DoubleValue
-25.954

@<SCITEGIC>MOL_PROPERTY
U
SciTegic.value.DoubleValue
26.775

@<SCITEGIC>MOL_PROPERTY
W
SciTegic.value.DoubleValue
-52.729

@<SCITEGIC>MOL_PROPERTY
W(PB)
SciTegic.value.DoubleValue
-55.143

@<SCITEGIC>MOL_PROPERTY
W(SA)
SciTegic.value.DoubleValue
2.414

@<SCITEGIC>MOL_PROPERTY
Valence
SciTegic.value.DoubleValue
5.136

@<SCITEGIC>MOL_PROPERTY
Coulomb
SciTegic.value.DoubleValue
20.511

@<SCITEGIC>MOL_PROPERTY
VdW
SciTegic.value.DoubleValue
1.129

@<SCITEGIC>MOL_PROPERTY
VdW6
SciTegic.value.DoubleValue
-11.263

@<SCITEGIC>MOL_PROPERTY
VdW12
SciTegic.value.DoubleValue
12.391

@<SCITEGIC>MOL_PROPERTY
Bond
SciTegic.value.DoubleValue
0.358

@<SCITEGIC>MOL_PROPERTY
Angle
SciTegic.value.DoubleValue
2.222

@<SCITEGIC>MOL_PROPERTY
Pdih
SciTegic.value.DoubleValue
2.556

@<SCITEGIC>MOL_PROPERTY
Idih
SciTegic.value.DoubleValue
0.000

@<SCITEGIC>MOL_PROPERTY
Tether
SciTegic.value.DoubleValue
0.000

@<TRIPOS>MOLECULE
guest-s15_vm2.mol2 : vm2 ligand conformer 75
          29          28           1
SMALL
USER_CHARGES
 
@<TRIPOS>ATOM
       1    C1      19.428784   19.956247   19.004583 C.3        1 MOL1        -0.2426
       2    H1      20.331017   20.574390   18.909048 H          1 MOL1         0.0959
       3    H2      19.640120   18.972533   18.565379 H          1 MOL1         0.0959
       4    H3      18.633669   20.426419   18.411476 H          1 MOL1         0.0959
       5    C2      19.001109   19.823862   20.481529 C.3        1 MOL1        -0.1410
       6    H4      18.078681   19.229400   20.541952 H          1 MOL1         0.0948
       7    H5      18.764029   20.819227   20.882646 H          1 MOL1         0.0948
       8    C3      20.103782   19.164337   21.339028 C.3        1 MOL1        -0.1435
       9    H6      20.339311   18.171817   20.930535 H          1 MOL1         0.0948
      10    H7      21.024187   19.761185   21.274669 H          1 MOL1         0.0948
      11    C4      19.678640   19.028192   22.818505 C.3        1 MOL1        -0.1435
      12    H8      18.763939   18.422424   22.880574 H          1 MOL1         0.0948
      13    H9      19.441779   20.026449   23.206130 H          1 MOL1         0.0948
      14    C5      20.792292   18.381591   23.676240 C.3        1 MOL1        -0.1435
      15    H10     21.141114   17.469691   23.172031 H          1 MOL1         0.0948
      16    H11     21.659064   19.055607   23.719607 H          1 MOL1         0.0948
      17    C6      20.365575   17.995367   25.117050 C.3        1 MOL1        -0.1500
      18    H12     21.207663   17.452891   25.567304 H          1 MOL1         0.0948
      19    H13     19.532003   17.281305   25.086743 H          1 MOL1         0.0948
      20    C7      20.003784   19.190574   26.030366 C.3        1 MOL1         0.1162
      21    H14     20.704478   20.005981   25.826210 H          1 MOL1         0.0910
      22    C8      20.143073   18.795220   27.509769 C.3        1 MOL1        -0.2491
      23    H15     19.903439   19.643353   28.163021 H          1 MOL1         0.0959
      24    H16     19.470175   17.966593   27.763990 H          1 MOL1         0.0959
      25    H17     21.170387   18.483488   27.736145 H          1 MOL1         0.0959
      26    N1      18.618962   19.720609   25.776931 N.4        1 MOL1        -0.5987
      27    H18     18.418991   20.537879   26.360783 H          1 MOL1         0.3605
      28    H19     17.907730   19.014614   25.985007 H          1 MOL1         0.3605
      29    H20     18.498530   20.000721   24.800969 H          1 MOL1         0.3605
@<TRIPOS>BOND
    1     1     2    1
    2     1     3    1
    3     1     4    1
    4     1     5    1
    5     5     6    1
    6     5     7    1
    7     5     8    1
    8     8     9    1
    9     8    10    1
   10     8    11    1
   11    11    12    1
   12    11    13    1
   13    11    14    1
   14    14    15    1
   15    14    16    1
   16    14    17    1
   17    17    18    1
   18    17    19    1
   19    17    20    1
   20    20    21    1
   21    20    22    1
   22    22    23    1
   23    22    24    1
   24    22    25    1
   25    20    26    1
   26    26    27    1
   27    26    28    1
   28    26    29    1
@<TRIPOS>SUBSTRUCTURE
       1 MOL1            1 RESIDUE      1      MOL     
@<SCITEGIC>MOL_PROPERTY
VM2 Rank
SciTegic.value.IntegerValue
75

@<SCITEGIC>MOL_PROPERTY
Conf_Id
SciTegic.value.IntegerValue
648

@<SCITEGIC>MOL_PROPERTY
Probability
SciTegic.value.DoubleValue
0.08

@<SCITEGIC>MOL_PROPERTY
Sum Probability
SciTegic.value.DoubleValue
98.54

@<SCITEGIC>MOL_PROPERTY
Delta G
SciTegic.value.DoubleValue
2.890

@<SCITEGIC>MOL_PROPERTY
G
SciTegic.value.DoubleValue
36.592

@<SCITEGIC>MOL_PROPERTY
E
SciTegic.value.DoubleValue
-0.796

@<SCITEGIC>MOL_PROPERTY
-TS
SciTegic.value.DoubleValue
37.388

@<SCITEGIC>MOL_PROPERTY
U+W
SciTegic.value.DoubleValue
-24.940

@<SCITEGIC>MOL_PROPERTY
U
SciTegic.value.DoubleValue
27.200

@<SCITEGIC>MOL_PROPERTY
W
SciTegic.value.DoubleValue
-52.140

@<SCITEGIC>MOL_PROPERTY
W(PB)
SciTegic.value.DoubleValue
-54.644

@<SCITEGIC>MOL_PROPERTY
W(SA)
SciTegic.value.DoubleValue
2.504

@<SCITEGIC>MOL_PROPERTY
Valence
SciTegic.value.DoubleValue
4.958

@<SCITEGIC>MOL_PROPERTY
Coulomb
SciTegic.value.DoubleValue
21.196

@<SCITEGIC>MOL_PROPERTY
VdW
SciTegic.value.DoubleValue
1.046

@<SCITEGIC>MOL_PROPERTY
VdW6
SciTegic.value.DoubleValue
-9.034

@<SCITEGIC>MOL_PROPERTY
VdW12
SciTegic.value.DoubleValue
10.080

@<SCITEGIC>MOL_PROPERTY
Bond
SciTegic.value.DoubleValue
0.244

@<SCITEGIC>MOL_PROPERTY
Angle
SciTegic.value.DoubleValue
1.596

@<SCITEGIC>MOL_PROPERTY
Pdih
SciTegic.value.DoubleValue
3.118

@<SCITEGIC>MOL_PROPERTY
Idih
SciTegic.value.DoubleValue
0.000

@<SCITEGIC>MOL_PROPERTY
Tether
SciTegic.value.DoubleValue
0.000

@<TRIPOS>MOLECULE
guest-s15_vm2.mol2 : vm2 ligand conformer 76
          29          28           1
SMALL
USER_CHARGES
 
@<TRIPOS>ATOM
       1    C1      20.618108   20.659204   20.122586 C.3        1 MOL1        -0.2426
       2    H1      21.613019   20.712310   20.583634 H          1 MOL1         0.0959
       3    H2      20.748456   20.704939   19.033571 H          1 MOL1         0.0959
       4    H3      20.050097   21.546374   20.431674 H          1 MOL1         0.0959
       5    C2      19.886393   19.362762   20.529685 C.3        1 MOL1        -0.1410
       6    H4      20.461059   18.493918   20.179256 H          1 MOL1         0.0948
       7    H5      18.910560   19.322066   20.025742 H          1 MOL1         0.0948
       8    C3      19.688978   19.274714   22.059067 C.3        1 MOL1        -0.1435
       9    H6      20.672444   19.324546   22.543345 H          1 MOL1         0.0948
      10    H7      19.108576   20.141677   22.403309 H          1 MOL1         0.0948
      11    C4      18.971118   17.968436   22.471191 C.3        1 MOL1        -0.1435
      12    H8      19.616162   17.109838   22.238787 H          1 MOL1         0.0948
      13    H9      18.069614   17.847313   21.854727 H          1 MOL1         0.0948
      14    C5      18.545989   17.906508   23.961211 C.3        1 MOL1        -0.1435
      15    H10     17.804220   18.687570   24.171284 H          1 MOL1         0.0948
      16    H11     18.017996   16.954709   24.111759 H          1 MOL1         0.0948
      17    C6      19.717128   17.968077   24.979383 C.3        1 MOL1        -0.1500
      18    H12     20.567806   17.397700   24.583279 H          1 MOL1         0.0948
      19    H13     19.411552   17.451807   25.899185 H          1 MOL1         0.0948
      20    C7      20.172479   19.397567   25.354832 C.3        1 MOL1         0.1162
      21    H14     20.408728   19.947099   24.441134 H          1 MOL1         0.0910
      22    C8      21.441815   19.341831   26.219339 C.3        1 MOL1        -0.2491
      23    H15     22.254105   18.832163   25.686242 H          1 MOL1         0.0959
      24    H16     21.788882   20.352948   26.465497 H          1 MOL1         0.0959
      25    H17     21.259537   18.804674   27.158591 H          1 MOL1         0.0959
      26    N1      19.093992   20.176901   26.056706 N.4        1 MOL1        -0.5987
      27    H18     18.254637   20.259899   25.477067 H          1 MOL1         0.3605
      28    H19     19.405280   21.125617   26.283965 H          1 MOL1         0.3605
      29    H20     18.819612   19.726300   26.933760 H          1 MOL1         0.3605
@<TRIPOS>BOND
    1     1     2    1
    2     1     3    1
    3     1     4    1
    4     1     5    1
    5     5     6    1
    6     5     7    1
    7     5     8    1
    8     8     9    1
    9     8    10    1
   10     8    11    1
   11    11    12    1
   12    11    13    1
   13    11    14    1
   14    14    15    1
   15    14    16    1
   16    14    17    1
   17    17    18    1
   18    17    19    1
   19    17    20    1
   20    20    21    1
   21    20    22    1
   22    22    23    1
   23    22    24    1
   24    22    25    1
   25    20    26    1
   26    26    27    1
   27    26    28    1
   28    26    29    1
@<TRIPOS>SUBSTRUCTURE
       1 MOL1            1 RESIDUE      1      MOL     
@<SCITEGIC>MOL_PROPERTY
VM2 Rank
SciTegic.value.IntegerValue
76

@<SCITEGIC>MOL_PROPERTY
Conf_Id
SciTegic.value.IntegerValue
1170

@<SCITEGIC>MOL_PROPERTY
Probability
SciTegic.value.DoubleValue
0.06

@<SCITEGIC>MOL_PROPERTY
Sum Probability
SciTegic.value.DoubleValue
98.60

@<SCITEGIC>MOL_PROPERTY
Delta G
SciTegic.value.DoubleValue
3.025

@<SCITEGIC>MOL_PROPERTY
G
SciTegic.value.DoubleValue
36.728

@<SCITEGIC>MOL_PROPERTY
E
SciTegic.value.DoubleValue
-0.999

@<SCITEGIC>MOL_PROPERTY
-TS
SciTegic.value.DoubleValue
37.726

@<SCITEGIC>MOL_PROPERTY
U+W
SciTegic.value.DoubleValue
-25.143

@<SCITEGIC>MOL_PROPERTY
U
SciTegic.value.DoubleValue
27.273

@<SCITEGIC>MOL_PROPERTY
W
SciTegic.value.DoubleValue
-52.416

@<SCITEGIC>MOL_PROPERTY
W(PB)
SciTegic.value.DoubleValue
-54.885

@<SCITEGIC>MOL_PROPERTY
W(SA)
SciTegic.value.DoubleValue
2.468

@<SCITEGIC>MOL_PROPERTY
Valence
SciTegic.value.DoubleValue
5.665

@<SCITEGIC>MOL_PROPERTY
Coulomb
SciTegic.value.DoubleValue
20.783

@<SCITEGIC>MOL_PROPERTY
VdW
SciTegic.value.DoubleValue
0.825

@<SCITEGIC>MOL_PROPERTY
VdW6
SciTegic.value.DoubleValue
-9.945

@<SCITEGIC>MOL_PROPERTY
VdW12
SciTegic.value.DoubleValue
10.770

@<SCITEGIC>MOL_PROPERTY
Bond
SciTegic.value.DoubleValue
0.273

@<SCITEGIC>MOL_PROPERTY
Angle
SciTegic.value.DoubleValue
1.789

@<SCITEGIC>MOL_PROPERTY
Pdih
SciTegic.value.DoubleValue
3.603

@<SCITEGIC>MOL_PROPERTY
Idih
SciTegic.value.DoubleValue
0.000

@<SCITEGIC>MOL_PROPERTY
Tether
SciTegic.value.DoubleValue
0.000

@<TRIPOS>MOLECULE
guest-s15_vm2.mol2 : vm2 ligand conformer 77
          29          28           1
SMALL
USER_CHARGES
 
@<TRIPOS>ATOM
       1    C1      20.175904   19.582306   18.958105 C.3        1 MOL1        -0.2426
       2    H1      20.996980   19.352893   18.266549 H          1 MOL1         0.0959
       3    H2      19.269532   19.091744   18.579832 H          1 MOL1         0.0959
       4    H3      20.011257   20.667537   18.937766 H          1 MOL1         0.0959
       5    C2      20.513749   19.099301   20.384413 C.3        1 MOL1        -0.1410
       6    H4      21.442148   19.580982   20.721968 H          1 MOL1         0.0948
       7    H5      20.705947   18.017336   20.366949 H          1 MOL1         0.0948
       8    C3      19.373212   19.410379   21.378599 C.3        1 MOL1        -0.1435
       9    H6      19.183387   20.492619   21.391460 H          1 MOL1         0.0948
      10    H7      18.447058   18.929180   21.034959 H          1 MOL1         0.0948
      11    C4      19.708032   18.927496   22.807761 C.3        1 MOL1        -0.1435
      12    H8      20.636953   19.410306   23.138620 H          1 MOL1         0.0948
      13    H9      19.891827   17.844312   22.794156 H          1 MOL1         0.0948
      14    C5      18.568336   19.247158   23.803073 C.3        1 MOL1        -0.1435
      15    H10     18.433380   20.335842   23.867000 H          1 MOL1         0.0948
      16    H11     17.625208   18.843468   23.409464 H          1 MOL1         0.0948
      17    C6      18.789171   18.673539   25.225877 C.3        1 MOL1        -0.1500
      18    H12     18.837873   17.577059   25.187368 H          1 MOL1         0.0948
      19    H13     17.893442   18.908685   25.815901 H          1 MOL1         0.0948
      20    C7      20.035022   19.245574   25.945035 C.3        1 MOL1         0.1162
      21    H14     20.312562   20.183333   25.453982 H          1 MOL1         0.0910
      22    C8      21.229022   18.276229   25.872238 C.3        1 MOL1        -0.2491
      23    H15     21.009046   17.338930   26.398492 H          1 MOL1         0.0959
      24    H16     21.484475   18.028165   24.836262 H          1 MOL1         0.0959
      25    H17     22.117860   18.723353   26.334129 H          1 MOL1         0.0959
      26    N1      19.743552   19.594016   27.378898 N.4        1 MOL1        -0.5987
      27    H18     18.982701   20.275636   27.453531 H          1 MOL1         0.3605
      28    H19     20.563127   20.000903   27.838821 H          1 MOL1         0.3605
      29    H20     19.470564   18.766903   27.916754 H          1 MOL1         0.3605
@<TRIPOS>BOND
    1     1     2    1
    2     1     3    1
    3     1     4    1
    4     1     5    1
    5     5     6    1
    6     5     7    1
    7     5     8    1
    8     8     9    1
    9     8    10    1
   10     8    11    1
   11    11    12    1
   12    11    13    1
   13    11    14    1
   14    14    15    1
   15    14    16    1
   16    14    17    1
   17    17    18    1
   18    17    19    1
   19    17    20    1
   20    20    21    1
   21    20    22    1
   22    22    23    1
   23    22    24    1
   24    22    25    1
   25    20    26    1
   26    26    27    1
   27    26    28    1
   28    26    29    1
@<TRIPOS>SUBSTRUCTURE
       1 MOL1            1 RESIDUE      1      MOL     
@<SCITEGIC>MOL_PROPERTY
VM2 Rank
SciTegic.value.IntegerValue
77

@<SCITEGIC>MOL_PROPERTY
Conf_Id
SciTegic.value.IntegerValue
1298

@<SCITEGIC>MOL_PROPERTY
Probability
SciTegic.value.DoubleValue
0.05

@<SCITEGIC>MOL_PROPERTY
Sum Probability
SciTegic.value.DoubleValue
98.65

@<SCITEGIC>MOL_PROPERTY
Delta G
SciTegic.value.DoubleValue
3.183

@<SCITEGIC>MOL_PROPERTY
G
SciTegic.value.DoubleValue
36.885

@<SCITEGIC>MOL_PROPERTY
E
SciTegic.value.DoubleValue
-0.654

@<SCITEGIC>MOL_PROPERTY
-TS
SciTegic.value.DoubleValue
37.539

@<SCITEGIC>MOL_PROPERTY
U+W
SciTegic.value.DoubleValue
-24.798

@<SCITEGIC>MOL_PROPERTY
U
SciTegic.value.DoubleValue
27.225

@<SCITEGIC>MOL_PROPERTY
W
SciTegic.value.DoubleValue
-52.023

@<SCITEGIC>MOL_PROPERTY
W(PB)
SciTegic.value.DoubleValue
-54.531

@<SCITEGIC>MOL_PROPERTY
W(SA)
SciTegic.value.DoubleValue
2.508

@<SCITEGIC>MOL_PROPERTY
Valence
SciTegic.value.DoubleValue
6.290

@<SCITEGIC>MOL_PROPERTY
Coulomb
SciTegic.value.DoubleValue
19.804

@<SCITEGIC>MOL_PROPERTY
VdW
SciTegic.value.DoubleValue
1.131

@<SCITEGIC>MOL_PROPERTY
VdW6
SciTegic.value.DoubleValue
-9.035

@<SCITEGIC>MOL_PROPERTY
VdW12
SciTegic.value.DoubleValue
10.166

@<SCITEGIC>MOL_PROPERTY
Bond
SciTegic.value.DoubleValue
0.225

@<SCITEGIC>MOL_PROPERTY
Angle
SciTegic.value.DoubleValue
1.384

@<SCITEGIC>MOL_PROPERTY
Pdih
SciTegic.value.DoubleValue
4.682

@<SCITEGIC>MOL_PROPERTY
Idih
SciTegic.value.DoubleValue
0.000

@<SCITEGIC>MOL_PROPERTY
Tether
SciTegic.value.DoubleValue
0.000

@<TRIPOS>MOLECULE
guest-s15_vm2.mol2 : vm2 ligand conformer 78
          29          28           1
SMALL
USER_CHARGES
 
@<TRIPOS>ATOM
       1    C1      20.303064   19.187536   18.915866 C.3        1 MOL1        -0.2426
       2    H1      21.342796   19.530068   18.998787 H          1 MOL1         0.0959
       3    H2      20.259676   18.431084   18.121549 H          1 MOL1         0.0959
       4    H3      19.685985   20.040125   18.603526 H          1 MOL1         0.0959
       5    C2      19.803672   18.602151   20.253670 C.3        1 MOL1        -0.1410
       6    H4      20.418267   17.731625   20.522635 H          1 MOL1         0.0948
       7    H5      18.774154   18.237723   20.130476 H          1 MOL1         0.0948
       8    C3      19.854405   19.647587   21.389655 C.3        1 MOL1        -0.1435
       9    H6      20.884883   20.010430   21.507292 H          1 MOL1         0.0948
      10    H7      19.240681   20.516744   21.115220 H          1 MOL1         0.0948
      11    C4      19.355782   19.065021   22.731185 C.3        1 MOL1        -0.1435
      12    H8      19.963488   18.190854   22.993923 H          1 MOL1         0.0948
      13    H9      18.324959   18.704203   22.610499 H          1 MOL1         0.0948
      14    C5      19.400532   20.117818   23.865812 C.3        1 MOL1        -0.1435
      15    H10     20.410166   20.541548   23.958285 H          1 MOL1         0.0948
      16    H11     18.746605   20.953952   23.581516 H          1 MOL1         0.0948
      17    C6      18.926256   19.567231   25.236929 C.3        1 MOL1        -0.1500
      18    H12     18.215641   18.742782   25.091620 H          1 MOL1         0.0948
      19    H13     18.361169   20.363236   25.739712 H          1 MOL1         0.0948
      20    C7      20.063606   19.130794   26.191645 C.3        1 MOL1         0.1162
      21    H14     20.721947   19.990194   26.351646 H          1 MOL1         0.0910
      22    C8      20.909789   17.977821   25.626174 C.3        1 MOL1        -0.2491
      23    H15     21.649391   17.642741   26.363742 H          1 MOL1         0.0959
      24    H16     20.282729   17.118556   25.357778 H          1 MOL1         0.0959
      25    H17     21.464708   18.297217   24.736519 H          1 MOL1         0.0959
      26    N1      19.518894   18.760041   27.543065 N.4        1 MOL1        -0.5987
      27    H18     18.991083   19.531423   27.961710 H          1 MOL1         0.3605
      28    H19     20.270082   18.516000   28.194857 H          1 MOL1         0.3605
      29    H20     18.891228   17.953601   27.484626 H          1 MOL1         0.3605
@<TRIPOS>BOND
    1     1     2    1
    2     1     3    1
    3     1     4    1
    4     1     5    1
    5     5     6    1
    6     5     7    1
    7     5     8    1
    8     8     9    1
    9     8    10    1
   10     8    11    1
   11    11    12    1
   12    11    13    1
   13    11    14    1
   14    14    15    1
   15    14    16    1
   16    14    17    1
   17    17    18    1
   18    17    19    1
   19    17    20    1
   20    20    21    1
   21    20    22    1
   22    22    23    1
   23    22    24    1
   24    22    25    1
   25    20    26    1
   26    26    27    1
   27    26    28    1
   28    26    29    1
@<TRIPOS>SUBSTRUCTURE
       1 MOL1            1 RESIDUE      1      MOL     
@<SCITEGIC>MOL_PROPERTY
VM2 Rank
SciTegic.value.IntegerValue
78

@<SCITEGIC>MOL_PROPERTY
Conf_Id
SciTegic.value.IntegerValue
1630

@<SCITEGIC>MOL_PROPERTY
Probability
SciTegic.value.DoubleValue
0.05

@<SCITEGIC>MOL_PROPERTY
Sum Probability
SciTegic.value.DoubleValue
98.70

@<SCITEGIC>MOL_PROPERTY
Delta G
SciTegic.value.DoubleValue
3.192

@<SCITEGIC>MOL_PROPERTY
G
SciTegic.value.DoubleValue
36.894

@<SCITEGIC>MOL_PROPERTY
E
SciTegic.value.DoubleValue
-0.782

@<SCITEGIC>MOL_PROPERTY
-TS
SciTegic.value.DoubleValue
37.676

@<SCITEGIC>MOL_PROPERTY
U+W
SciTegic.value.DoubleValue
-24.926

@<SCITEGIC>MOL_PROPERTY
U
SciTegic.value.DoubleValue
27.070

@<SCITEGIC>MOL_PROPERTY
W
SciTegic.value.DoubleValue
-51.997

@<SCITEGIC>MOL_PROPERTY
W(PB)
SciTegic.value.DoubleValue
-54.496

@<SCITEGIC>MOL_PROPERTY
W(SA)
SciTegic.value.DoubleValue
2.499

@<SCITEGIC>MOL_PROPERTY
Valence
SciTegic.value.DoubleValue
6.259

@<SCITEGIC>MOL_PROPERTY
Coulomb
SciTegic.value.DoubleValue
19.668

@<SCITEGIC>MOL_PROPERTY
VdW
SciTegic.value.DoubleValue
1.143

@<SCITEGIC>MOL_PROPERTY
VdW6
SciTegic.value.DoubleValue
-9.082

@<SCITEGIC>MOL_PROPERTY
VdW12
SciTegic.value.DoubleValue
10.225

@<SCITEGIC>MOL_PROPERTY
Bond
SciTegic.value.DoubleValue
0.251

@<SCITEGIC>MOL_PROPERTY
Angle
SciTegic.value.DoubleValue
1.657

@<SCITEGIC>MOL_PROPERTY
Pdih
SciTegic.value.DoubleValue
4.351

@<SCITEGIC>MOL_PROPERTY
Idih
SciTegic.value.DoubleValue
0.000

@<SCITEGIC>MOL_PROPERTY
Tether
SciTegic.value.DoubleValue
0.000

@<TRIPOS>MOLECULE
guest-s15_vm2.mol2 : vm2 ligand conformer 79
          29          28           1
SMALL
USER_CHARGES
 
@<TRIPOS>ATOM
       1    C1      19.196232   19.162747   19.130553 C.3        1 MOL1        -0.2426
       2    H1      20.075623   19.699749   18.751670 H          1 MOL1         0.0959
       3    H2      19.368427   18.086849   18.996242 H          1 MOL1         0.0959
       4    H3      18.335407   19.446289   18.511181 H          1 MOL1         0.0959
       5    C2      18.935825   19.501791   20.613457 C.3        1 MOL1        -0.1410
       6    H4      18.032025   18.977191   20.953712 H          1 MOL1         0.0948
       7    H5      18.734091   20.577718   20.711355 H          1 MOL1         0.0948
       8    C3      20.133569   19.112272   21.507737 C.3        1 MOL1        -0.1435
       9    H6      20.332485   18.036413   21.405612 H          1 MOL1         0.0948
      10    H7      21.034622   19.636556   21.160401 H          1 MOL1         0.0948
      11    C4      19.877178   19.451518   22.993302 C.3        1 MOL1        -0.1435
      12    H8      18.971907   18.926385   23.320765 H          1 MOL1         0.0948
      13    H9      19.688428   20.529241   23.094280 H          1 MOL1         0.0948
      14    C5      21.073088   19.046357   23.887358 C.3        1 MOL1        -0.1435
      15    H10     21.199781   17.955730   23.863388 H          1 MOL1         0.0948
      16    H11     21.992630   19.460990   23.451723 H          1 MOL1         0.0948
      17    C6      20.982106   19.540749   25.358665 C.3        1 MOL1        -0.1500
      18    H12     20.981742   20.638516   25.372772 H          1 MOL1         0.0948
      19    H13     21.908585   19.244014   25.867696 H          1 MOL1         0.0948
      20    C7      19.795328   19.026737   26.213091 C.3        1 MOL1         0.1162
      21    H14     20.016606   19.291516   27.251662 H          1 MOL1         0.0910
      22    C8      19.645631   17.496697   26.152298 C.3        1 MOL1        -0.2491
      23    H15     18.895074   17.155167   26.875569 H          1 MOL1         0.0959
      24    H16     19.330556   17.159730   25.157504 H          1 MOL1         0.0959
      25    H17     20.594142   17.003543   26.398622 H          1 MOL1         0.0959
      26    N1      18.497042   19.717130   25.897539 N.4        1 MOL1        -0.5987
      27    H18     18.204223   19.535583   24.935361 H          1 MOL1         0.3605
      28    H19     18.575988   20.731907   26.010373 H          1 MOL1         0.3605
      29    H20     17.745142   19.398602   26.515582 H          1 MOL1         0.3605
@<TRIPOS>BOND
    1     1     2    1
    2     1     3    1
    3     1     4    1
    4     1     5    1
    5     5     6    1
    6     5     7    1
    7     5     8    1
    8     8     9    1
    9     8    10    1
   10     8    11    1
   11    11    12    1
   12    11    13    1
   13    11    14    1
   14    14    15    1
   15    14    16    1
   16    14    17    1
   17    17    18    1
   18    17    19    1
   19    17    20    1
   20    20    21    1
   21    20    22    1
   22    22    23    1
   23    22    24    1
   24    22    25    1
   25    20    26    1
   26    26    27    1
   27    26    28    1
   28    26    29    1
@<TRIPOS>SUBSTRUCTURE
       1 MOL1            1 RESIDUE      1      MOL     
@<SCITEGIC>MOL_PROPERTY
VM2 Rank
SciTegic.value.IntegerValue
79

@<SCITEGIC>MOL_PROPERTY
Conf_Id
SciTegic.value.IntegerValue
990

@<SCITEGIC>MOL_PROPERTY
Probability
SciTegic.value.DoubleValue
0.05

@<SCITEGIC>MOL_PROPERTY
Sum Probability
SciTegic.value.DoubleValue
98.74

@<SCITEGIC>MOL_PROPERTY
Delta G
SciTegic.value.DoubleValue
3.231

@<SCITEGIC>MOL_PROPERTY
G
SciTegic.value.DoubleValue
36.933

@<SCITEGIC>MOL_PROPERTY
E
SciTegic.value.DoubleValue
-1.035

@<SCITEGIC>MOL_PROPERTY
-TS
SciTegic.value.DoubleValue
37.968

@<SCITEGIC>MOL_PROPERTY
U+W
SciTegic.value.DoubleValue
-25.180

@<SCITEGIC>MOL_PROPERTY
U
SciTegic.value.DoubleValue
27.314

@<SCITEGIC>MOL_PROPERTY
W
SciTegic.value.DoubleValue
-52.494

@<SCITEGIC>MOL_PROPERTY
W(PB)
SciTegic.value.DoubleValue
-54.964

@<SCITEGIC>MOL_PROPERTY
W(SA)
SciTegic.value.DoubleValue
2.469

@<SCITEGIC>MOL_PROPERTY
Valence
SciTegic.value.DoubleValue
5.056

@<SCITEGIC>MOL_PROPERTY
Coulomb
SciTegic.value.DoubleValue
21.358

@<SCITEGIC>MOL_PROPERTY
VdW
SciTegic.value.DoubleValue
0.900

@<SCITEGIC>MOL_PROPERTY
VdW6
SciTegic.value.DoubleValue
-10.072

@<SCITEGIC>MOL_PROPERTY
VdW12
SciTegic.value.DoubleValue
10.972

@<SCITEGIC>MOL_PROPERTY
Bond
SciTegic.value.DoubleValue
0.294

@<SCITEGIC>MOL_PROPERTY
Angle
SciTegic.value.DoubleValue
2.163

@<SCITEGIC>MOL_PROPERTY
Pdih
SciTegic.value.DoubleValue
2.600

@<SCITEGIC>MOL_PROPERTY
Idih
SciTegic.value.DoubleValue
0.000

@<SCITEGIC>MOL_PROPERTY
Tether
SciTegic.value.DoubleValue
0.000

@<TRIPOS>MOLECULE
guest-s15_vm2.mol2 : vm2 ligand conformer 80
          29          28           1
SMALL
USER_CHARGES
 
@<TRIPOS>ATOM
       1    C1      20.763174   20.364925   20.580274 C.3        1 MOL1        -0.2426
       2    H1      21.411135   19.940191   21.356801 H          1 MOL1         0.0959
       3    H2      21.413721   20.734182   19.776970 H          1 MOL1         0.0959
       4    H3      20.228121   21.225612   21.001922 H          1 MOL1         0.0959
       5    C2      19.777704   19.309217   20.033751 C.3        1 MOL1        -0.1410
       6    H4      20.340535   18.433692   19.681095 H          1 MOL1         0.0948
       7    H5      19.273359   19.722965   19.149347 H          1 MOL1         0.0948
       8    C3      18.697002   18.857622   21.049001 C.3        1 MOL1        -0.1435
       9    H6      18.062154   19.709586   21.328567 H          1 MOL1         0.0948
      10    H7      18.033048   18.151288   20.531687 H          1 MOL1         0.0948
      11    C4      19.250577   18.158376   22.317894 C.3        1 MOL1        -0.1435
      12    H8      20.196002   17.649701   22.084381 H          1 MOL1         0.0948
      13    H9      18.546166   17.368926   22.614521 H          1 MOL1         0.0948
      14    C5      19.433406   19.117176   23.519816 C.3        1 MOL1        -0.1435
      15    H10     20.108381   19.939219   23.253581 H          1 MOL1         0.0948
      16    H11     18.464188   19.572104   23.763178 H          1 MOL1         0.0948
      17    C6      19.994373   18.378666   24.759191 C.3        1 MOL1        -0.1500
      18    H12     20.935067   17.884674   24.481442 H          1 MOL1         0.0948
      19    H13     19.300786   17.583717   25.064077 H          1 MOL1         0.0948
      20    C7      20.261246   19.321332   25.952509 C.3        1 MOL1         0.1162
      21    H14     20.933839   20.116945   25.617449 H          1 MOL1         0.0910
      22    C8      20.949428   18.556455   27.094265 C.3        1 MOL1        -0.2491
      23    H15     20.312691   17.745221   27.468981 H          1 MOL1         0.0959
      24    H16     21.896444   18.118541   26.754926 H          1 MOL1         0.0959
      25    H17     21.174920   19.228611   27.931380 H          1 MOL1         0.0959
      26    N1      19.009090   19.992231   26.447300 N.4        1 MOL1        -0.5987
      27    H18     18.562785   20.542082   25.708295 H          1 MOL1         0.3605
      28    H19     19.207662   20.627976   27.225148 H          1 MOL1         0.3605
      29    H20     18.324867   19.306794   26.778297 H          1 MOL1         0.3605
@<TRIPOS>BOND
    1     1     2    1
    2     1     3    1
    3     1     4    1
    4     1     5    1
    5     5     6    1
    6     5     7    1
    7     5     8    1
    8     8     9    1
    9     8    10    1
   10     8    11    1
   11    11    12    1
   12    11    13    1
   13    11    14    1
   14    14    15    1
   15    14    16    1
   16    14    17    1
   17    17    18    1
   18    17    19    1
   19    17    20    1
   20    20    21    1
   21    20    22    1
   22    22    23    1
   23    22    24    1
   24    22    25    1
   25    20    26    1
   26    26    27    1
   27    26    28    1
   28    26    29    1
@<TRIPOS>SUBSTRUCTURE
       1 MOL1            1 RESIDUE      1      MOL     
@<SCITEGIC>MOL_PROPERTY
VM2 Rank
SciTegic.value.IntegerValue
80

@<SCITEGIC>MOL_PROPERTY
Conf_Id
SciTegic.value.IntegerValue
841

@<SCITEGIC>MOL_PROPERTY
Probability
SciTegic.value.DoubleValue
0.04

@<SCITEGIC>MOL_PROPERTY
Sum Probability
SciTegic.value.DoubleValue
98.79

@<SCITEGIC>MOL_PROPERTY
Delta G
SciTegic.value.DoubleValue
3.252

@<SCITEGIC>MOL_PROPERTY
G
SciTegic.value.DoubleValue
36.954

@<SCITEGIC>MOL_PROPERTY
E
SciTegic.value.DoubleValue
-0.782

@<SCITEGIC>MOL_PROPERTY
-TS
SciTegic.value.DoubleValue
37.736

@<SCITEGIC>MOL_PROPERTY
U+W
SciTegic.value.DoubleValue
-24.926

@<SCITEGIC>MOL_PROPERTY
U
SciTegic.value.DoubleValue
27.363

@<SCITEGIC>MOL_PROPERTY
W
SciTegic.value.DoubleValue
-52.289

@<SCITEGIC>MOL_PROPERTY
W(PB)
SciTegic.value.DoubleValue
-54.777

@<SCITEGIC>MOL_PROPERTY
W(SA)
SciTegic.value.DoubleValue
2.488

@<SCITEGIC>MOL_PROPERTY
Valence
SciTegic.value.DoubleValue
6.134

@<SCITEGIC>MOL_PROPERTY
Coulomb
SciTegic.value.DoubleValue
20.079

@<SCITEGIC>MOL_PROPERTY
VdW
SciTegic.value.DoubleValue
1.150

@<SCITEGIC>MOL_PROPERTY
VdW6
SciTegic.value.DoubleValue
-9.534

@<SCITEGIC>MOL_PROPERTY
VdW12
SciTegic.value.DoubleValue
10.684

@<SCITEGIC>MOL_PROPERTY
Bond
SciTegic.value.DoubleValue
0.272

@<SCITEGIC>MOL_PROPERTY
Angle
SciTegic.value.DoubleValue
1.638

@<SCITEGIC>MOL_PROPERTY
Pdih
SciTegic.value.DoubleValue
4.224

@<SCITEGIC>MOL_PROPERTY
Idih
SciTegic.value.DoubleValue
0.000

@<SCITEGIC>MOL_PROPERTY
Tether
SciTegic.value.DoubleValue
0.000

@<TRIPOS>MOLECULE
guest-s15_vm2.mol2 : vm2 ligand conformer 81
          29          28           1
SMALL
USER_CHARGES
 
@<TRIPOS>ATOM
       1    C1      18.680487   18.839605   19.718640 C.3        1 MOL1        -0.2426
       2    H1      17.983118   19.106349   18.913998 H          1 MOL1         0.0959
       3    H2      19.434599   18.161557   19.298408 H          1 MOL1         0.0959
       4    H3      18.111271   18.292131   20.480046 H          1 MOL1         0.0959
       5    C2      19.339568   20.108308   20.305550 C.3        1 MOL1        -0.1410
       6    H4      18.568230   20.755088   20.746446 H          1 MOL1         0.0948
       7    H5      19.791502   20.683995   19.485733 H          1 MOL1         0.0948
       8    C3      20.432014   19.803049   21.358638 C.3        1 MOL1        -0.1435
       9    H6      21.213333   19.177674   20.905090 H          1 MOL1         0.0948
      10    H7      20.917328   20.747521   21.641057 H          1 MOL1         0.0948
      11    C4      19.885692   19.114788   22.632368 C.3        1 MOL1        -0.1435
      12    H8      19.468639   18.133080   22.372163 H          1 MOL1         0.0948
      13    H9      19.060761   19.713635   23.032789 H          1 MOL1         0.0948
      14    C5      20.994576   18.925575   23.696955 C.3        1 MOL1        -0.1435
      15    H10     21.810584   18.350302   23.237829 H          1 MOL1         0.0948
      16    H11     21.428024   19.896010   23.975984 H          1 MOL1         0.0948
      17    C6      20.528799   18.168834   24.968973 C.3        1 MOL1        -0.1500
      18    H12     21.406630   17.664226   25.394290 H          1 MOL1         0.0948
      19    H13     19.823719   17.370574   24.701837 H          1 MOL1         0.0948
      20    C7      19.927638   19.072561   26.070995 C.3        1 MOL1         0.1162
      21    H14     20.653805   19.858405   26.300529 H          1 MOL1         0.0910
      22    C8      19.684067   18.256826   27.351000 C.3        1 MOL1        -0.2491
      23    H15     20.617366   17.805569   27.710253 H          1 MOL1         0.0959
      24    H16     19.295513   18.897637   28.152137 H          1 MOL1         0.0959
      25    H17     18.960070   17.451074   27.176205 H          1 MOL1         0.0959
      26    N1      18.663158   19.766454   25.650881 N.4        1 MOL1        -0.5987
      27    H18     18.296039   20.360181   26.400133 H          1 MOL1         0.3605
      28    H19     17.932887   19.092869   25.405153 H          1 MOL1         0.3605
      29    H20     18.824484   20.363979   24.836016 H          1 MOL1         0.3605
@<TRIPOS>BOND
    1     1     2    1
    2     1     3    1
    3     1     4    1
    4     1     5    1
    5     5     6    1
    6     5     7    1
    7     5     8    1
    8     8     9    1
    9     8    10    1
   10     8    11    1
   11    11    12    1
   12    11    13    1
   13    11    14    1
   14    14    15    1
   15    14    16    1
   16    14    17    1
   17    17    18    1
   18    17    19    1
   19    17    20    1
   20    20    21    1
   21    20    22    1
   22    22    23    1
   23    22    24    1
   24    22    25    1
   25    20    26    1
   26    26    27    1
   27    26    28    1
   28    26    29    1
@<TRIPOS>SUBSTRUCTURE
       1 MOL1            1 RESIDUE      1      MOL     
@<SCITEGIC>MOL_PROPERTY
VM2 Rank
SciTegic.value.IntegerValue
81

@<SCITEGIC>MOL_PROPERTY
Conf_Id
SciTegic.value.IntegerValue
329

@<SCITEGIC>MOL_PROPERTY
Probability
SciTegic.value.DoubleValue
0.04

@<SCITEGIC>MOL_PROPERTY
Sum Probability
SciTegic.value.DoubleValue
98.83

@<SCITEGIC>MOL_PROPERTY
Delta G
SciTegic.value.DoubleValue
3.255

@<SCITEGIC>MOL_PROPERTY
G
SciTegic.value.DoubleValue
36.957

@<SCITEGIC>MOL_PROPERTY
E
SciTegic.value.DoubleValue
-0.312

@<SCITEGIC>MOL_PROPERTY
-TS
SciTegic.value.DoubleValue
37.269

@<SCITEGIC>MOL_PROPERTY
U+W
SciTegic.value.DoubleValue
-24.456

@<SCITEGIC>MOL_PROPERTY
U
SciTegic.value.DoubleValue
27.677

@<SCITEGIC>MOL_PROPERTY
W
SciTegic.value.DoubleValue
-52.133

@<SCITEGIC>MOL_PROPERTY
W(PB)
SciTegic.value.DoubleValue
-54.613

@<SCITEGIC>MOL_PROPERTY
W(SA)
SciTegic.value.DoubleValue
2.480

@<SCITEGIC>MOL_PROPERTY
Valence
SciTegic.value.DoubleValue
5.648

@<SCITEGIC>MOL_PROPERTY
Coulomb
SciTegic.value.DoubleValue
20.829

@<SCITEGIC>MOL_PROPERTY
VdW
SciTegic.value.DoubleValue
1.200

@<SCITEGIC>MOL_PROPERTY
VdW6
SciTegic.value.DoubleValue
-9.462

@<SCITEGIC>MOL_PROPERTY
VdW12
SciTegic.value.DoubleValue
10.662

@<SCITEGIC>MOL_PROPERTY
Bond
SciTegic.value.DoubleValue
0.293

@<SCITEGIC>MOL_PROPERTY
Angle
SciTegic.value.DoubleValue
1.687

@<SCITEGIC>MOL_PROPERTY
Pdih
SciTegic.value.DoubleValue
3.668

@<SCITEGIC>MOL_PROPERTY
Idih
SciTegic.value.DoubleValue
0.000

@<SCITEGIC>MOL_PROPERTY
Tether
SciTegic.value.DoubleValue
0.000

@<TRIPOS>MOLECULE
guest-s15_vm2.mol2 : vm2 ligand conformer 82
          29          28           1
SMALL
USER_CHARGES
 
@<TRIPOS>ATOM
       1    C1      18.496071   18.479748   19.964847 C.3        1 MOL1        -0.2426
       2    H1      18.358703   17.446778   19.619699 H          1 MOL1         0.0959
       3    H2      17.563526   18.800952   20.446921 H          1 MOL1         0.0959
       4    H3      18.659729   19.111162   19.081804 H          1 MOL1         0.0959
       5    C2      19.686223   18.573867   20.942738 C.3        1 MOL1        -0.1410
       6    H4      20.595597   18.214081   20.441446 H          1 MOL1         0.0948
       7    H5      19.509259   17.899090   21.788648 H          1 MOL1         0.0948
       8    C3      19.905900   20.024825   21.434745 C.3        1 MOL1        -0.1435
       9    H6      20.107093   20.655001   20.557360 H          1 MOL1         0.0948
      10    H7      18.985668   20.420017   21.886463 H          1 MOL1         0.0948
      11    C4      21.091328   20.170377   22.424328 C.3        1 MOL1        -0.1435
      12    H8      21.579327   21.136067   22.232683 H          1 MOL1         0.0948
      13    H9      21.855417   19.407893   22.219529 H          1 MOL1         0.0948
      14    C5      20.692952   20.139435   23.922432 C.3        1 MOL1        -0.1435
      15    H10     21.594918   20.324743   24.522194 H          1 MOL1         0.0948
      16    H11     20.009683   20.974343   24.127688 H          1 MOL1         0.0948
      17    C6      20.049176   18.808007   24.381874 C.3        1 MOL1        -0.1500
      18    H12     20.680067   17.973347   24.048643 H          1 MOL1         0.0948
      19    H13     19.069814   18.682137   23.903362 H          1 MOL1         0.0948
      20    C7      19.878467   18.722451   25.913710 C.3        1 MOL1         0.1162
      21    H14     20.859353   18.867427   26.376820 H          1 MOL1         0.0910
      22    C8      19.354727   17.334713   26.316261 C.3        1 MOL1        -0.2491
      23    H15     18.367870   17.140176   25.877841 H          1 MOL1         0.0959
      24    H16     20.039704   16.546737   25.979141 H          1 MOL1         0.0959
      25    H17     19.266254   17.254428   27.406730 H          1 MOL1         0.0959
      26    N1      18.981156   19.802576   26.453064 N.4        1 MOL1        -0.5987
      27    H18     18.037573   19.732923   26.062900 H          1 MOL1         0.3605
      28    H19     19.340978   20.733845   26.227215 H          1 MOL1         0.3605
      29    H20     18.897240   19.745013   27.472026 H          1 MOL1         0.3605
@<TRIPOS>BOND
    1     1     2    1
    2     1     3    1
    3     1     4    1
    4     1     5    1
    5     5     6    1
    6     5     7    1
    7     5     8    1
    8     8     9    1
    9     8    10    1
   10     8    11    1
   11    11    12    1
   12    11    13    1
   13    11    14    1
   14    14    15    1
   15    14    16    1
   16    14    17    1
   17    17    18    1
   18    17    19    1
   19    17    20    1
   20    20    21    1
   21    20    22    1
   22    22    23    1
   23    22    24    1
   24    22    25    1
   25    20    26    1
   26    26    27    1
   27    26    28    1
   28    26    29    1
@<TRIPOS>SUBSTRUCTURE
       1 MOL1            1 RESIDUE      1      MOL     
@<SCITEGIC>MOL_PROPERTY
VM2 Rank
SciTegic.value.IntegerValue
82

@<SCITEGIC>MOL_PROPERTY
Conf_Id
SciTegic.value.IntegerValue
952

@<SCITEGIC>MOL_PROPERTY
Probability
SciTegic.value.DoubleValue
0.04

@<SCITEGIC>MOL_PROPERTY
Sum Probability
SciTegic.value.DoubleValue
98.87

@<SCITEGIC>MOL_PROPERTY
Delta G
SciTegic.value.DoubleValue
3.310

@<SCITEGIC>MOL_PROPERTY
G
SciTegic.value.DoubleValue
37.012

@<SCITEGIC>MOL_PROPERTY
E
SciTegic.value.DoubleValue
-0.765

@<SCITEGIC>MOL_PROPERTY
-TS
SciTegic.value.DoubleValue
37.778

@<SCITEGIC>MOL_PROPERTY
U+W
SciTegic.value.DoubleValue
-24.910

@<SCITEGIC>MOL_PROPERTY
U
SciTegic.value.DoubleValue
27.426

@<SCITEGIC>MOL_PROPERTY
W
SciTegic.value.DoubleValue
-52.336

@<SCITEGIC>MOL_PROPERTY
W(PB)
SciTegic.value.DoubleValue
-54.830

@<SCITEGIC>MOL_PROPERTY
W(SA)
SciTegic.value.DoubleValue
2.495

@<SCITEGIC>MOL_PROPERTY
Valence
SciTegic.value.DoubleValue
6.169

@<SCITEGIC>MOL_PROPERTY
Coulomb
SciTegic.value.DoubleValue
20.212

@<SCITEGIC>MOL_PROPERTY
VdW
SciTegic.value.DoubleValue
1.045

@<SCITEGIC>MOL_PROPERTY
VdW6
SciTegic.value.DoubleValue
-9.697

@<SCITEGIC>MOL_PROPERTY
VdW12
SciTegic.value.DoubleValue
10.741

@<SCITEGIC>MOL_PROPERTY
Bond
SciTegic.value.DoubleValue
0.273

@<SCITEGIC>MOL_PROPERTY
Angle
SciTegic.value.DoubleValue
1.616

@<SCITEGIC>MOL_PROPERTY
Pdih
SciTegic.value.DoubleValue
4.280

@<SCITEGIC>MOL_PROPERTY
Idih
SciTegic.value.DoubleValue
0.000

@<SCITEGIC>MOL_PROPERTY
Tether
SciTegic.value.DoubleValue
0.000

@<TRIPOS>MOLECULE
guest-s15_vm2.mol2 : vm2 ligand conformer 83
          29          28           1
SMALL
USER_CHARGES
 
@<TRIPOS>ATOM
       1    C1      19.781459   20.898300   20.589536 C.3        1 MOL1        -0.2426
       2    H1      18.783721   21.134525   20.197424 H          1 MOL1         0.0959
       3    H2      19.786573   21.130541   21.660014 H          1 MOL1         0.0959
       4    H3      20.498736   21.570017   20.100456 H          1 MOL1         0.0959
       5    C2      20.147768   19.421725   20.311540 C.3        1 MOL1        -0.1410
       6    H4      21.173466   19.212872   20.646028 H          1 MOL1         0.0948
       7    H5      20.148948   19.273127   19.222603 H          1 MOL1         0.0948
       8    C3      19.157654   18.411349   20.946089 C.3        1 MOL1        -0.1435
       9    H6      18.153628   18.852757   21.011014 H          1 MOL1         0.0948
      10    H7      19.060288   17.554915   20.264619 H          1 MOL1         0.0948
      11    C4      19.587749   17.858583   22.329422 C.3        1 MOL1        -0.1435
      12    H8      20.543695   17.326505   22.227953 H          1 MOL1         0.0948
      13    H9      18.850762   17.106130   22.642444 H          1 MOL1         0.0948
      14    C5      19.711056   18.932072   23.435204 C.3        1 MOL1        -0.1435
      15    H10     20.537843   19.613245   23.195370 H          1 MOL1         0.0948
      16    H11     18.790628   19.530065   23.461679 H          1 MOL1         0.0948
      17    C6      19.971621   18.297260   24.822764 C.3        1 MOL1        -0.1500
      18    H12     20.860772   17.655919   24.757813 H          1 MOL1         0.0948
      19    H13     19.132659   17.643685   25.096522 H          1 MOL1         0.0948
      20    C7      20.194893   19.347337   25.932388 C.3        1 MOL1         0.1162
      21    H14     21.018172   20.000140   25.626279 H          1 MOL1         0.0910
      22    C8      20.588830   18.658520   27.248654 C.3        1 MOL1        -0.2491
      23    H15     19.792484   17.991108   27.601272 H          1 MOL1         0.0959
      24    H16     21.501269   18.063153   27.119233 H          1 MOL1         0.0959
      25    H17     20.784550   19.401040   28.032082 H          1 MOL1         0.0959
      26    N1      18.994970   20.230854   26.138403 N.4        1 MOL1        -0.5987
      27    H18     18.746749   20.730089   25.280065 H          1 MOL1         0.3605
      28    H19     19.167889   20.933509   26.863008 H          1 MOL1         0.3605
      29    H20     18.177221   19.687282   26.427162 H          1 MOL1         0.3605
@<TRIPOS>BOND
    1     1     2    1
    2     1     3    1
    3     1     4    1
    4     1     5    1
    5     5     6    1
    6     5     7    1
    7     5     8    1
    8     8     9    1
    9     8    10    1
   10     8    11    1
   11    11    12    1
   12    11    13    1
   13    11    14    1
   14    14    15    1
   15    14    16    1
   16    14    17    1
   17    17    18    1
   18    17    19    1
   19    17    20    1
   20    20    21    1
   21    20    22    1
   22    22    23    1
   23    22    24    1
   24    22    25    1
   25    20    26    1
   26    26    27    1
   27    26    28    1
   28    26    29    1
@<TRIPOS>SUBSTRUCTURE
       1 MOL1            1 RESIDUE      1      MOL     
@<SCITEGIC>MOL_PROPERTY
VM2 Rank
SciTegic.value.IntegerValue
83

@<SCITEGIC>MOL_PROPERTY
Conf_Id
SciTegic.value.IntegerValue
1289

@<SCITEGIC>MOL_PROPERTY
Probability
SciTegic.value.DoubleValue
0.04

@<SCITEGIC>MOL_PROPERTY
Sum Probability
SciTegic.value.DoubleValue
98.91

@<SCITEGIC>MOL_PROPERTY
Delta G
SciTegic.value.DoubleValue
3.371

@<SCITEGIC>MOL_PROPERTY
G
SciTegic.value.DoubleValue
37.073

@<SCITEGIC>MOL_PROPERTY
E
SciTegic.value.DoubleValue
-0.655

@<SCITEGIC>MOL_PROPERTY
-TS
SciTegic.value.DoubleValue
37.728

@<SCITEGIC>MOL_PROPERTY
U+W
SciTegic.value.DoubleValue
-24.799

@<SCITEGIC>MOL_PROPERTY
U
SciTegic.value.DoubleValue
27.547

@<SCITEGIC>MOL_PROPERTY
W
SciTegic.value.DoubleValue
-52.347

@<SCITEGIC>MOL_PROPERTY
W(PB)
SciTegic.value.DoubleValue
-54.805

@<SCITEGIC>MOL_PROPERTY
W(SA)
SciTegic.value.DoubleValue
2.459

@<SCITEGIC>MOL_PROPERTY
Valence
SciTegic.value.DoubleValue
6.159

@<SCITEGIC>MOL_PROPERTY
Coulomb
SciTegic.value.DoubleValue
20.244

@<SCITEGIC>MOL_PROPERTY
VdW
SciTegic.value.DoubleValue
1.144

@<SCITEGIC>MOL_PROPERTY
VdW6
SciTegic.value.DoubleValue
-9.544

@<SCITEGIC>MOL_PROPERTY
VdW12
SciTegic.value.DoubleValue
10.689

@<SCITEGIC>MOL_PROPERTY
Bond
SciTegic.value.DoubleValue
0.271

@<SCITEGIC>MOL_PROPERTY
Angle
SciTegic.value.DoubleValue
1.675

@<SCITEGIC>MOL_PROPERTY
Pdih
SciTegic.value.DoubleValue
4.213

@<SCITEGIC>MOL_PROPERTY
Idih
SciTegic.value.DoubleValue
0.000

@<SCITEGIC>MOL_PROPERTY
Tether
SciTegic.value.DoubleValue
0.000

@<TRIPOS>MOLECULE
guest-s15_vm2.mol2 : vm2 ligand conformer 84
          29          28           1
SMALL
USER_CHARGES
 
@<TRIPOS>ATOM
       1    C1      21.071314   19.445254   19.778531 C.3        1 MOL1        -0.2426
       2    H1      21.017250   20.529254   19.613398 H          1 MOL1         0.0959
       3    H2      22.129273   19.153235   19.757043 H          1 MOL1         0.0959
       4    H3      20.567164   18.946050   18.940764 H          1 MOL1         0.0959
       5    C2      20.426268   19.057062   21.125784 C.3        1 MOL1        -0.1410
       6    H4      20.981408   19.545632   21.937390 H          1 MOL1         0.0948
       7    H5      20.519168   17.972346   21.274900 H          1 MOL1         0.0948
       8    C3      18.937340   19.468022   21.184236 C.3        1 MOL1        -0.1435
       9    H6      18.857962   20.561645   21.114143 H          1 MOL1         0.0948
      10    H7      18.422228   19.067560   20.300168 H          1 MOL1         0.0948
      11    C4      18.185347   18.977361   22.448431 C.3        1 MOL1        -0.1435
      12    H8      18.167402   17.879087   22.475216 H          1 MOL1         0.0948
      13    H9      17.135863   19.287413   22.348936 H          1 MOL1         0.0948
      14    C5      18.730899   19.540682   23.786484 C.3        1 MOL1        -0.1435
      15    H10     19.205393   20.517337   23.617828 H          1 MOL1         0.0948
      16    H11     17.877171   19.726973   24.451610 H          1 MOL1         0.0948
      17    C6      19.714448   18.577552   24.500850 C.3        1 MOL1        -0.1500
      18    H12     20.518445   18.291176   23.813608 H          1 MOL1         0.0948
      19    H13     19.191905   17.648894   24.766184 H          1 MOL1         0.0948
      20    C7      20.345197   19.195279   25.767438 C.3        1 MOL1         0.1162
      21    H14     20.837725   20.130464   25.483736 H          1 MOL1         0.0910
      22    C8      21.406195   18.249400   26.352158 C.3        1 MOL1        -0.2491
      23    H15     20.961759   17.292986   26.654973 H          1 MOL1         0.0959
      24    H16     22.192822   18.042761   25.615756 H          1 MOL1         0.0959
      25    H17     21.883903   18.698133   27.231840 H          1 MOL1         0.0959
      26    N1      19.318992   19.545388   26.810088 N.4        1 MOL1        -0.5987
      27    H18     18.629914   20.209856   26.447641 H          1 MOL1         0.3605
      28    H19     19.752844   19.972258   27.633606 H          1 MOL1         0.3605
      29    H20     18.810794   18.715285   27.126599 H          1 MOL1         0.3605
@<TRIPOS>BOND
    1     1     2    1
    2     1     3    1
    3     1     4    1
    4     1     5    1
    5     5     6    1
    6     5     7    1
    7     5     8    1
    8     8     9    1
    9     8    10    1
   10     8    11    1
   11    11    12    1
   12    11    13    1
   13    11    14    1
   14    14    15    1
   15    14    16    1
   16    14    17    1
   17    17    18    1
   18    17    19    1
   19    17    20    1
   20    20    21    1
   21    20    22    1
   22    22    23    1
   23    22    24    1
   24    22    25    1
   25    20    26    1
   26    26    27    1
   27    26    28    1
   28    26    29    1
@<TRIPOS>SUBSTRUCTURE
       1 MOL1            1 RESIDUE      1      MOL     
@<SCITEGIC>MOL_PROPERTY
VM2 Rank
SciTegic.value.IntegerValue
84

@<SCITEGIC>MOL_PROPERTY
Conf_Id
SciTegic.value.IntegerValue
1331

@<SCITEGIC>MOL_PROPERTY
Probability
SciTegic.value.DoubleValue
0.03

@<SCITEGIC>MOL_PROPERTY
Sum Probability
SciTegic.value.DoubleValue
98.94

@<SCITEGIC>MOL_PROPERTY
Delta G
SciTegic.value.DoubleValue
3.398

@<SCITEGIC>MOL_PROPERTY
G
SciTegic.value.DoubleValue
37.100

@<SCITEGIC>MOL_PROPERTY
E
SciTegic.value.DoubleValue
-0.692

@<SCITEGIC>MOL_PROPERTY
-TS
SciTegic.value.DoubleValue
37.792

@<SCITEGIC>MOL_PROPERTY
U+W
SciTegic.value.DoubleValue
-24.837

@<SCITEGIC>MOL_PROPERTY
U
SciTegic.value.DoubleValue
27.471

@<SCITEGIC>MOL_PROPERTY
W
SciTegic.value.DoubleValue
-52.308

@<SCITEGIC>MOL_PROPERTY
W(PB)
SciTegic.value.DoubleValue
-54.791

@<SCITEGIC>MOL_PROPERTY
W(SA)
SciTegic.value.DoubleValue
2.483

@<SCITEGIC>MOL_PROPERTY
Valence
SciTegic.value.DoubleValue
6.230

@<SCITEGIC>MOL_PROPERTY
Coulomb
SciTegic.value.DoubleValue
20.131

@<SCITEGIC>MOL_PROPERTY
VdW
SciTegic.value.DoubleValue
1.110

@<SCITEGIC>MOL_PROPERTY
VdW6
SciTegic.value.DoubleValue
-9.661

@<SCITEGIC>MOL_PROPERTY
VdW12
SciTegic.value.DoubleValue
10.771

@<SCITEGIC>MOL_PROPERTY
Bond
SciTegic.value.DoubleValue
0.280

@<SCITEGIC>MOL_PROPERTY
Angle
SciTegic.value.DoubleValue
1.592

@<SCITEGIC>MOL_PROPERTY
Pdih
SciTegic.value.DoubleValue
4.359

@<SCITEGIC>MOL_PROPERTY
Idih
SciTegic.value.DoubleValue
0.000

@<SCITEGIC>MOL_PROPERTY
Tether
SciTegic.value.DoubleValue
0.000

@<TRIPOS>MOLECULE
guest-s15_vm2.mol2 : vm2 ligand conformer 85
          29          28           1
SMALL
USER_CHARGES
 
@<TRIPOS>ATOM
       1    C1      18.370816   20.095477   20.787103 C.3        1 MOL1        -0.2426
       2    H1      17.556558   20.294165   20.078324 H          1 MOL1         0.0959
       3    H2      17.945580   19.525864   21.622548 H          1 MOL1         0.0959
       4    H3      18.728959   21.061124   21.166668 H          1 MOL1         0.0959
       5    C2      19.507922   19.311945   20.096022 C.3        1 MOL1        -0.1410
       6    H4      19.785817   19.836859   19.171382 H          1 MOL1         0.0948
       7    H5      19.134406   18.326148   19.785569 H          1 MOL1         0.0948
       8    C3      20.781097   19.135576   20.962403 C.3        1 MOL1        -0.1435
       9    H6      21.527605   18.611978   20.349271 H          1 MOL1         0.0948
      10    H7      21.221151   20.115975   21.190986 H          1 MOL1         0.0948
      11    C4      20.570736   18.322106   22.266001 C.3        1 MOL1        -0.1435
      12    H8      21.473183   17.723150   22.450977 H          1 MOL1         0.0948
      13    H9      19.750944   17.602905   22.132420 H          1 MOL1         0.0948
      14    C5      20.315641   19.208088   23.509808 C.3        1 MOL1        -0.1435
      15    H10     21.176534   19.873285   23.664168 H          1 MOL1         0.0948
      16    H11     19.447333   19.853626   23.338363 H          1 MOL1         0.0948
      17    C6      20.091881   18.355585   24.782337 C.3        1 MOL1        -0.1500
      18    H12     20.951108   17.684792   24.915883 H          1 MOL1         0.0948
      19    H13     19.210861   17.713757   24.648805 H          1 MOL1         0.0948
      20    C7      19.923894   19.209143   26.057969 C.3        1 MOL1         0.1162
      21    H14     20.800430   19.857145   26.155026 H          1 MOL1         0.0910
      22    C8      19.851542   18.305924   27.299431 C.3        1 MOL1        -0.2491
      23    H15     18.984779   17.634784   27.252135 H          1 MOL1         0.0959
      24    H16     20.755695   17.690646   27.387160 H          1 MOL1         0.0959
      25    H17     19.768754   18.907484   28.213038 H          1 MOL1         0.0959
      26    N1      18.722471   20.112155   25.992925 N.4        1 MOL1        -0.5987
      27    H18     18.778298   20.751543   25.195643 H          1 MOL1         0.3605
      28    H19     18.638080   20.683326   26.838708 H          1 MOL1         0.3605
      29    H20     17.856773   19.574414   25.898329 H          1 MOL1         0.3605
@<TRIPOS>BOND
    1     1     2    1
    2     1     3    1
    3     1     4    1
    4     1     5    1
    5     5     6    1
    6     5     7    1
    7     5     8    1
    8     8     9    1
    9     8    10    1
   10     8    11    1
   11    11    12    1
   12    11    13    1
   13    11    14    1
   14    14    15    1
   15    14    16    1
   16    14    17    1
   17    17    18    1
   18    17    19    1
   19    17    20    1
   20    20    21    1
   21    20    22    1
   22    22    23    1
   23    22    24    1
   24    22    25    1
   25    20    26    1
   26    26    27    1
   27    26    28    1
   28    26    29    1
@<TRIPOS>SUBSTRUCTURE
       1 MOL1            1 RESIDUE      1      MOL     
@<SCITEGIC>MOL_PROPERTY
VM2 Rank
SciTegic.value.IntegerValue
85

@<SCITEGIC>MOL_PROPERTY
Conf_Id
SciTegic.value.IntegerValue
490

@<SCITEGIC>MOL_PROPERTY
Probability
SciTegic.value.DoubleValue
0.03

@<SCITEGIC>MOL_PROPERTY
Sum Probability
SciTegic.value.DoubleValue
98.98

@<SCITEGIC>MOL_PROPERTY
Delta G
SciTegic.value.DoubleValue
3.423

@<SCITEGIC>MOL_PROPERTY
G
SciTegic.value.DoubleValue
37.126

@<SCITEGIC>MOL_PROPERTY
E
SciTegic.value.DoubleValue
-0.623

@<SCITEGIC>MOL_PROPERTY
-TS
SciTegic.value.DoubleValue
37.749

@<SCITEGIC>MOL_PROPERTY
U+W
SciTegic.value.DoubleValue
-24.768

@<SCITEGIC>MOL_PROPERTY
U
SciTegic.value.DoubleValue
27.668

@<SCITEGIC>MOL_PROPERTY
W
SciTegic.value.DoubleValue
-52.436

@<SCITEGIC>MOL_PROPERTY
W(PB)
SciTegic.value.DoubleValue
-54.936

@<SCITEGIC>MOL_PROPERTY
W(SA)
SciTegic.value.DoubleValue
2.500

@<SCITEGIC>MOL_PROPERTY
Valence
SciTegic.value.DoubleValue
6.132

@<SCITEGIC>MOL_PROPERTY
Coulomb
SciTegic.value.DoubleValue
20.412

@<SCITEGIC>MOL_PROPERTY
VdW
SciTegic.value.DoubleValue
1.124

@<SCITEGIC>MOL_PROPERTY
VdW6
SciTegic.value.DoubleValue
-9.581

@<SCITEGIC>MOL_PROPERTY
VdW12
SciTegic.value.DoubleValue
10.705

@<SCITEGIC>MOL_PROPERTY
Bond
SciTegic.value.DoubleValue
0.273

@<SCITEGIC>MOL_PROPERTY
Angle
SciTegic.value.DoubleValue
1.615

@<SCITEGIC>MOL_PROPERTY
Pdih
SciTegic.value.DoubleValue
4.244

@<SCITEGIC>MOL_PROPERTY
Idih
SciTegic.value.DoubleValue
0.000

@<SCITEGIC>MOL_PROPERTY
Tether
SciTegic.value.DoubleValue
0.000

@<TRIPOS>MOLECULE
guest-s15_vm2.mol2 : vm2 ligand conformer 86
          29          28           1
SMALL
USER_CHARGES
 
@<TRIPOS>ATOM
       1    C1      19.829028   20.917547   20.151072 C.3        1 MOL1        -0.2426
       2    H1      19.103438   21.547670   20.681826 H          1 MOL1         0.0959
       3    H2      20.837214   21.277275   20.394790 H          1 MOL1         0.0959
       4    H3      19.672450   21.057626   19.073623 H          1 MOL1         0.0959
       5    C2      19.661657   19.432743   20.537386 C.3        1 MOL1        -0.1410
       6    H4      20.376414   18.825017   19.964972 H          1 MOL1         0.0948
       7    H5      18.656166   19.092563   20.252438 H          1 MOL1         0.0948
       8    C3      19.878547   19.208429   22.050130 C.3        1 MOL1        -0.1435
       9    H6      20.887022   19.543737   22.328967 H          1 MOL1         0.0948
      10    H7      19.161708   19.828445   22.603089 H          1 MOL1         0.0948
      11    C4      19.694837   17.724092   22.442996 C.3        1 MOL1        -0.1435
      12    H8      20.290132   17.099373   21.762738 H          1 MOL1         0.0948
      13    H9      18.647288   17.432400   22.285429 H          1 MOL1         0.0948
      14    C5      20.113737   17.383698   23.896820 C.3        1 MOL1        -0.1435
      15    H10     19.978351   16.301581   24.030864 H          1 MOL1         0.0948
      16    H11     21.188677   17.559125   24.025812 H          1 MOL1         0.0948
      17    C6      19.293473   18.105050   25.001534 C.3        1 MOL1        -0.1500
      18    H12     19.308234   17.489509   25.910817 H          1 MOL1         0.0948
      19    H13     18.242165   18.146114   24.687595 H          1 MOL1         0.0948
      20    C7      19.779920   19.528076   25.369708 C.3        1 MOL1         0.1162
      21    H14     19.900448   20.111167   24.454311 H          1 MOL1         0.0910
      22    C8      21.130775   19.504322   26.107668 C.3        1 MOL1        -0.2491
      23    H15     21.074136   18.897816   27.020150 H          1 MOL1         0.0959
      24    H16     21.927669   19.097567   25.475283 H          1 MOL1         0.0959
      25    H17     21.431400   20.519724   26.393896 H          1 MOL1         0.0959
      26    N1      18.754026   20.252044   26.196686 N.4        1 MOL1        -0.5987
      27    H18     17.856196   20.320894   25.708881 H          1 MOL1         0.3605
      28    H19     19.055692   21.205652   26.416541 H          1 MOL1         0.3605
      29    H20     18.585174   19.772984   27.085400 H          1 MOL1         0.3605
@<TRIPOS>BOND
    1     1     2    1
    2     1     3    1
    3     1     4    1
    4     1     5    1
    5     5     6    1
    6     5     7    1
    7     5     8    1
    8     8     9    1
    9     8    10    1
   10     8    11    1
   11    11    12    1
   12    11    13    1
   13    11    14    1
   14    14    15    1
   15    14    16    1
   16    14    17    1
   17    17    18    1
   18    17    19    1
   19    17    20    1
   20    20    21    1
   21    20    22    1
   22    22    23    1
   23    22    24    1
   24    22    25    1
   25    20    26    1
   26    26    27    1
   27    26    28    1
   28    26    29    1
@<TRIPOS>SUBSTRUCTURE
       1 MOL1            1 RESIDUE      1      MOL     
@<SCITEGIC>MOL_PROPERTY
VM2 Rank
SciTegic.value.IntegerValue
86

@<SCITEGIC>MOL_PROPERTY
Conf_Id
SciTegic.value.IntegerValue
1025

@<SCITEGIC>MOL_PROPERTY
Probability
SciTegic.value.DoubleValue
0.03

@<SCITEGIC>MOL_PROPERTY
Sum Probability
SciTegic.value.DoubleValue
99.01

@<SCITEGIC>MOL_PROPERTY
Delta G
SciTegic.value.DoubleValue
3.442

@<SCITEGIC>MOL_PROPERTY
G
SciTegic.value.DoubleValue
37.144

@<SCITEGIC>MOL_PROPERTY
E
SciTegic.value.DoubleValue
-0.497

@<SCITEGIC>MOL_PROPERTY
-TS
SciTegic.value.DoubleValue
37.641

@<SCITEGIC>MOL_PROPERTY
U+W
SciTegic.value.DoubleValue
-24.642

@<SCITEGIC>MOL_PROPERTY
U
SciTegic.value.DoubleValue
27.991

@<SCITEGIC>MOL_PROPERTY
W
SciTegic.value.DoubleValue
-52.632

@<SCITEGIC>MOL_PROPERTY
W(PB)
SciTegic.value.DoubleValue
-55.124

@<SCITEGIC>MOL_PROPERTY
W(SA)
SciTegic.value.DoubleValue
2.492

@<SCITEGIC>MOL_PROPERTY
Valence
SciTegic.value.DoubleValue
6.342

@<SCITEGIC>MOL_PROPERTY
Coulomb
SciTegic.value.DoubleValue
20.686

@<SCITEGIC>MOL_PROPERTY
VdW
SciTegic.value.DoubleValue
0.963

@<SCITEGIC>MOL_PROPERTY
VdW6
SciTegic.value.DoubleValue
-10.030

@<SCITEGIC>MOL_PROPERTY
VdW12
SciTegic.value.DoubleValue
10.993

@<SCITEGIC>MOL_PROPERTY
Bond
SciTegic.value.DoubleValue
0.289

@<SCITEGIC>MOL_PROPERTY
Angle
SciTegic.value.DoubleValue
2.141

@<SCITEGIC>MOL_PROPERTY
Pdih
SciTegic.value.DoubleValue
3.912

@<SCITEGIC>MOL_PROPERTY
Idih
SciTegic.value.DoubleValue
0.000

@<SCITEGIC>MOL_PROPERTY
Tether
SciTegic.value.DoubleValue
0.000

@<TRIPOS>MOLECULE
guest-s15_vm2.mol2 : vm2 ligand conformer 87
          29          28           1
SMALL
USER_CHARGES
 
@<TRIPOS>ATOM
       1    C1      20.772989   18.337206   19.823464 C.3        1 MOL1        -0.2426
       2    H1      21.774394   18.575433   20.205089 H          1 MOL1         0.0959
       3    H2      20.779427   17.291473   19.489657 H          1 MOL1         0.0959
       4    H3      20.581671   18.969681   18.946761 H          1 MOL1         0.0959
       5    C2      19.699384   18.555748   20.910266 C.3        1 MOL1        -0.1410
       6    H4      19.895412   17.879029   21.750693 H          1 MOL1         0.0948
       7    H5      18.715556   18.276004   20.508316 H          1 MOL1         0.0948
       8    C3      19.663180   20.027523   21.388051 C.3        1 MOL1        -0.1435
       9    H6      20.658552   20.346166   21.726819 H          1 MOL1         0.0948
      10    H7      19.421201   20.660777   20.523266 H          1 MOL1         0.0948
      11    C4      18.611990   20.289059   22.498088 C.3        1 MOL1        -0.1435
      12    H8      17.780553   19.576025   22.411479 H          1 MOL1         0.0948
      13    H9      18.170098   21.279892   22.323676 H          1 MOL1         0.0948
      14    C5      19.175041   20.277612   23.942884 C.3        1 MOL1        -0.1435
      15    H10     19.927793   21.071444   24.046079 H          1 MOL1         0.0948
      16    H11     18.355969   20.542045   24.624218 H          1 MOL1         0.0948
      17    C6      19.794462   18.924729   24.374350 C.3        1 MOL1        -0.1500
      18    H12     20.661483   18.711329   23.737094 H          1 MOL1         0.0948
      19    H13     19.070936   18.114536   24.213971 H          1 MOL1         0.0948
      20    C7      20.264767   18.917744   25.845139 C.3        1 MOL1         0.1162
      21    H14     20.950037   19.758533   25.990471 H          1 MOL1         0.0910
      22    C8      21.023157   17.617519   26.156401 C.3        1 MOL1        -0.2491
      23    H15     20.377415   16.740180   26.025064 H          1 MOL1         0.0959
      24    H16     21.891607   17.504557   25.495485 H          1 MOL1         0.0959
      25    H17     21.390396   17.620095   27.190102 H          1 MOL1         0.0959
      26    N1      19.131030   19.108862   26.815358 N.4        1 MOL1        -0.5987
      27    H18     18.643156   19.993513   26.651366 H          1 MOL1         0.3605
      28    H19     19.464855   19.118189   27.783396 H          1 MOL1         0.3605
      29    H20     18.441488   18.356721   26.735918 H          1 MOL1         0.3605
@<TRIPOS>BOND
    1     1     2    1
    2     1     3    1
    3     1     4    1
    4     1     5    1
    5     5     6    1
    6     5     7    1
    7     5     8    1
    8     8     9    1
    9     8    10    1
   10     8    11    1
   11    11    12    1
   12    11    13    1
   13    11    14    1
   14    14    15    1
   15    14    16    1
   16    14    17    1
   17    17    18    1
   18    17    19    1
   19    17    20    1
   20    20    21    1
   21    20    22    1
   22    22    23    1
   23    22    24    1
   24    22    25    1
   25    20    26    1
   26    26    27    1
   27    26    28    1
   28    26    29    1
@<TRIPOS>SUBSTRUCTURE
       1 MOL1            1 RESIDUE      1      MOL     
@<SCITEGIC>MOL_PROPERTY
VM2 Rank
SciTegic.value.IntegerValue
87

@<SCITEGIC>MOL_PROPERTY
Conf_Id
SciTegic.value.IntegerValue
1201

@<SCITEGIC>MOL_PROPERTY
Probability
SciTegic.value.DoubleValue
0.03

@<SCITEGIC>MOL_PROPERTY
Sum Probability
SciTegic.value.DoubleValue
99.04

@<SCITEGIC>MOL_PROPERTY
Delta G
SciTegic.value.DoubleValue
3.449

@<SCITEGIC>MOL_PROPERTY
G
SciTegic.value.DoubleValue
37.151

@<SCITEGIC>MOL_PROPERTY
E
SciTegic.value.DoubleValue
-0.617

@<SCITEGIC>MOL_PROPERTY
-TS
SciTegic.value.DoubleValue
37.768

@<SCITEGIC>MOL_PROPERTY
U+W
SciTegic.value.DoubleValue
-24.762

@<SCITEGIC>MOL_PROPERTY
U
SciTegic.value.DoubleValue
27.456

@<SCITEGIC>MOL_PROPERTY
W
SciTegic.value.DoubleValue
-52.217

@<SCITEGIC>MOL_PROPERTY
W(PB)
SciTegic.value.DoubleValue
-54.678

@<SCITEGIC>MOL_PROPERTY
W(SA)
SciTegic.value.DoubleValue
2.461

@<SCITEGIC>MOL_PROPERTY
Valence
SciTegic.value.DoubleValue
6.249

@<SCITEGIC>MOL_PROPERTY
Coulomb
SciTegic.value.DoubleValue
20.070

@<SCITEGIC>MOL_PROPERTY
VdW
SciTegic.value.DoubleValue
1.137

@<SCITEGIC>MOL_PROPERTY
VdW6
SciTegic.value.DoubleValue
-9.668

@<SCITEGIC>MOL_PROPERTY
VdW12
SciTegic.value.DoubleValue
10.805

@<SCITEGIC>MOL_PROPERTY
Bond
SciTegic.value.DoubleValue
0.280

@<SCITEGIC>MOL_PROPERTY
Angle
SciTegic.value.DoubleValue
1.672

@<SCITEGIC>MOL_PROPERTY
Pdih
SciTegic.value.DoubleValue
4.297

@<SCITEGIC>MOL_PROPERTY
Idih
SciTegic.value.DoubleValue
0.000

@<SCITEGIC>MOL_PROPERTY
Tether
SciTegic.value.DoubleValue
0.000

@<TRIPOS>MOLECULE
guest-s15_vm2.mol2 : vm2 ligand conformer 88
          29          28           1
SMALL
USER_CHARGES
 
@<TRIPOS>ATOM
       1    C1      19.201063   20.842081   20.638864 C.3        1 MOL1        -0.2426
       2    H1      18.291162   21.329139   20.265037 H          1 MOL1         0.0959
       3    H2      19.297033   21.088737   21.701813 H          1 MOL1         0.0959
       4    H3      20.056044   21.284676   20.111445 H          1 MOL1         0.0959
       5    C2      19.135296   19.315824   20.398108 C.3        1 MOL1        -0.1410
       6    H4      19.019651   19.148577   19.318051 H          1 MOL1         0.0948
       7    H5      18.235912   18.893108   20.867119 H          1 MOL1         0.0948
       8    C3      20.400681   18.561697   20.881802 C.3        1 MOL1        -0.1435
       9    H6      20.596456   17.738292   20.181061 H          1 MOL1         0.0948
      10    H7      21.280340   19.217136   20.820594 H          1 MOL1         0.0948
      11    C4      20.290787   17.948466   22.301679 C.3        1 MOL1        -0.1435
      12    H8      21.212826   17.386316   22.504330 H          1 MOL1         0.0948
      13    H9      19.474460   17.213234   22.319062 H          1 MOL1         0.0948
      14    C5      20.073173   18.984360   23.428737 C.3        1 MOL1        -0.1435
      15    H10     20.834686   19.773036   23.354999 H          1 MOL1         0.0948
      16    H11     19.094334   19.460943   23.295764 H          1 MOL1         0.0948
      17    C6      20.141329   18.329760   24.829947 C.3        1 MOL1        -0.1500
      18    H12     21.104523   17.812615   24.934103 H          1 MOL1         0.0948
      19    H13     19.361635   17.561596   24.919355 H          1 MOL1         0.0948
      20    C7      19.999253   19.350967   25.979310 C.3        1 MOL1         0.1162
      21    H14     20.768678   20.118859   25.852922 H          1 MOL1         0.0910
      22    C8      20.221992   18.663206   27.335647 C.3        1 MOL1        -0.2491
      23    H15     21.215274   18.199246   27.379093 H          1 MOL1         0.0959
      24    H16     20.158436   19.390141   28.154750 H          1 MOL1         0.0959
      25    H17     19.471972   17.882117   27.512606 H          1 MOL1         0.0959
      26    N1      18.672426   20.059637   25.959907 N.4        1 MOL1        -0.5987
      27    H18     18.604061   20.745741   26.717072 H          1 MOL1         0.3605
      28    H19     17.896747   19.401296   26.071712 H          1 MOL1         0.3605
      29    H20     18.528766   20.560090   25.078755 H          1 MOL1         0.3605
@<TRIPOS>BOND
    1     1     2    1
    2     1     3    1
    3     1     4    1
    4     1     5    1
    5     5     6    1
    6     5     7    1
    7     5     8    1
    8     8     9    1
    9     8    10    1
   10     8    11    1
   11    11    12    1
   12    11    13    1
   13    11    14    1
   14    14    15    1
   15    14    16    1
   16    14    17    1
   17    17    18    1
   18    17    19    1
   19    17    20    1
   20    20    21    1
   21    20    22    1
   22    22    23    1
   23    22    24    1
   24    22    25    1
   25    20    26    1
   26    26    27    1
   27    26    28    1
   28    26    29    1
@<TRIPOS>SUBSTRUCTURE
       1 MOL1            1 RESIDUE      1      MOL     
@<SCITEGIC>MOL_PROPERTY
VM2 Rank
SciTegic.value.IntegerValue
88

@<SCITEGIC>MOL_PROPERTY
Conf_Id
SciTegic.value.IntegerValue
603

@<SCITEGIC>MOL_PROPERTY
Probability
SciTegic.value.DoubleValue
0.03

@<SCITEGIC>MOL_PROPERTY
Sum Probability
SciTegic.value.DoubleValue
99.07

@<SCITEGIC>MOL_PROPERTY
Delta G
SciTegic.value.DoubleValue
3.457

@<SCITEGIC>MOL_PROPERTY
G
SciTegic.value.DoubleValue
37.159

@<SCITEGIC>MOL_PROPERTY
E
SciTegic.value.DoubleValue
-0.575

@<SCITEGIC>MOL_PROPERTY
-TS
SciTegic.value.DoubleValue
37.734

@<SCITEGIC>MOL_PROPERTY
U+W
SciTegic.value.DoubleValue
-24.719

@<SCITEGIC>MOL_PROPERTY
U
SciTegic.value.DoubleValue
27.696

@<SCITEGIC>MOL_PROPERTY
W
SciTegic.value.DoubleValue
-52.415

@<SCITEGIC>MOL_PROPERTY
W(PB)
SciTegic.value.DoubleValue
-54.878

@<SCITEGIC>MOL_PROPERTY
W(SA)
SciTegic.value.DoubleValue
2.463

@<SCITEGIC>MOL_PROPERTY
Valence
SciTegic.value.DoubleValue
6.157

@<SCITEGIC>MOL_PROPERTY
Coulomb
SciTegic.value.DoubleValue
20.386

@<SCITEGIC>MOL_PROPERTY
VdW
SciTegic.value.DoubleValue
1.152

@<SCITEGIC>MOL_PROPERTY
VdW6
SciTegic.value.DoubleValue
-9.567

@<SCITEGIC>MOL_PROPERTY
VdW12
SciTegic.value.DoubleValue
10.719

@<SCITEGIC>MOL_PROPERTY
Bond
SciTegic.value.DoubleValue
0.273

@<SCITEGIC>MOL_PROPERTY
Angle
SciTegic.value.DoubleValue
1.661

@<SCITEGIC>MOL_PROPERTY
Pdih
SciTegic.value.DoubleValue
4.223

@<SCITEGIC>MOL_PROPERTY
Idih
SciTegic.value.DoubleValue
0.000

@<SCITEGIC>MOL_PROPERTY
Tether
SciTegic.value.DoubleValue
0.000

@<TRIPOS>MOLECULE
guest-s15_vm2.mol2 : vm2 ligand conformer 89
          29          28           1
SMALL
USER_CHARGES
 
@<TRIPOS>ATOM
       1    C1      18.257319   19.145321   19.998482 C.3        1 MOL1        -0.2426
       2    H1      18.012269   20.207586   19.868906 H          1 MOL1         0.0959
       3    H2      18.790564   18.805315   19.101118 H          1 MOL1         0.0959
       4    H3      17.314318   18.586943   20.061513 H          1 MOL1         0.0959
       5    C2      19.107570   18.923541   21.267236 C.3        1 MOL1        -0.1410
       6    H4      19.314654   17.850758   21.384509 H          1 MOL1         0.0948
       7    H5      18.524901   19.240232   22.142016 H          1 MOL1         0.0948
       8    C3      20.436465   19.710504   21.207637 C.3        1 MOL1        -0.1435
       9    H6      20.944746   19.480435   20.261063 H          1 MOL1         0.0948
      10    H7      20.221274   20.787691   21.184126 H          1 MOL1         0.0948
      11    C4      21.416088   19.405833   22.370334 C.3        1 MOL1        -0.1435
      12    H8      22.330460   19.988464   22.191768 H          1 MOL1         0.0948
      13    H9      21.726316   18.352437   22.335918 H          1 MOL1         0.0948
      14    C5      20.882523   19.766297   23.781381 C.3        1 MOL1        -0.1435
      15    H10     21.723543   20.132232   24.386728 H          1 MOL1         0.0948
      16    H11     20.175279   20.602679   23.706366 H          1 MOL1         0.0948
      17    C6      20.244883   18.562723   24.523689 C.3        1 MOL1        -0.1500
      18    H12     20.986932   17.755653   24.586079 H          1 MOL1         0.0948
      19    H13     19.398711   18.159435   23.956311 H          1 MOL1         0.0948
      20    C7      19.780398   18.917989   25.952460 C.3        1 MOL1         0.1162
      21    H14     20.633138   19.335273   26.496833 H          1 MOL1         0.0910
      22    C8      19.307226   17.655484   26.690395 C.3        1 MOL1        -0.2491
      23    H15     19.009360   17.895421   27.718555 H          1 MOL1         0.0959
      24    H16     18.448469   17.197608   26.183612 H          1 MOL1         0.0959
      25    H17     20.110597   16.910064   26.742339 H          1 MOL1         0.0959
      26    N1      18.703528   19.968310   25.962386 N.4        1 MOL1        -0.5987
      27    H18     19.018826   20.830790   25.510370 H          1 MOL1         0.3605
      28    H19     18.424062   20.207716   26.918041 H          1 MOL1         0.3605
      29    H20     17.865966   19.648523   25.468870 H          1 MOL1         0.3605
@<TRIPOS>BOND
    1     1     2    1
    2     1     3    1
    3     1     4    1
    4     1     5    1
    5     5     6    1
    6     5     7    1
    7     5     8    1
    8     8     9    1
    9     8    10    1
   10     8    11    1
   11    11    12    1
   12    11    13    1
   13    11    14    1
   14    14    15    1
   15    14    16    1
   16    14    17    1
   17    17    18    1
   18    17    19    1
   19    17    20    1
   20    20    21    1
   21    20    22    1
   22    22    23    1
   23    22    24    1
   24    22    25    1
   25    20    26    1
   26    26    27    1
   27    26    28    1
   28    26    29    1
@<TRIPOS>SUBSTRUCTURE
       1 MOL1            1 RESIDUE      1      MOL     
@<SCITEGIC>MOL_PROPERTY
VM2 Rank
SciTegic.value.IntegerValue
89

@<SCITEGIC>MOL_PROPERTY
Conf_Id
SciTegic.value.IntegerValue
188

@<SCITEGIC>MOL_PROPERTY
Probability
SciTegic.value.DoubleValue
0.03

@<SCITEGIC>MOL_PROPERTY
Sum Probability
SciTegic.value.DoubleValue
99.10

@<SCITEGIC>MOL_PROPERTY
Delta G
SciTegic.value.DoubleValue
3.515

@<SCITEGIC>MOL_PROPERTY
G
SciTegic.value.DoubleValue
37.217

@<SCITEGIC>MOL_PROPERTY
E
SciTegic.value.DoubleValue
-0.534

@<SCITEGIC>MOL_PROPERTY
-TS
SciTegic.value.DoubleValue
37.751

@<SCITEGIC>MOL_PROPERTY
U+W
SciTegic.value.DoubleValue
-24.679

@<SCITEGIC>MOL_PROPERTY
U
SciTegic.value.DoubleValue
27.894

@<SCITEGIC>MOL_PROPERTY
W
SciTegic.value.DoubleValue
-52.570

@<SCITEGIC>MOL_PROPERTY
W(PB)
SciTegic.value.DoubleValue
-55.035

@<SCITEGIC>MOL_PROPERTY
W(SA)
SciTegic.value.DoubleValue
2.466

@<SCITEGIC>MOL_PROPERTY
Valence
SciTegic.value.DoubleValue
6.176

@<SCITEGIC>MOL_PROPERTY
Coulomb
SciTegic.value.DoubleValue
20.675

@<SCITEGIC>MOL_PROPERTY
VdW
SciTegic.value.DoubleValue
1.043

@<SCITEGIC>MOL_PROPERTY
VdW6
SciTegic.value.DoubleValue
-9.723

@<SCITEGIC>MOL_PROPERTY
VdW12
SciTegic.value.DoubleValue
10.766

@<SCITEGIC>MOL_PROPERTY
Bond
SciTegic.value.DoubleValue
0.282

@<SCITEGIC>MOL_PROPERTY
Angle
SciTegic.value.DoubleValue
1.681

@<SCITEGIC>MOL_PROPERTY
Pdih
SciTegic.value.DoubleValue
4.213

@<SCITEGIC>MOL_PROPERTY
Idih
SciTegic.value.DoubleValue
0.000

@<SCITEGIC>MOL_PROPERTY
Tether
SciTegic.value.DoubleValue
0.000

@<TRIPOS>MOLECULE
guest-s15_vm2.mol2 : vm2 ligand conformer 90
          29          28           1
SMALL
USER_CHARGES
 
@<TRIPOS>ATOM
       1    C1      18.349210   20.200994   20.267785 C.3        1 MOL1        -0.2426
       2    H1      18.684897   21.228518   20.458914 H          1 MOL1         0.0959
       3    H2      17.723576   20.214698   19.365936 H          1 MOL1         0.0959
       4    H3      17.713788   19.884531   21.104076 H          1 MOL1         0.0959
       5    C2      19.552191   19.249713   20.076152 C.3        1 MOL1        -0.1410
       6    H4      20.082124   19.530933   19.155365 H          1 MOL1         0.0948
       7    H5      19.190967   18.223380   19.921605 H          1 MOL1         0.0948
       8    C3      20.555448   19.279901   21.254358 C.3        1 MOL1        -0.1435
       9    H6      21.426901   18.667187   20.985187 H          1 MOL1         0.0948
      10    H7      20.928603   20.304161   21.391766 H          1 MOL1         0.0948
      11    C4      19.961129   18.757776   22.584266 C.3        1 MOL1        -0.1435
      12    H8      19.549707   17.751102   22.427688 H          1 MOL1         0.0948
      13    H9      19.125141   19.397263   22.883414 H          1 MOL1         0.0948
      14    C5      21.029136   18.707827   23.704774 C.3        1 MOL1        -0.1435
      15    H10     21.849483   18.060909   23.364078 H          1 MOL1         0.0948
      16    H11     21.471234   19.702190   23.857489 H          1 MOL1         0.0948
      17    C6      20.502736   18.149389   25.053277 C.3        1 MOL1        -0.1500
      18    H12     21.349082   17.678682   25.571200 H          1 MOL1         0.0948
      19    H13     19.774758   17.346635   24.876087 H          1 MOL1         0.0948
      20    C7      19.908124   19.217342   26.001172 C.3        1 MOL1         0.1162
      21    H14     20.661908   19.996380   26.151074 H          1 MOL1         0.0910
      22    C8      19.586463   18.592767   27.368458 C.3        1 MOL1        -0.2491
      23    H15     19.202916   19.351534   28.061708 H          1 MOL1         0.0959
      24    H16     18.831706   17.801769   27.275624 H          1 MOL1         0.0959
      25    H17     20.485953   18.155483   27.819503 H          1 MOL1         0.0959
      26    N1      18.691563   19.900290   25.443759 N.4        1 MOL1        -0.5987
      27    H18     18.330348   20.606979   26.090941 H          1 MOL1         0.3605
      28    H19     17.937987   19.231045   25.265843 H          1 MOL1         0.3605
      29    H20     18.906313   20.371916   24.561259 H          1 MOL1         0.3605
@<TRIPOS>BOND
    1     1     2    1
    2     1     3    1
    3     1     4    1
    4     1     5    1
    5     5     6    1
    6     5     7    1
    7     5     8    1
    8     8     9    1
    9     8    10    1
   10     8    11    1
   11    11    12    1
   12    11    13    1
   13    11    14    1
   14    14    15    1
   15    14    16    1
   16    14    17    1
   17    17    18    1
   18    17    19    1
   19    17    20    1
   20    20    21    1
   21    20    22    1
   22    22    23    1
   23    22    24    1
   24    22    25    1
   25    20    26    1
   26    26    27    1
   27    26    28    1
   28    26    29    1
@<TRIPOS>SUBSTRUCTURE
       1 MOL1            1 RESIDUE      1      MOL     
@<SCITEGIC>MOL_PROPERTY
VM2 Rank
SciTegic.value.IntegerValue
90

@<SCITEGIC>MOL_PROPERTY
Conf_Id
SciTegic.value.IntegerValue
1316

@<SCITEGIC>MOL_PROPERTY
Probability
SciTegic.value.DoubleValue
0.03

@<SCITEGIC>MOL_PROPERTY
Sum Probability
SciTegic.value.DoubleValue
99.13

@<SCITEGIC>MOL_PROPERTY
Delta G
SciTegic.value.DoubleValue
3.525

@<SCITEGIC>MOL_PROPERTY
G
SciTegic.value.DoubleValue
37.228

@<SCITEGIC>MOL_PROPERTY
E
SciTegic.value.DoubleValue
-0.128

@<SCITEGIC>MOL_PROPERTY
-TS
SciTegic.value.DoubleValue
37.356

@<SCITEGIC>MOL_PROPERTY
U+W
SciTegic.value.DoubleValue
-24.273

@<SCITEGIC>MOL_PROPERTY
U
SciTegic.value.DoubleValue
27.845

@<SCITEGIC>MOL_PROPERTY
W
SciTegic.value.DoubleValue
-52.117

@<SCITEGIC>MOL_PROPERTY
W(PB)
SciTegic.value.DoubleValue
-54.607

@<SCITEGIC>MOL_PROPERTY
W(SA)
SciTegic.value.DoubleValue
2.490

@<SCITEGIC>MOL_PROPERTY
Valence
SciTegic.value.DoubleValue
5.676

@<SCITEGIC>MOL_PROPERTY
Coulomb
SciTegic.value.DoubleValue
20.987

@<SCITEGIC>MOL_PROPERTY
VdW
SciTegic.value.DoubleValue
1.181

@<SCITEGIC>MOL_PROPERTY
VdW6
SciTegic.value.DoubleValue
-9.499

@<SCITEGIC>MOL_PROPERTY
VdW12
SciTegic.value.DoubleValue
10.680

@<SCITEGIC>MOL_PROPERTY
Bond
SciTegic.value.DoubleValue
0.294

@<SCITEGIC>MOL_PROPERTY
Angle
SciTegic.value.DoubleValue
1.639

@<SCITEGIC>MOL_PROPERTY
Pdih
SciTegic.value.DoubleValue
3.743

@<SCITEGIC>MOL_PROPERTY
Idih
SciTegic.value.DoubleValue
0.000

@<SCITEGIC>MOL_PROPERTY
Tether
SciTegic.value.DoubleValue
0.000

@<TRIPOS>MOLECULE
guest-s15_vm2.mol2 : vm2 ligand conformer 91
          29          28           1
SMALL
USER_CHARGES
 
@<TRIPOS>ATOM
       1    C1      20.128850   20.859177   20.080994 C.3        1 MOL1        -0.2426
       2    H1      20.700814   21.521007   20.744381 H          1 MOL1         0.0959
       3    H2      20.590721   20.898565   19.085926 H          1 MOL1         0.0959
       4    H3      19.109667   21.258168   19.995508 H          1 MOL1         0.0959
       5    C2      20.114849   19.412354   20.618092 C.3        1 MOL1        -0.1410
       6    H4      21.144218   19.029681   20.661409 H          1 MOL1         0.0948
       7    H5      19.566397   18.768595   19.916190 H          1 MOL1         0.0948
       8    C3      19.468482   19.328801   22.018414 C.3        1 MOL1        -0.1435
       9    H6      20.017146   19.988705   22.698809 H          1 MOL1         0.0948
      10    H7      18.439221   19.709319   21.964909 H          1 MOL1         0.0948
      11    C4      19.455781   17.876771   22.556249 C.3        1 MOL1        -0.1435
      12    H8      20.480201   17.484936   22.621109 H          1 MOL1         0.0948
      13    H9      18.937739   17.247288   21.819375 H          1 MOL1         0.0948
      14    C5      18.734902   17.709953   23.919641 C.3        1 MOL1        -0.1435
      15    H10     17.861411   18.372969   23.975742 H          1 MOL1         0.0948
      16    H11     18.326974   16.690390   23.958951 H          1 MOL1         0.0948
      17    C6      19.644311   17.886267   25.165934 C.3        1 MOL1        -0.1500
      18    H12     20.462118   17.155459   25.111398 H          1 MOL1         0.0948
      19    H13     19.065342   17.625249   26.061818 H          1 MOL1         0.0948
      20    C7      20.243728   19.296272   25.352831 C.3        1 MOL1         0.1162
      21    H14     20.851108   19.531904   24.475150 H          1 MOL1         0.0910
      22    C8      21.161314   19.327872   26.585232 C.3        1 MOL1        -0.2491
      23    H15     20.603207   19.101464   27.502391 H          1 MOL1         0.0959
      24    H16     21.970385   18.593311   26.487394 H          1 MOL1         0.0959
      25    H17     21.621899   20.316747   26.700868 H          1 MOL1         0.0959
      26    N1      19.183783   20.358532   25.456612 N.4        1 MOL1        -0.5987
      27    H18     18.583651   20.364275   24.627485 H          1 MOL1         0.3605
      28    H19     19.595458   21.291593   25.549345 H          1 MOL1         0.3605
      29    H20     18.583620   20.205511   26.271493 H          1 MOL1         0.3605
@<TRIPOS>BOND
    1     1     2    1
    2     1     3    1
    3     1     4    1
    4     1     5    1
    5     5     6    1
    6     5     7    1
    7     5     8    1
    8     8     9    1
    9     8    10    1
   10     8    11    1
   11    11    12    1
   12    11    13    1
   13    11    14    1
   14    14    15    1
   15    14    16    1
   16    14    17    1
   17    17    18    1
   18    17    19    1
   19    17    20    1
   20    20    21    1
   21    20    22    1
   22    22    23    1
   23    22    24    1
   24    22    25    1
   25    20    26    1
   26    26    27    1
   27    26    28    1
   28    26    29    1
@<TRIPOS>SUBSTRUCTURE
       1 MOL1            1 RESIDUE      1      MOL     
@<SCITEGIC>MOL_PROPERTY
VM2 Rank
SciTegic.value.IntegerValue
91

@<SCITEGIC>MOL_PROPERTY
Conf_Id
SciTegic.value.IntegerValue
902

@<SCITEGIC>MOL_PROPERTY
Probability
SciTegic.value.DoubleValue
0.03

@<SCITEGIC>MOL_PROPERTY
Sum Probability
SciTegic.value.DoubleValue
99.16

@<SCITEGIC>MOL_PROPERTY
Delta G
SciTegic.value.DoubleValue
3.546

@<SCITEGIC>MOL_PROPERTY
G
SciTegic.value.DoubleValue
37.248

@<SCITEGIC>MOL_PROPERTY
E
SciTegic.value.DoubleValue
-0.604

@<SCITEGIC>MOL_PROPERTY
-TS
SciTegic.value.DoubleValue
37.852

@<SCITEGIC>MOL_PROPERTY
U+W
SciTegic.value.DoubleValue
-24.749

@<SCITEGIC>MOL_PROPERTY
U
SciTegic.value.DoubleValue
27.636

@<SCITEGIC>MOL_PROPERTY
W
SciTegic.value.DoubleValue
-52.385

@<SCITEGIC>MOL_PROPERTY
W(PB)
SciTegic.value.DoubleValue
-54.895

@<SCITEGIC>MOL_PROPERTY
W(SA)
SciTegic.value.DoubleValue
2.510

@<SCITEGIC>MOL_PROPERTY
Valence
SciTegic.value.DoubleValue
5.823

@<SCITEGIC>MOL_PROPERTY
Coulomb
SciTegic.value.DoubleValue
21.132

@<SCITEGIC>MOL_PROPERTY
VdW
SciTegic.value.DoubleValue
0.682

@<SCITEGIC>MOL_PROPERTY
VdW6
SciTegic.value.DoubleValue
-10.106

@<SCITEGIC>MOL_PROPERTY
VdW12
SciTegic.value.DoubleValue
10.787

@<SCITEGIC>MOL_PROPERTY
Bond
SciTegic.value.DoubleValue
0.276

@<SCITEGIC>MOL_PROPERTY
Angle
SciTegic.value.DoubleValue
1.914

@<SCITEGIC>MOL_PROPERTY
Pdih
SciTegic.value.DoubleValue
3.633

@<SCITEGIC>MOL_PROPERTY
Idih
SciTegic.value.DoubleValue
0.000

@<SCITEGIC>MOL_PROPERTY
Tether
SciTegic.value.DoubleValue
0.000

@<TRIPOS>MOLECULE
guest-s15_vm2.mol2 : vm2 ligand conformer 92
          29          28           1
SMALL
USER_CHARGES
 
@<TRIPOS>ATOM
       1    C1      20.704121   19.215813   19.875814 C.3        1 MOL1        -0.2426
       2    H1      20.856118   19.598796   18.858402 H          1 MOL1         0.0959
       3    H2      21.692407   19.064315   20.328969 H          1 MOL1         0.0959
       4    H3      20.211183   18.239291   19.791146 H          1 MOL1         0.0959
       5    C2      19.858171   20.207118   20.706505 C.3        1 MOL1        -0.1410
       6    H4      18.867916   20.324863   20.244714 H          1 MOL1         0.0948
       7    H5      20.333820   21.197167   20.670516 H          1 MOL1         0.0948
       8    C3      19.698931   19.784695   22.186690 C.3        1 MOL1        -0.1435
       9    H6      20.695716   19.703738   22.638538 H          1 MOL1         0.0948
      10    H7      19.167461   20.582673   22.722943 H          1 MOL1         0.0948
      11    C4      18.932544   18.450810   22.362320 C.3        1 MOL1        -0.1435
      12    H8      19.548165   17.619524   21.993572 H          1 MOL1         0.0948
      13    H9      18.034669   18.470854   21.729395 H          1 MOL1         0.0948
      14    C5      18.489279   18.148192   23.817133 C.3        1 MOL1        -0.1435
      15    H10     17.785837   18.916459   24.162540 H          1 MOL1         0.0948
      16    H11     17.912152   17.213425   23.795308 H          1 MOL1         0.0948
      17    C6      19.651572   17.965186   24.830952 C.3        1 MOL1        -0.1500
      18    H12     20.467140   17.412520   24.345900 H          1 MOL1         0.0948
      19    H13     19.303053   17.326218   25.653259 H          1 MOL1         0.0948
      20    C7      20.197237   19.279177   25.436781 C.3        1 MOL1         0.1162
      21    H14     20.489761   19.949862   24.626270 H          1 MOL1         0.0910
      22    C8      21.442276   18.994062   26.291371 C.3        1 MOL1        -0.2491
      23    H15     21.204447   18.327808   27.130117 H          1 MOL1         0.0959
      24    H16     22.227295   18.519211   25.689680 H          1 MOL1         0.0959
      25    H17     21.854220   19.924903   26.700320 H          1 MOL1         0.0959
      26    N1      19.161869   20.010948   26.246434 N.4        1 MOL1        -0.5987
      27    H18     19.533854   20.885789   26.627066 H          1 MOL1         0.3605
      28    H19     18.839244   19.445890   27.036473 H          1 MOL1         0.3605
      29    H20     18.342185   20.246265   25.680647 H          1 MOL1         0.3605
@<TRIPOS>BOND
    1     1     2    1
    2     1     3    1
    3     1     4    1
    4     1     5    1
    5     5     6    1
    6     5     7    1
    7     5     8    1
    8     8     9    1
    9     8    10    1
   10     8    11    1
   11    11    12    1
   12    11    13    1
   13    11    14    1
   14    14    15    1
   15    14    16    1
   16    14    17    1
   17    17    18    1
   18    17    19    1
   19    17    20    1
   20    20    21    1
   21    20    22    1
   22    22    23    1
   23    22    24    1
   24    22    25    1
   25    20    26    1
   26    26    27    1
   27    26    28    1
   28    26    29    1
@<TRIPOS>SUBSTRUCTURE
       1 MOL1            1 RESIDUE      1      MOL     
@<SCITEGIC>MOL_PROPERTY
VM2 Rank
SciTegic.value.IntegerValue
92

@<SCITEGIC>MOL_PROPERTY
Conf_Id
SciTegic.value.IntegerValue
1322

@<SCITEGIC>MOL_PROPERTY
Probability
SciTegic.value.DoubleValue
0.03

@<SCITEGIC>MOL_PROPERTY
Sum Probability
SciTegic.value.DoubleValue
99.18

@<SCITEGIC>MOL_PROPERTY
Delta G
SciTegic.value.DoubleValue
3.584

@<SCITEGIC>MOL_PROPERTY
G
SciTegic.value.DoubleValue
37.286

@<SCITEGIC>MOL_PROPERTY
E
SciTegic.value.DoubleValue
-0.558

@<SCITEGIC>MOL_PROPERTY
-TS
SciTegic.value.DoubleValue
37.844

@<SCITEGIC>MOL_PROPERTY
U+W
SciTegic.value.DoubleValue
-24.703

@<SCITEGIC>MOL_PROPERTY
U
SciTegic.value.DoubleValue
27.777

@<SCITEGIC>MOL_PROPERTY
W
SciTegic.value.DoubleValue
-52.480

@<SCITEGIC>MOL_PROPERTY
W(PB)
SciTegic.value.DoubleValue
-54.934

@<SCITEGIC>MOL_PROPERTY
W(SA)
SciTegic.value.DoubleValue
2.455

@<SCITEGIC>MOL_PROPERTY
Valence
SciTegic.value.DoubleValue
6.109

@<SCITEGIC>MOL_PROPERTY
Coulomb
SciTegic.value.DoubleValue
20.731

@<SCITEGIC>MOL_PROPERTY
VdW
SciTegic.value.DoubleValue
0.938

@<SCITEGIC>MOL_PROPERTY
VdW6
SciTegic.value.DoubleValue
-10.573

@<SCITEGIC>MOL_PROPERTY
VdW12
SciTegic.value.DoubleValue
11.510

@<SCITEGIC>MOL_PROPERTY
Bond
SciTegic.value.DoubleValue
0.307

@<SCITEGIC>MOL_PROPERTY
Angle
SciTegic.value.DoubleValue
1.994

@<SCITEGIC>MOL_PROPERTY
Pdih
SciTegic.value.DoubleValue
3.808

@<SCITEGIC>MOL_PROPERTY
Idih
SciTegic.value.DoubleValue
0.000

@<SCITEGIC>MOL_PROPERTY
Tether
SciTegic.value.DoubleValue
0.000

@<TRIPOS>MOLECULE
guest-s15_vm2.mol2 : vm2 ligand conformer 93
          29          28           1
SMALL
USER_CHARGES
 
@<TRIPOS>ATOM
       1    C1      20.003258   19.913230   19.169083 C.3        1 MOL1        -0.2426
       2    H1      19.122323   20.508886   18.896370 H          1 MOL1         0.0959
       3    H2      20.884425   20.390476   18.720963 H          1 MOL1         0.0959
       4    H3      19.894719   18.917007   18.720750 H          1 MOL1         0.0959
       5    C2      20.155863   19.817441   20.701867 C.3        1 MOL1        -0.1410
       6    H4      20.292355   20.825373   21.117916 H          1 MOL1         0.0948
       7    H5      21.066963   19.250350   20.934964 H          1 MOL1         0.0948
       8    C3      18.926446   19.144037   21.356037 C.3        1 MOL1        -0.1435
       9    H6      18.018924   19.684164   21.052724 H          1 MOL1         0.0948
      10    H7      18.817623   18.120090   20.972678 H          1 MOL1         0.0948
      11    C4      18.988775   19.115883   22.902767 C.3        1 MOL1        -0.1435
      12    H8      18.040413   18.709782   23.280915 H          1 MOL1         0.0948
      13    H9      19.065807   20.147246   23.268022 H          1 MOL1         0.0948
      14    C5      20.163444   18.267920   23.451943 C.3        1 MOL1        -0.1435
      15    H10     20.197892   17.317148   22.902260 H          1 MOL1         0.0948
      16    H11     21.116378   18.774327   23.247946 H          1 MOL1         0.0948
      17    C6      20.076599   17.940753   24.966029 C.3        1 MOL1        -0.1500
      18    H12     20.886634   17.233681   25.189630 H          1 MOL1         0.0948
      19    H13     19.143342   17.405650   25.185849 H          1 MOL1         0.0948
      20    C7      20.218930   19.163187   25.903468 C.3        1 MOL1         0.1162
      21    H14     21.001277   19.815604   25.503702 H          1 MOL1         0.0910
      22    C8      20.641950   18.711050   27.310898 C.3        1 MOL1        -0.2491
      23    H15     19.895291   18.039350   27.752886 H          1 MOL1         0.0959
      24    H16     21.602360   18.181523   27.279361 H          1 MOL1         0.0959
      25    H17     20.762173   19.574519   27.976823 H          1 MOL1         0.0959
      26    N1      18.960734   19.982498   25.991909 N.4        1 MOL1        -0.5987
      27    H18     18.662436   20.309257   25.070156 H          1 MOL1         0.3605
      28    H19     19.092516   20.806896   26.584991 H          1 MOL1         0.3605
      29    H20     18.190891   19.438474   26.390528 H          1 MOL1         0.3605
@<TRIPOS>BOND
    1     1     2    1
    2     1     3    1
    3     1     4    1
    4     1     5    1
    5     5     6    1
    6     5     7    1
    7     5     8    1
    8     8     9    1
    9     8    10    1
   10     8    11    1
   11    11    12    1
   12    11    13    1
   13    11    14    1
   14    14    15    1
   15    14    16    1
   16    14    17    1
   17    17    18    1
   18    17    19    1
   19    17    20    1
   20    20    21    1
   21    20    22    1
   22    22    23    1
   23    22    24    1
   24    22    25    1
   25    20    26    1
   26    26    27    1
   27    26    28    1
   28    26    29    1
@<TRIPOS>SUBSTRUCTURE
       1 MOL1            1 RESIDUE      1      MOL     
@<SCITEGIC>MOL_PROPERTY
VM2 Rank
SciTegic.value.IntegerValue
93

@<SCITEGIC>MOL_PROPERTY
Conf_Id
SciTegic.value.IntegerValue
855

@<SCITEGIC>MOL_PROPERTY
Probability
SciTegic.value.DoubleValue
0.02

@<SCITEGIC>MOL_PROPERTY
Sum Probability
SciTegic.value.DoubleValue
99.21

@<SCITEGIC>MOL_PROPERTY
Delta G
SciTegic.value.DoubleValue
3.592

@<SCITEGIC>MOL_PROPERTY
G
SciTegic.value.DoubleValue
37.294

@<SCITEGIC>MOL_PROPERTY
E
SciTegic.value.DoubleValue
-0.216

@<SCITEGIC>MOL_PROPERTY
-TS
SciTegic.value.DoubleValue
37.510

@<SCITEGIC>MOL_PROPERTY
U+W
SciTegic.value.DoubleValue
-24.361

@<SCITEGIC>MOL_PROPERTY
U
SciTegic.value.DoubleValue
27.700

@<SCITEGIC>MOL_PROPERTY
W
SciTegic.value.DoubleValue
-52.061

@<SCITEGIC>MOL_PROPERTY
W(PB)
SciTegic.value.DoubleValue
-54.564

@<SCITEGIC>MOL_PROPERTY
W(SA)
SciTegic.value.DoubleValue
2.503

@<SCITEGIC>MOL_PROPERTY
Valence
SciTegic.value.DoubleValue
5.425

@<SCITEGIC>MOL_PROPERTY
Coulomb
SciTegic.value.DoubleValue
21.143

@<SCITEGIC>MOL_PROPERTY
VdW
SciTegic.value.DoubleValue
1.132

@<SCITEGIC>MOL_PROPERTY
VdW6
SciTegic.value.DoubleValue
-9.721

@<SCITEGIC>MOL_PROPERTY
VdW12
SciTegic.value.DoubleValue
10.853

@<SCITEGIC>MOL_PROPERTY
Bond
SciTegic.value.DoubleValue
0.283

@<SCITEGIC>MOL_PROPERTY
Angle
SciTegic.value.DoubleValue
1.776

@<SCITEGIC>MOL_PROPERTY
Pdih
SciTegic.value.DoubleValue
3.366

@<SCITEGIC>MOL_PROPERTY
Idih
SciTegic.value.DoubleValue
0.000

@<SCITEGIC>MOL_PROPERTY
Tether
SciTegic.value.DoubleValue
0.000

@<TRIPOS>MOLECULE
guest-s15_vm2.mol2 : vm2 ligand conformer 94
          29          28           1
SMALL
USER_CHARGES
 
@<TRIPOS>ATOM
       1    C1      18.348015   19.713399   20.026620 C.3        1 MOL1        -0.2426
       2    H1      17.735319   19.792471   20.933115 H          1 MOL1         0.0959
       3    H2      17.914005   20.386106   19.275600 H          1 MOL1         0.0959
       4    H3      18.267513   18.687355   19.644795 H          1 MOL1         0.0959
       5    C2      19.821491   20.089545   20.302115 C.3        1 MOL1        -0.1410
       6    H4      19.872519   21.108165   20.711381 H          1 MOL1         0.0948
       7    H5      20.365010   20.114517   19.347271 H          1 MOL1         0.0948
       8    C3      20.539619   19.104952   21.256268 C.3        1 MOL1        -0.1435
       9    H6      20.509486   18.093304   20.828559 H          1 MOL1         0.0948
      10    H7      21.600555   19.385288   21.313184 H          1 MOL1         0.0948
      11    C4      19.944436   19.086724   22.684457 C.3        1 MOL1        -0.1435
      12    H8      18.907808   18.726605   22.649838 H          1 MOL1         0.0948
      13    H9      19.927851   20.113978   23.067986 H          1 MOL1         0.0948
      14    C5      20.768379   18.184303   23.633491 C.3        1 MOL1        -0.1435
      15    H10     20.928996   17.213224   23.144927 H          1 MOL1         0.0948
      16    H11     21.766373   18.620440   23.779215 H          1 MOL1         0.0948
      17    C6      20.113563   17.920334   25.015079 C.3        1 MOL1        -0.1500
      18    H12     20.744994   17.187975   25.535707 H          1 MOL1         0.0948
      19    H13     19.137479   17.434548   24.885023 H          1 MOL1         0.0948
      20    C7      19.964970   19.171052   25.913505 C.3        1 MOL1         0.1162
      21    H14     20.862671   19.786529   25.800101 H          1 MOL1         0.0910
      22    C8      19.847396   18.758624   27.390116 C.3        1 MOL1        -0.2491
      23    H15     18.967978   18.123644   27.555828 H          1 MOL1         0.0959
      24    H16     20.736534   18.202641   27.712777 H          1 MOL1         0.0959
      25    H17     19.757974   19.641950   28.034499 H          1 MOL1         0.0959
      26    N1      18.788131   20.027067   25.532348 N.4        1 MOL1        -0.5987
      27    H18     18.843010   20.324399   24.555534 H          1 MOL1         0.3605
      28    H19     18.736815   20.870634   26.110775 H          1 MOL1         0.3605
      29    H20     17.906892   19.520316   25.651499 H          1 MOL1         0.3605
@<TRIPOS>BOND
    1     1     2    1
    2     1     3    1
    3     1     4    1
    4     1     5    1
    5     5     6    1
    6     5     7    1
    7     5     8    1
    8     8     9    1
    9     8    10    1
   10     8    11    1
   11    11    12    1
   12    11    13    1
   13    11    14    1
   14    14    15    1
   15    14    16    1
   16    14    17    1
   17    17    18    1
   18    17    19    1
   19    17    20    1
   20    20    21    1
   21    20    22    1
   22    22    23    1
   23    22    24    1
   24    22    25    1
   25    20    26    1
   26    26    27    1
   27    26    28    1
   28    26    29    1
@<TRIPOS>SUBSTRUCTURE
       1 MOL1            1 RESIDUE      1      MOL     
@<SCITEGIC>MOL_PROPERTY
VM2 Rank
SciTegic.value.IntegerValue
94

@<SCITEGIC>MOL_PROPERTY
Conf_Id
SciTegic.value.IntegerValue
1506

@<SCITEGIC>MOL_PROPERTY
Probability
SciTegic.value.DoubleValue
0.02

@<SCITEGIC>MOL_PROPERTY
Sum Probability
SciTegic.value.DoubleValue
99.23

@<SCITEGIC>MOL_PROPERTY
Delta G
SciTegic.value.DoubleValue
3.719

@<SCITEGIC>MOL_PROPERTY
G
SciTegic.value.DoubleValue
37.422

@<SCITEGIC>MOL_PROPERTY
E
SciTegic.value.DoubleValue
-0.102

@<SCITEGIC>MOL_PROPERTY
-TS
SciTegic.value.DoubleValue
37.523

@<SCITEGIC>MOL_PROPERTY
U+W
SciTegic.value.DoubleValue
-24.246

@<SCITEGIC>MOL_PROPERTY
U
SciTegic.value.DoubleValue
27.822

@<SCITEGIC>MOL_PROPERTY
W
SciTegic.value.DoubleValue
-52.068

@<SCITEGIC>MOL_PROPERTY
W(PB)
SciTegic.value.DoubleValue
-54.585

@<SCITEGIC>MOL_PROPERTY
W(SA)
SciTegic.value.DoubleValue
2.516

@<SCITEGIC>MOL_PROPERTY
Valence
SciTegic.value.DoubleValue
5.450

@<SCITEGIC>MOL_PROPERTY
Coulomb
SciTegic.value.DoubleValue
21.220

@<SCITEGIC>MOL_PROPERTY
VdW
SciTegic.value.DoubleValue
1.151

@<SCITEGIC>MOL_PROPERTY
VdW6
SciTegic.value.DoubleValue
-9.708

@<SCITEGIC>MOL_PROPERTY
VdW12
SciTegic.value.DoubleValue
10.859

@<SCITEGIC>MOL_PROPERTY
Bond
SciTegic.value.DoubleValue
0.277

@<SCITEGIC>MOL_PROPERTY
Angle
SciTegic.value.DoubleValue
1.825

@<SCITEGIC>MOL_PROPERTY
Pdih
SciTegic.value.DoubleValue
3.348

@<SCITEGIC>MOL_PROPERTY
Idih
SciTegic.value.DoubleValue
0.000

@<SCITEGIC>MOL_PROPERTY
Tether
SciTegic.value.DoubleValue
0.000

@<TRIPOS>MOLECULE
guest-s15_vm2.mol2 : vm2 ligand conformer 95
          29          28           1
SMALL
USER_CHARGES
 
@<TRIPOS>ATOM
       1    C1      18.484420   18.631864   19.931543 C.3        1 MOL1        -0.2426
       2    H1      18.933325   17.670089   19.650970 H          1 MOL1         0.0959
       3    H2      17.399248   18.486948   20.011600 H          1 MOL1         0.0959
       4    H3      18.669640   19.345969   19.118545 H          1 MOL1         0.0959
       5    C2      19.065209   19.146284   21.265675 C.3        1 MOL1        -0.1410
       6    H4      18.826039   18.423416   22.056640 H          1 MOL1         0.0948
       7    H5      18.579366   20.094879   21.533280 H          1 MOL1         0.0948
       8    C3      20.595500   19.346564   21.181698 C.3        1 MOL1        -0.1435
       9    H6      21.080437   18.376551   21.005296 H          1 MOL1         0.0948
      10    H7      20.826521   19.966951   20.304752 H          1 MOL1         0.0948
      11    C4      21.224764   20.017563   22.429997 C.3        1 MOL1        -0.1435
      12    H8      20.831559   21.036552   22.548679 H          1 MOL1         0.0948
      13    H9      22.299209   20.137219   22.233381 H          1 MOL1         0.0948
      14    C5      21.061623   19.217597   23.748922 C.3        1 MOL1        -0.1435
      15    H10     21.003150   18.145347   23.522239 H          1 MOL1         0.0948
      16    H11     21.970568   19.352353   24.351529 H          1 MOL1         0.0948
      17    C6      19.848352   19.677095   24.600147 C.3        1 MOL1        -0.1500
      18    H12     18.913037   19.551873   24.043326 H          1 MOL1         0.0948
      19    H13     19.949211   20.753589   24.791168 H          1 MOL1         0.0948
      20    C7      19.735798   18.950565   25.959583 C.3        1 MOL1         0.1162
      21    H14     20.696351   19.037446   26.476692 H          1 MOL1         0.0910
      22    C8      19.404013   17.456881   25.791262 C.3        1 MOL1        -0.2491
      23    H15     18.476438   17.318071   25.222012 H          1 MOL1         0.0959
      24    H16     20.208829   16.924475   25.271785 H          1 MOL1         0.0959
      25    H17     19.277409   16.976975   26.769531 H          1 MOL1         0.0959
      26    N1      18.716323   19.611586   26.845172 N.4        1 MOL1        -0.5987
      27    H18     18.940219   20.597778   27.007001 H          1 MOL1         0.3605
      28    H19     18.666167   19.156723   27.761311 H          1 MOL1         0.3605
      29    H20     17.780349   19.571872   26.432792 H          1 MOL1         0.3605
@<TRIPOS>BOND
    1     1     2    1
    2     1     3    1
    3     1     4    1
    4     1     5    1
    5     5     6    1
    6     5     7    1
    7     5     8    1
    8     8     9    1
    9     8    10    1
   10     8    11    1
   11    11    12    1
   12    11    13    1
   13    11    14    1
   14    14    15    1
   15    14    16    1
   16    14    17    1
   17    17    18    1
   18    17    19    1
   19    17    20    1
   20    20    21    1
   21    20    22    1
   22    22    23    1
   23    22    24    1
   24    22    25    1
   25    20    26    1
   26    26    27    1
   27    26    28    1
   28    26    29    1
@<TRIPOS>SUBSTRUCTURE
       1 MOL1            1 RESIDUE      1      MOL     
@<SCITEGIC>MOL_PROPERTY
VM2 Rank
SciTegic.value.IntegerValue
95

@<SCITEGIC>MOL_PROPERTY
Conf_Id
SciTegic.value.IntegerValue
1530

@<SCITEGIC>MOL_PROPERTY
Probability
SciTegic.value.DoubleValue
0.02

@<SCITEGIC>MOL_PROPERTY
Sum Probability
SciTegic.value.DoubleValue
99.25

@<SCITEGIC>MOL_PROPERTY
Delta G
SciTegic.value.DoubleValue
3.720

@<SCITEGIC>MOL_PROPERTY
G
SciTegic.value.DoubleValue
37.422

@<SCITEGIC>MOL_PROPERTY
E
SciTegic.value.DoubleValue
-0.309

@<SCITEGIC>MOL_PROPERTY
-TS
SciTegic.value.DoubleValue
37.731

@<SCITEGIC>MOL_PROPERTY
U+W
SciTegic.value.DoubleValue
-24.453

@<SCITEGIC>MOL_PROPERTY
U
SciTegic.value.DoubleValue
28.051

@<SCITEGIC>MOL_PROPERTY
W
SciTegic.value.DoubleValue
-52.505

@<SCITEGIC>MOL_PROPERTY
W(PB)
SciTegic.value.DoubleValue
-54.965

@<SCITEGIC>MOL_PROPERTY
W(SA)
SciTegic.value.DoubleValue
2.460

@<SCITEGIC>MOL_PROPERTY
Valence
SciTegic.value.DoubleValue
6.726

@<SCITEGIC>MOL_PROPERTY
Coulomb
SciTegic.value.DoubleValue
20.160

@<SCITEGIC>MOL_PROPERTY
VdW
SciTegic.value.DoubleValue
1.165

@<SCITEGIC>MOL_PROPERTY
VdW6
SciTegic.value.DoubleValue
-9.906

@<SCITEGIC>MOL_PROPERTY
VdW12
SciTegic.value.DoubleValue
11.071

@<SCITEGIC>MOL_PROPERTY
Bond
SciTegic.value.DoubleValue
0.295

@<SCITEGIC>MOL_PROPERTY
Angle
SciTegic.value.DoubleValue
1.941

@<SCITEGIC>MOL_PROPERTY
Pdih
SciTegic.value.DoubleValue
4.490

@<SCITEGIC>MOL_PROPERTY
Idih
SciTegic.value.DoubleValue
0.000

@<SCITEGIC>MOL_PROPERTY
Tether
SciTegic.value.DoubleValue
0.000

@<TRIPOS>MOLECULE
guest-s15_vm2.mol2 : vm2 ligand conformer 96
          29          28           1
SMALL
USER_CHARGES
 
@<TRIPOS>ATOM
       1    C1      21.263142   19.820799   20.514812 C.3        1 MOL1        -0.2426
       2    H1      21.486041   20.015609   21.569531 H          1 MOL1         0.0959
       3    H2      22.178830   19.436887   20.046819 H          1 MOL1         0.0959
       4    H3      21.022775   20.779936   20.038024 H          1 MOL1         0.0959
       5    C2      20.103313   18.812704   20.340358 C.3        1 MOL1        -0.1410
       6    H4      20.381221   17.834388   20.756558 H          1 MOL1         0.0948
       7    H5      19.954630   18.651558   19.263421 H          1 MOL1         0.0948
       8    C3      18.766256   19.300195   20.955677 C.3        1 MOL1        -0.1435
       9    H6      18.714607   20.397415   20.931600 H          1 MOL1         0.0948
      10    H7      17.946832   18.951696   20.311895 H          1 MOL1         0.0948
      11    C4      18.482551   18.784703   22.390284 C.3        1 MOL1        -0.1435
      12    H8      18.429478   17.687287   22.379615 H          1 MOL1         0.0948
      13    H9      17.485411   19.136131   22.689320 H          1 MOL1         0.0948
      14    C5      19.516179   19.238629   23.446971 C.3        1 MOL1        -0.1435
      15    H10     20.487659   18.786862   23.213587 H          1 MOL1         0.0948
      16    H11     19.640028   20.329131   23.395819 H          1 MOL1         0.0948
      17    C6      19.089419   18.832779   24.879114 C.3        1 MOL1        -0.1500
      18    H12     19.023728   17.738873   24.949632 H          1 MOL1         0.0948
      19    H13     18.078342   19.218108   25.065858 H          1 MOL1         0.0948
      20    C7      20.027548   19.370143   25.983995 C.3        1 MOL1         0.1162
      21    H14     20.107365   20.455465   25.868537 H          1 MOL1         0.0910
      22    C8      21.440068   18.765234   25.892554 C.3        1 MOL1        -0.2491
      23    H15     21.406101   17.669503   25.936528 H          1 MOL1         0.0959
      24    H16     21.939885   19.057094   24.961754 H          1 MOL1         0.0959
      25    H17     22.066192   19.119482   26.720703 H          1 MOL1         0.0959
      26    N1      19.447522   19.130814   27.350235 N.4        1 MOL1        -0.5987
      27    H18     18.524277   19.562972   27.448994 H          1 MOL1         0.3605
      28    H19     20.046111   19.520394   28.084146 H          1 MOL1         0.3605
      29    H20     19.341261   18.130862   27.541454 H          1 MOL1         0.3605
@<TRIPOS>BOND
    1     1     2    1
    2     1     3    1
    3     1     4    1
    4     1     5    1
    5     5     6    1
    6     5     7    1
    7     5     8    1
    8     8     9    1
    9     8    10    1
   10     8    11    1
   11    11    12    1
   12    11    13    1
   13    11    14    1
   14    14    15    1
   15    14    16    1
   16    14    17    1
   17    17    18    1
   18    17    19    1
   19    17    20    1
   20    20    21    1
   21    20    22    1
   22    22    23    1
   23    22    24    1
   24    22    25    1
   25    20    26    1
   26    26    27    1
   27    26    28    1
   28    26    29    1
@<TRIPOS>SUBSTRUCTURE
       1 MOL1            1 RESIDUE      1      MOL     
@<SCITEGIC>MOL_PROPERTY
VM2 Rank
SciTegic.value.IntegerValue
96

@<SCITEGIC>MOL_PROPERTY
Conf_Id
SciTegic.value.IntegerValue
703

@<SCITEGIC>MOL_PROPERTY
Probability
SciTegic.value.DoubleValue
0.02

@<SCITEGIC>MOL_PROPERTY
Sum Probability
SciTegic.value.DoubleValue
99.27

@<SCITEGIC>MOL_PROPERTY
Delta G
SciTegic.value.DoubleValue
3.733

@<SCITEGIC>MOL_PROPERTY
G
SciTegic.value.DoubleValue
37.435

@<SCITEGIC>MOL_PROPERTY
E
SciTegic.value.DoubleValue
-0.322

@<SCITEGIC>MOL_PROPERTY
-TS
SciTegic.value.DoubleValue
37.757

@<SCITEGIC>MOL_PROPERTY
U+W
SciTegic.value.DoubleValue
-24.466

@<SCITEGIC>MOL_PROPERTY
U
SciTegic.value.DoubleValue
27.667

@<SCITEGIC>MOL_PROPERTY
W
SciTegic.value.DoubleValue
-52.133

@<SCITEGIC>MOL_PROPERTY
W(PB)
SciTegic.value.DoubleValue
-54.581

@<SCITEGIC>MOL_PROPERTY
W(SA)
SciTegic.value.DoubleValue
2.448

@<SCITEGIC>MOL_PROPERTY
Valence
SciTegic.value.DoubleValue
6.692

@<SCITEGIC>MOL_PROPERTY
Coulomb
SciTegic.value.DoubleValue
19.695

@<SCITEGIC>MOL_PROPERTY
VdW
SciTegic.value.DoubleValue
1.280

@<SCITEGIC>MOL_PROPERTY
VdW6
SciTegic.value.DoubleValue
-9.753

@<SCITEGIC>MOL_PROPERTY
VdW12
SciTegic.value.DoubleValue
11.033

@<SCITEGIC>MOL_PROPERTY
Bond
SciTegic.value.DoubleValue
0.286

@<SCITEGIC>MOL_PROPERTY
Angle
SciTegic.value.DoubleValue
1.948

@<SCITEGIC>MOL_PROPERTY
Pdih
SciTegic.value.DoubleValue
4.458

@<SCITEGIC>MOL_PROPERTY
Idih
SciTegic.value.DoubleValue
0.000

@<SCITEGIC>MOL_PROPERTY
Tether
SciTegic.value.DoubleValue
0.000

@<TRIPOS>MOLECULE
guest-s15_vm2.mol2 : vm2 ligand conformer 97
          29          28           1
SMALL
USER_CHARGES
 
@<TRIPOS>ATOM
       1    C1      19.676187   19.532703   18.998092 C.3        1 MOL1        -0.2426
       2    H1      20.648060   20.025818   18.865596 H          1 MOL1         0.0959
       3    H2      19.602224   18.728143   18.254953 H          1 MOL1         0.0959
       4    H3      18.888271   20.265551   18.780487 H          1 MOL1         0.0959
       5    C2      19.531144   18.969093   20.427579 C.3        1 MOL1        -0.1410
       6    H4      20.308382   18.211294   20.590356 H          1 MOL1         0.0948
       7    H5      18.562948   18.457544   20.520134 H          1 MOL1         0.0948
       8    C3      19.635819   20.086226   21.493079 C.3        1 MOL1        -0.1435
       9    H6      20.623508   20.564245   21.435937 H          1 MOL1         0.0948
      10    H7      18.901517   20.868682   21.256503 H          1 MOL1         0.0948
      11    C4      19.376966   19.595858   22.939169 C.3        1 MOL1        -0.1435
      12    H8      18.408036   19.079613   22.983287 H          1 MOL1         0.0948
      13    H9      19.296416   20.484454   23.576429 H          1 MOL1         0.0948
      14    C5      20.495266   18.674759   23.489106 C.3        1 MOL1        -0.1435
      15    H10     20.667912   17.850791   22.785725 H          1 MOL1         0.0948
      16    H11     21.438697   19.235824   23.537995 H          1 MOL1         0.0948
      17    C6      20.197680   18.045623   24.875924 C.3        1 MOL1        -0.1500
      18    H12     21.016352   17.346544   25.093200 H          1 MOL1         0.0948
      19    H13     19.287731   17.433111   24.826390 H          1 MOL1         0.0948
      20    C7      20.089759   19.057652   26.041281 C.3        1 MOL1         0.1162
      21    H14     20.836092   19.843055   25.887436 H          1 MOL1         0.0910
      22    C8      20.388430   18.365730   27.381628 C.3        1 MOL1        -0.2491
      23    H15     19.675539   17.554748   27.576929 H          1 MOL1         0.0959
      24    H16     21.399867   17.940538   27.385311 H          1 MOL1         0.0959
      25    H17     20.327868   19.081634   28.210670 H          1 MOL1         0.0959
      26    N1      18.744750   19.728355   26.108142 N.4        1 MOL1        -0.5987
      27    H18     18.519595   20.204703   25.231859 H          1 MOL1         0.3605
      28    H19     18.711863   20.426013   26.857124 H          1 MOL1         0.3605
      29    H20     18.000448   19.049647   26.289620 H          1 MOL1         0.3605
@<TRIPOS>BOND
    1     1     2    1
    2     1     3    1
    3     1     4    1
    4     1     5    1
    5     5     6    1
    6     5     7    1
    7     5     8    1
    8     8     9    1
    9     8    10    1
   10     8    11    1
   11    11    12    1
   12    11    13    1
   13    11    14    1
   14    14    15    1
   15    14    16    1
   16    14    17    1
   17    17    18    1
   18    17    19    1
   19    17    20    1
   20    20    21    1
   21    20    22    1
   22    22    23    1
   23    22    24    1
   24    22    25    1
   25    20    26    1
   26    26    27    1
   27    26    28    1
   28    26    29    1
@<TRIPOS>SUBSTRUCTURE
       1 MOL1            1 RESIDUE      1      MOL     
@<SCITEGIC>MOL_PROPERTY
VM2 Rank
SciTegic.value.IntegerValue
97

@<SCITEGIC>MOL_PROPERTY
Conf_Id
SciTegic.value.IntegerValue
1511

@<SCITEGIC>MOL_PROPERTY
Probability
SciTegic.value.DoubleValue
0.02

@<SCITEGIC>MOL_PROPERTY
Sum Probability
SciTegic.value.DoubleValue
99.29

@<SCITEGIC>MOL_PROPERTY
Delta G
SciTegic.value.DoubleValue
3.735

@<SCITEGIC>MOL_PROPERTY
G
SciTegic.value.DoubleValue
37.437

@<SCITEGIC>MOL_PROPERTY
E
SciTegic.value.DoubleValue
0.032

@<SCITEGIC>MOL_PROPERTY
-TS
SciTegic.value.DoubleValue
37.405

@<SCITEGIC>MOL_PROPERTY
U+W
SciTegic.value.DoubleValue
-24.113

@<SCITEGIC>MOL_PROPERTY
U
SciTegic.value.DoubleValue
28.001

@<SCITEGIC>MOL_PROPERTY
W
SciTegic.value.DoubleValue
-52.114

@<SCITEGIC>MOL_PROPERTY
W(PB)
SciTegic.value.DoubleValue
-54.583

@<SCITEGIC>MOL_PROPERTY
W(SA)
SciTegic.value.DoubleValue
2.469

@<SCITEGIC>MOL_PROPERTY
Valence
SciTegic.value.DoubleValue
5.678

@<SCITEGIC>MOL_PROPERTY
Coulomb
SciTegic.value.DoubleValue
21.086

@<SCITEGIC>MOL_PROPERTY
VdW
SciTegic.value.DoubleValue
1.237

@<SCITEGIC>MOL_PROPERTY
VdW6
SciTegic.value.DoubleValue
-9.584

@<SCITEGIC>MOL_PROPERTY
VdW12
SciTegic.value.DoubleValue
10.821

@<SCITEGIC>MOL_PROPERTY
Bond
SciTegic.value.DoubleValue
0.291

@<SCITEGIC>MOL_PROPERTY
Angle
SciTegic.value.DoubleValue
1.936

@<SCITEGIC>MOL_PROPERTY
Pdih
SciTegic.value.DoubleValue
3.451

@<SCITEGIC>MOL_PROPERTY
Idih
SciTegic.value.DoubleValue
0.000

@<SCITEGIC>MOL_PROPERTY
Tether
SciTegic.value.DoubleValue
0.000

@<TRIPOS>MOLECULE
guest-s15_vm2.mol2 : vm2 ligand conformer 98
          29          28           1
SMALL
USER_CHARGES
 
@<TRIPOS>ATOM
       1    C1      20.907319   20.369410   20.524870 C.3        1 MOL1        -0.2426
       2    H1      21.710899   19.793701   20.047529 H          1 MOL1         0.0959
       3    H2      20.895994   21.367182   20.067474 H          1 MOL1         0.0959
       4    H3      21.163612   20.492507   21.582775 H          1 MOL1         0.0959
       5    C2      19.540487   19.671601   20.333375 C.3        1 MOL1        -0.1410
       6    H4      19.341422   19.608710   19.254355 H          1 MOL1         0.0948
       7    H5      18.734124   20.288453   20.753885 H          1 MOL1         0.0948
       8    C3      19.490592   18.240733   20.928329 C.3        1 MOL1        -0.1435
       9    H6      18.859775   17.621343   20.275804 H          1 MOL1         0.0948
      10    H7      20.488180   17.781397   20.897344 H          1 MOL1         0.0948
      11    C4      18.906492   18.150922   22.361854 C.3        1 MOL1        -0.1435
      12    H8      18.858632   17.090918   22.647210 H          1 MOL1         0.0948
      13    H9      17.869188   18.513139   22.355798 H          1 MOL1         0.0948
      14    C5      19.715167   18.923062   23.429779 C.3        1 MOL1        -0.1435
      15    H10     20.771748   18.634279   23.357117 H          1 MOL1         0.0948
      16    H11     19.654669   20.000557   23.229113 H          1 MOL1         0.0948
      17    C6      19.185860   18.648198   24.858689 C.3        1 MOL1        -0.1500
      18    H12     19.307350   17.583960   25.100627 H          1 MOL1         0.0948
      19    H13     18.106725   18.850457   24.876347 H          1 MOL1         0.0948
      20    C7      19.862763   19.509507   25.949222 C.3        1 MOL1         0.1162
      21    H14     19.759643   20.562157   25.668302 H          1 MOL1         0.0910
      22    C8      21.361118   19.188925   26.095489 C.3        1 MOL1        -0.2491
      23    H15     21.519839   18.125688   26.314679 H          1 MOL1         0.0959
      24    H16     21.913432   19.438219   25.182123 H          1 MOL1         0.0959
      25    H17     21.803435   19.774036   26.911178 H          1 MOL1         0.0959
      26    N1      19.166201   19.353642   27.272394 N.4        1 MOL1        -0.5987
      27    H18     18.175178   19.604068   27.208735 H          1 MOL1         0.3605
      28    H19     19.586193   19.952626   27.989006 H          1 MOL1         0.3605
      29    H20     19.218696   18.389190   27.611271 H          1 MOL1         0.3605
@<TRIPOS>BOND
    1     1     2    1
    2     1     3    1
    3     1     4    1
    4     1     5    1
    5     5     6    1
    6     5     7    1
    7     5     8    1
    8     8     9    1
    9     8    10    1
   10     8    11    1
   11    11    12    1
   12    11    13    1
   13    11    14    1
   14    14    15    1
   15    14    16    1
   16    14    17    1
   17    17    18    1
   18    17    19    1
   19    17    20    1
   20    20    21    1
   21    20    22    1
   22    22    23    1
   23    22    24    1
   24    22    25    1
   25    20    26    1
   26    26    27    1
   27    26    28    1
   28    26    29    1
@<TRIPOS>SUBSTRUCTURE
       1 MOL1            1 RESIDUE      1      MOL     
@<SCITEGIC>MOL_PROPERTY
VM2 Rank
SciTegic.value.IntegerValue
98

@<SCITEGIC>MOL_PROPERTY
Conf_Id
SciTegic.value.IntegerValue
655

@<SCITEGIC>MOL_PROPERTY
Probability
SciTegic.value.DoubleValue
0.02

@<SCITEGIC>MOL_PROPERTY
Sum Probability
SciTegic.value.DoubleValue
99.30

@<SCITEGIC>MOL_PROPERTY
Delta G
SciTegic.value.DoubleValue
3.749

@<SCITEGIC>MOL_PROPERTY
G
SciTegic.value.DoubleValue
37.451

@<SCITEGIC>MOL_PROPERTY
E
SciTegic.value.DoubleValue
-0.302

@<SCITEGIC>MOL_PROPERTY
-TS
SciTegic.value.DoubleValue
37.753

@<SCITEGIC>MOL_PROPERTY
U+W
SciTegic.value.DoubleValue
-24.446

@<SCITEGIC>MOL_PROPERTY
U
SciTegic.value.DoubleValue
27.666

@<SCITEGIC>MOL_PROPERTY
W
SciTegic.value.DoubleValue
-52.112

@<SCITEGIC>MOL_PROPERTY
W(PB)
SciTegic.value.DoubleValue
-54.553

@<SCITEGIC>MOL_PROPERTY
W(SA)
SciTegic.value.DoubleValue
2.441

@<SCITEGIC>MOL_PROPERTY
Valence
SciTegic.value.DoubleValue
6.691

@<SCITEGIC>MOL_PROPERTY
Coulomb
SciTegic.value.DoubleValue
19.707

@<SCITEGIC>MOL_PROPERTY
VdW
SciTegic.value.DoubleValue
1.268

@<SCITEGIC>MOL_PROPERTY
VdW6
SciTegic.value.DoubleValue
-9.727

@<SCITEGIC>MOL_PROPERTY
VdW12
SciTegic.value.DoubleValue
10.995

@<SCITEGIC>MOL_PROPERTY
Bond
SciTegic.value.DoubleValue
0.283

@<SCITEGIC>MOL_PROPERTY
Angle
SciTegic.value.DoubleValue
1.951

@<SCITEGIC>MOL_PROPERTY
Pdih
SciTegic.value.DoubleValue
4.457

@<SCITEGIC>MOL_PROPERTY
Idih
SciTegic.value.DoubleValue
0.000

@<SCITEGIC>MOL_PROPERTY
Tether
SciTegic.value.DoubleValue
0.000

@<TRIPOS>MOLECULE
guest-s15_vm2.mol2 : vm2 ligand conformer 99
          29          28           1
SMALL
USER_CHARGES
 
@<TRIPOS>ATOM
       1    C1      20.750498   18.042358   20.607553 C.3        1 MOL1        -0.2426
       2    H1      21.682628   18.510934   20.948745 H          1 MOL1         0.0959
       3    H2      20.315162   17.479253   21.442259 H          1 MOL1         0.0959
       4    H3      21.005801   17.319001   19.822418 H          1 MOL1         0.0959
       5    C2      19.761375   19.097951   20.067217 C.3        1 MOL1        -0.1410
       6    H4      18.817054   18.606290   19.794787 H          1 MOL1         0.0948
       7    H5      20.166724   19.515616   19.135033 H          1 MOL1         0.0948
       8    C3      19.475384   20.266000   21.045301 C.3        1 MOL1        -0.1435
       9    H6      20.398573   20.828045   21.242559 H          1 MOL1         0.0948
      10    H7      18.804754   20.969259   20.532425 H          1 MOL1         0.0948
      11    C4      18.805133   19.845418   22.379194 C.3        1 MOL1        -0.1435
      12    H8      18.201173   18.940203   22.227624 H          1 MOL1         0.0948
      13    H9      18.100778   20.634205   22.677636 H          1 MOL1         0.0948
      14    C5      19.813656   19.635165   23.535098 C.3        1 MOL1        -0.1435
      15    H10     20.560510   18.888108   23.246064 H          1 MOL1         0.0948
      16    H11     20.358815   20.571719   23.716541 H          1 MOL1         0.0948
      17    C6      19.104845   19.192816   24.838709 C.3        1 MOL1        -0.1500
      18    H12     18.608253   18.226301   24.680108 H          1 MOL1         0.0948
      19    H13     18.311427   19.916421   25.067997 H          1 MOL1         0.0948
      20    C7      20.048208   19.098201   26.059594 C.3        1 MOL1         0.1162
      21    H14     20.563851   20.057102   26.170239 H          1 MOL1         0.0910
      22    C8      21.105739   17.992213   25.892316 C.3        1 MOL1        -0.2491
      23    H15     20.635485   17.017491   25.712061 H          1 MOL1         0.0959
      24    H16     21.780920   18.208392   25.056414 H          1 MOL1         0.0959
      25    H17     21.724152   17.909658   26.794591 H          1 MOL1         0.0959
      26    N1      19.271162   18.885881   27.329019 N.4        1 MOL1        -0.5987
      27    H18     19.888440   18.862111   28.145787 H          1 MOL1         0.3605
      28    H19     18.756690   18.001196   27.309053 H          1 MOL1         0.3605
      29    H20     18.589954   19.634785   27.483916 H          1 MOL1         0.3605
@<TRIPOS>BOND
    1     1     2    1
    2     1     3    1
    3     1     4    1
    4     1     5    1
    5     5     6    1
    6     5     7    1
    7     5     8    1
    8     8     9    1
    9     8    10    1
   10     8    11    1
   11    11    12    1
   12    11    13    1
   13    11    14    1
   14    14    15    1
   15    14    16    1
   16    14    17    1
   17    17    18    1
   18    17    19    1
   19    17    20    1
   20    20    21    1
   21    20    22    1
   22    22    23    1
   23    22    24    1
   24    22    25    1
   25    20    26    1
   26    26    27    1
   27    26    28    1
   28    26    29    1
@<TRIPOS>SUBSTRUCTURE
       1 MOL1            1 RESIDUE      1      MOL     
@<SCITEGIC>MOL_PROPERTY
VM2 Rank
SciTegic.value.IntegerValue
99

@<SCITEGIC>MOL_PROPERTY
Conf_Id
SciTegic.value.IntegerValue
258

@<SCITEGIC>MOL_PROPERTY
Probability
SciTegic.value.DoubleValue
0.02

@<SCITEGIC>MOL_PROPERTY
Sum Probability
SciTegic.value.DoubleValue
99.32

@<SCITEGIC>MOL_PROPERTY
Delta G
SciTegic.value.DoubleValue
3.756

@<SCITEGIC>MOL_PROPERTY
G
SciTegic.value.DoubleValue
37.458

@<SCITEGIC>MOL_PROPERTY
E
SciTegic.value.DoubleValue
-0.301

@<SCITEGIC>MOL_PROPERTY
-TS
SciTegic.value.DoubleValue
37.759

@<SCITEGIC>MOL_PROPERTY
U+W
SciTegic.value.DoubleValue
-24.446

@<SCITEGIC>MOL_PROPERTY
U
SciTegic.value.DoubleValue
27.633

@<SCITEGIC>MOL_PROPERTY
W
SciTegic.value.DoubleValue
-52.079

@<SCITEGIC>MOL_PROPERTY
W(PB)
SciTegic.value.DoubleValue
-54.518

@<SCITEGIC>MOL_PROPERTY
W(SA)
SciTegic.value.DoubleValue
2.439

@<SCITEGIC>MOL_PROPERTY
Valence
SciTegic.value.DoubleValue
6.676

@<SCITEGIC>MOL_PROPERTY
Coulomb
SciTegic.value.DoubleValue
19.710

@<SCITEGIC>MOL_PROPERTY
VdW
SciTegic.value.DoubleValue
1.246

@<SCITEGIC>MOL_PROPERTY
VdW6
SciTegic.value.DoubleValue
-9.759

@<SCITEGIC>MOL_PROPERTY
VdW12
SciTegic.value.DoubleValue
11.005

@<SCITEGIC>MOL_PROPERTY
Bond
SciTegic.value.DoubleValue
0.286

@<SCITEGIC>MOL_PROPERTY
Angle
SciTegic.value.DoubleValue
1.893

@<SCITEGIC>MOL_PROPERTY
Pdih
SciTegic.value.DoubleValue
4.497

@<SCITEGIC>MOL_PROPERTY
Idih
SciTegic.value.DoubleValue
0.000

@<SCITEGIC>MOL_PROPERTY
Tether
SciTegic.value.DoubleValue
0.000

@<TRIPOS>MOLECULE
guest-s15_vm2.mol2 : vm2 ligand conformer 100
          29          28           1
SMALL
USER_CHARGES
 
@<TRIPOS>ATOM
       1    C1      18.898510   17.958051   20.718412 C.3        1 MOL1        -0.2426
       2    H1      17.946628   18.259686   21.174233 H          1 MOL1         0.0959
       3    H2      18.674779   17.248133   19.911683 H          1 MOL1         0.0959
       4    H3      19.492955   17.423222   21.469358 H          1 MOL1         0.0959
       5    C2      19.663248   19.179998   20.164675 C.3        1 MOL1        -0.1410
       6    H4      19.110448   19.580593   19.303488 H          1 MOL1         0.0948
       7    H5      20.637796   18.853789   19.775406 H          1 MOL1         0.0948
       8    C3      19.870195   20.323502   21.190520 C.3        1 MOL1        -0.1435
       9    H6      20.376353   21.147408   20.668671 H          1 MOL1         0.0948
      10    H7      18.898643   20.726747   21.507567 H          1 MOL1         0.0948
      11    C4      20.723671   19.938784   22.427056 C.3        1 MOL1        -0.1435
      12    H8      21.329479   20.808965   22.715401 H          1 MOL1         0.0948
      13    H9      21.437046   19.147130   22.159688 H          1 MOL1         0.0948
      14    C5      19.876780   19.513196   23.651299 C.3        1 MOL1        -0.1435
      15    H10     19.217750   20.343974   23.935538 H          1 MOL1         0.0948
      16    H11     19.226483   18.674403   23.380979 H          1 MOL1         0.0948
      17    C6      20.773036   19.116330   24.853066 C.3        1 MOL1        -0.1500
      18    H12     21.444109   19.951263   25.093826 H          1 MOL1         0.0948
      19    H13     21.423085   18.281260   24.560071 H          1 MOL1         0.0948
      20    C7      20.005018   18.720818   26.136358 C.3        1 MOL1         0.1162
      21    H14     20.750862   18.498145   26.905706 H          1 MOL1         0.0910
      22    C8      19.153222   17.455341   25.934768 C.3        1 MOL1        -0.2491
      23    H15     18.318394   17.633001   25.246522 H          1 MOL1         0.0959
      24    H16     19.761803   16.635468   25.533500 H          1 MOL1         0.0959
      25    H17     18.732883   17.120148   26.890882 H          1 MOL1         0.0959
      26    N1      19.172321   19.849979   26.677844 N.4        1 MOL1        -0.5987
      27    H18     19.740655   20.682774   26.857175 H          1 MOL1         0.3605
      28    H19     18.720297   19.591900   27.559723 H          1 MOL1         0.3605
      29    H20     18.434735   20.115355   26.020544 H          1 MOL1         0.3605
@<TRIPOS>BOND
    1     1     2    1
    2     1     3    1
    3     1     4    1
    4     1     5    1
    5     5     6    1
    6     5     7    1
    7     5     8    1
    8     8     9    1
    9     8    10    1
   10     8    11    1
   11    11    12    1
   12    11    13    1
   13    11    14    1
   14    14    15    1
   15    14    16    1
   16    14    17    1
   17    17    18    1
   18    17    19    1
   19    17    20    1
   20    20    21    1
   21    20    22    1
   22    22    23    1
   23    22    24    1
   24    22    25    1
   25    20    26    1
   26    26    27    1
   27    26    28    1
   28    26    29    1
@<TRIPOS>SUBSTRUCTURE
       1 MOL1            1 RESIDUE      1      MOL     
@<SCITEGIC>MOL_PROPERTY
VM2 Rank
SciTegic.value.IntegerValue
100

@<SCITEGIC>MOL_PROPERTY
Conf_Id
SciTegic.value.IntegerValue
699

@<SCITEGIC>MOL_PROPERTY
Probability
SciTegic.value.DoubleValue
0.02

@<SCITEGIC>MOL_PROPERTY
Sum Probability
SciTegic.value.DoubleValue
99.34

@<SCITEGIC>MOL_PROPERTY
Delta G
SciTegic.value.DoubleValue
3.771

@<SCITEGIC>MOL_PROPERTY
G
SciTegic.value.DoubleValue
37.473

@<SCITEGIC>MOL_PROPERTY
E
SciTegic.value.DoubleValue
-0.420

@<SCITEGIC>MOL_PROPERTY
-TS
SciTegic.value.DoubleValue
37.893

@<SCITEGIC>MOL_PROPERTY
U+W
SciTegic.value.DoubleValue
-24.564

@<SCITEGIC>MOL_PROPERTY
U
SciTegic.value.DoubleValue
27.852

@<SCITEGIC>MOL_PROPERTY
W
SciTegic.value.DoubleValue
-52.416

@<SCITEGIC>MOL_PROPERTY
W(PB)
SciTegic.value.DoubleValue
-54.828

@<SCITEGIC>MOL_PROPERTY
W(SA)
SciTegic.value.DoubleValue
2.412

@<SCITEGIC>MOL_PROPERTY
Valence
SciTegic.value.DoubleValue
6.641

@<SCITEGIC>MOL_PROPERTY
Coulomb
SciTegic.value.DoubleValue
19.992

@<SCITEGIC>MOL_PROPERTY
VdW
SciTegic.value.DoubleValue
1.219

@<SCITEGIC>MOL_PROPERTY
VdW6
SciTegic.value.DoubleValue
-10.253

@<SCITEGIC>MOL_PROPERTY
VdW12
SciTegic.value.DoubleValue
11.472

@<SCITEGIC>MOL_PROPERTY
Bond
SciTegic.value.DoubleValue
0.310

@<SCITEGIC>MOL_PROPERTY
Angle
SciTegic.value.DoubleValue
1.946

@<SCITEGIC>MOL_PROPERTY
Pdih
SciTegic.value.DoubleValue
4.385

@<SCITEGIC>MOL_PROPERTY
Idih
SciTegic.value.DoubleValue
0.000

@<SCITEGIC>MOL_PROPERTY
Tether
SciTegic.value.DoubleValue
0.000

@<TRIPOS>MOLECULE
guest-s15_vm2.mol2 : vm2 ligand conformer 101
          29          28           1
SMALL
USER_CHARGES
 
@<TRIPOS>ATOM
       1    C1      18.255300   19.423234   20.009590 C.3        1 MOL1        -0.2426
       2    H1      18.698972   19.088031   19.063004 H          1 MOL1         0.0959
       3    H2      17.633853   18.608477   20.403523 H          1 MOL1         0.0959
       4    H3      17.596827   20.273798   19.790548 H          1 MOL1         0.0959
       5    C2      19.347574   19.826371   21.022523 C.3        1 MOL1        -0.1410
       6    H4      18.868939   20.196402   21.936873 H          1 MOL1         0.0948
       7    H5      19.928969   20.664308   20.613218 H          1 MOL1         0.0948
       8    C3      20.295158   18.644216   21.338914 C.3        1 MOL1        -0.1435
       9    H6      19.721508   17.778825   21.698234 H          1 MOL1         0.0948
      10    H7      20.767089   18.325470   20.399184 H          1 MOL1         0.0948
      11    C4      21.414290   19.000339   22.352087 C.3        1 MOL1        -0.1435
      12    H8      21.677438   20.064085   22.272422 H          1 MOL1         0.0948
      13    H9      22.321136   18.449808   22.065779 H          1 MOL1         0.0948
      14    C5      21.095011   18.636433   23.825122 C.3        1 MOL1        -0.1435
      15    H10     20.932738   17.552743   23.895988 H          1 MOL1         0.0948
      16    H11     21.982422   18.855928   24.434824 H          1 MOL1         0.0948
      17    C6      19.879245   19.391561   24.417631 C.3        1 MOL1        -0.1500
      18    H12     18.956798   19.051479   23.930341 H          1 MOL1         0.0948
      19    H13     19.985679   20.460523   24.191151 H          1 MOL1         0.0948
      20    C7      19.734540   19.226597   25.947446 C.3        1 MOL1         0.1162
      21    H14     20.674613   19.533466   26.416168 H          1 MOL1         0.0910
      22    C8      19.443850   17.768954   26.347272 C.3        1 MOL1        -0.2491
      23    H15     18.537971   17.395252   25.853870 H          1 MOL1         0.0959
      24    H16     20.277602   17.109010   26.080928 H          1 MOL1         0.0959
      25    H17     19.299016   17.687319   27.431565 H          1 MOL1         0.0959
      26    N1      18.671033   20.138294   26.493414 N.4        1 MOL1        -0.5987
      27    H18     18.867520   21.119604   26.275989 H          1 MOL1         0.3605
      28    H19     18.599361   20.060749   27.512029 H          1 MOL1         0.3605
      29    H20     17.750941   19.914767   26.104639 H          1 MOL1         0.3605
@<TRIPOS>BOND
    1     1     2    1
    2     1     3    1
    3     1     4    1
    4     1     5    1
    5     5     6    1
    6     5     7    1
    7     5     8    1
    8     8     9    1
    9     8    10    1
   10     8    11    1
   11    11    12    1
   12    11    13    1
   13    11    14    1
   14    14    15    1
   15    14    16    1
   16    14    17    1
   17    17    18    1
   18    17    19    1
   19    17    20    1
   20    20    21    1
   21    20    22    1
   22    22    23    1
   23    22    24    1
   24    22    25    1
   25    20    26    1
   26    26    27    1
   27    26    28    1
   28    26    29    1
@<TRIPOS>SUBSTRUCTURE
       1 MOL1            1 RESIDUE      1      MOL     
@<SCITEGIC>MOL_PROPERTY
VM2 Rank
SciTegic.value.IntegerValue
101

@<SCITEGIC>MOL_PROPERTY
Conf_Id
SciTegic.value.IntegerValue
145

@<SCITEGIC>MOL_PROPERTY
Probability
SciTegic.value.DoubleValue
0.02

@<SCITEGIC>MOL_PROPERTY
Sum Probability
SciTegic.value.DoubleValue
99.36

@<SCITEGIC>MOL_PROPERTY
Delta G
SciTegic.value.DoubleValue
3.774

@<SCITEGIC>MOL_PROPERTY
G
SciTegic.value.DoubleValue
37.476

@<SCITEGIC>MOL_PROPERTY
E
SciTegic.value.DoubleValue
-0.326

@<SCITEGIC>MOL_PROPERTY
-TS
SciTegic.value.DoubleValue
37.802

@<SCITEGIC>MOL_PROPERTY
U+W
SciTegic.value.DoubleValue
-24.470

@<SCITEGIC>MOL_PROPERTY
U
SciTegic.value.DoubleValue
28.013

@<SCITEGIC>MOL_PROPERTY
W
SciTegic.value.DoubleValue
-52.484

@<SCITEGIC>MOL_PROPERTY
W(PB)
SciTegic.value.DoubleValue
-54.955

@<SCITEGIC>MOL_PROPERTY
W(SA)
SciTegic.value.DoubleValue
2.471

@<SCITEGIC>MOL_PROPERTY
Valence
SciTegic.value.DoubleValue
6.671

@<SCITEGIC>MOL_PROPERTY
Coulomb
SciTegic.value.DoubleValue
20.180

@<SCITEGIC>MOL_PROPERTY
VdW
SciTegic.value.DoubleValue
1.162

@<SCITEGIC>MOL_PROPERTY
VdW6
SciTegic.value.DoubleValue
-9.853

@<SCITEGIC>MOL_PROPERTY
VdW12
SciTegic.value.DoubleValue
11.014

@<SCITEGIC>MOL_PROPERTY
Bond
SciTegic.value.DoubleValue
0.284

@<SCITEGIC>MOL_PROPERTY
Angle
SciTegic.value.DoubleValue
1.876

@<SCITEGIC>MOL_PROPERTY
Pdih
SciTegic.value.DoubleValue
4.511

@<SCITEGIC>MOL_PROPERTY
Idih
SciTegic.value.DoubleValue
0.000

@<SCITEGIC>MOL_PROPERTY
Tether
SciTegic.value.DoubleValue
0.000

@<TRIPOS>MOLECULE
guest-s15_vm2.mol2 : vm2 ligand conformer 102
          29          28           1
SMALL
USER_CHARGES
 
@<TRIPOS>ATOM
       1    C1      20.555048   19.738375   19.312208 C.3        1 MOL1        -0.2426
       2    H1      20.628469   18.781996   18.778191 H          1 MOL1         0.0959
       3    H2      19.671895   20.272297   18.937751 H          1 MOL1         0.0959
       4    H3      21.441653   20.334211   19.059344 H          1 MOL1         0.0959
       5    C2      20.463724   19.517449   20.836921 C.3        1 MOL1        -0.1410
       6    H4      20.433977   20.494567   21.336574 H          1 MOL1         0.0948
       7    H5      21.372847   19.008227   21.185953 H          1 MOL1         0.0948
       8    C3      19.218297   18.682584   21.217849 C.3        1 MOL1        -0.1435
       9    H6      18.306529   19.215870   20.915379 H          1 MOL1         0.0948
      10    H7      19.230504   17.744478   20.645900 H          1 MOL1         0.0948
      11    C4      19.143666   18.336252   22.724963 C.3        1 MOL1        -0.1435
      12    H8      20.054294   17.800150   23.017718 H          1 MOL1         0.0948
      13    H9      18.314829   17.630972   22.875913 H          1 MOL1         0.0948
      14    C5      18.916952   19.573548   23.632161 C.3        1 MOL1        -0.1435
      15    H10     19.721362   20.309342   23.504777 H          1 MOL1         0.0948
      16    H11     17.994682   20.072347   23.303621 H          1 MOL1         0.0948
      17    C6      18.772653   19.214930   25.135156 C.3        1 MOL1        -0.1500
      18    H12     18.374272   18.198043   25.248810 H          1 MOL1         0.0948
      19    H13     18.015004   19.882096   25.567099 H          1 MOL1         0.0948
      20    C7      20.065584   19.378480   25.970144 C.3        1 MOL1         0.1162
      21    H14     20.400797   20.416152   25.878277 H          1 MOL1         0.0910
      22    C8      21.205680   18.463164   25.493201 C.3        1 MOL1        -0.2491
      23    H15     20.890006   17.412708   25.471684 H          1 MOL1         0.0959
      24    H16     21.544119   18.747359   24.490156 H          1 MOL1         0.0959
      25    H17     22.072525   18.544938   26.160419 H          1 MOL1         0.0959
      26    N1      19.794395   19.151218   27.431398 N.4        1 MOL1        -0.5987
      27    H18     19.070737   19.784466   27.783789 H          1 MOL1         0.3605
      28    H19     20.634812   19.304849   27.995979 H          1 MOL1         0.3605
      29    H20     19.478393   18.193842   27.608295 H          1 MOL1         0.3605
@<TRIPOS>BOND
    1     1     2    1
    2     1     3    1
    3     1     4    1
    4     1     5    1
    5     5     6    1
    6     5     7    1
    7     5     8    1
    8     8     9    1
    9     8    10    1
   10     8    11    1
   11    11    12    1
   12    11    13    1
   13    11    14    1
   14    14    15    1
   15    14    16    1
   16    14    17    1
   17    17    18    1
   18    17    19    1
   19    17    20    1
   20    20    21    1
   21    20    22    1
   22    22    23    1
   23    22    24    1
   24    22    25    1
   25    20    26    1
   26    26    27    1
   27    26    28    1
   28    26    29    1
@<TRIPOS>SUBSTRUCTURE
       1 MOL1            1 RESIDUE      1      MOL     
@<SCITEGIC>MOL_PROPERTY
VM2 Rank
SciTegic.value.IntegerValue
102

@<SCITEGIC>MOL_PROPERTY
Conf_Id
SciTegic.value.IntegerValue
290

@<SCITEGIC>MOL_PROPERTY
Probability
SciTegic.value.DoubleValue
0.02

@<SCITEGIC>MOL_PROPERTY
Sum Probability
SciTegic.value.DoubleValue
99.38

@<SCITEGIC>MOL_PROPERTY
Delta G
SciTegic.value.DoubleValue
3.783

@<SCITEGIC>MOL_PROPERTY
G
SciTegic.value.DoubleValue
37.485

@<SCITEGIC>MOL_PROPERTY
E
SciTegic.value.DoubleValue
-0.253

@<SCITEGIC>MOL_PROPERTY
-TS
SciTegic.value.DoubleValue
37.738

@<SCITEGIC>MOL_PROPERTY
U+W
SciTegic.value.DoubleValue
-24.398

@<SCITEGIC>MOL_PROPERTY
U
SciTegic.value.DoubleValue
27.862

@<SCITEGIC>MOL_PROPERTY
W
SciTegic.value.DoubleValue
-52.260

@<SCITEGIC>MOL_PROPERTY
W(PB)
SciTegic.value.DoubleValue
-54.709

@<SCITEGIC>MOL_PROPERTY
W(SA)
SciTegic.value.DoubleValue
2.449

@<SCITEGIC>MOL_PROPERTY
Valence
SciTegic.value.DoubleValue
6.792

@<SCITEGIC>MOL_PROPERTY
Coulomb
SciTegic.value.DoubleValue
19.861

@<SCITEGIC>MOL_PROPERTY
VdW
SciTegic.value.DoubleValue
1.209

@<SCITEGIC>MOL_PROPERTY
VdW6
SciTegic.value.DoubleValue
-9.832

@<SCITEGIC>MOL_PROPERTY
VdW12
SciTegic.value.DoubleValue
11.041

@<SCITEGIC>MOL_PROPERTY
Bond
SciTegic.value.DoubleValue
0.295

@<SCITEGIC>MOL_PROPERTY
Angle
SciTegic.value.DoubleValue
1.936

@<SCITEGIC>MOL_PROPERTY
Pdih
SciTegic.value.DoubleValue
4.561

@<SCITEGIC>MOL_PROPERTY
Idih
SciTegic.value.DoubleValue
0.000

@<SCITEGIC>MOL_PROPERTY
Tether
SciTegic.value.DoubleValue
0.000

@<TRIPOS>MOLECULE
guest-s15_vm2.mol2 : vm2 ligand conformer 103
          29          28           1
SMALL
USER_CHARGES
 
@<TRIPOS>ATOM
       1    C1      20.156108   17.813748   20.031630 C.3        1 MOL1        -0.2426
       2    H1      21.241915   17.771940   20.187489 H          1 MOL1         0.0959
       3    H2      19.672872   17.211235   20.810642 H          1 MOL1         0.0959
       4    H3      19.937148   17.340433   19.065733 H          1 MOL1         0.0959
       5    C2      19.648516   19.273529   20.045515 C.3        1 MOL1        -0.1410
       6    H4      18.556789   19.286636   19.920326 H          1 MOL1         0.0948
       7    H5      20.064116   19.800808   19.175453 H          1 MOL1         0.0948
       8    C3      20.037913   20.048263   21.327545 C.3        1 MOL1        -0.1435
       9    H6      21.131051   20.047482   21.438213 H          1 MOL1         0.0948
      10    H7      19.740352   21.098760   21.204269 H          1 MOL1         0.0948
      11    C4      19.383210   19.484715   22.611277 C.3        1 MOL1        -0.1435
      12    H8      19.716369   18.453763   22.773012 H          1 MOL1         0.0948
      13    H9      18.293508   19.445054   22.476936 H          1 MOL1         0.0948
      14    C5      19.715554   20.351668   23.850511 C.3        1 MOL1        -0.1435
      15    H10     20.802955   20.466904   23.958837 H          1 MOL1         0.0948
      16    H11     19.320061   21.362096   23.676905 H          1 MOL1         0.0948
      17    C6      19.104175   19.804009   25.167437 C.3        1 MOL1        -0.1500
      18    H12     18.193828   19.228045   24.954481 H          1 MOL1         0.0948
      19    H13     18.779755   20.663703   25.768606 H          1 MOL1         0.0948
      20    C7      20.074431   18.968504   26.037038 C.3        1 MOL1         0.1162
      21    H14     20.944104   19.590681   26.269722 H          1 MOL1         0.0910
      22    C8      20.570845   17.697598   25.327327 C.3        1 MOL1        -0.2491
      23    H15     19.731620   17.078749   24.986291 H          1 MOL1         0.0959
      24    H16     21.194416   17.948912   24.461581 H          1 MOL1         0.0959
      25    H17     21.187556   17.092697   26.003380 H          1 MOL1         0.0959
      26    N1      19.445247   18.613966   27.355721 N.4        1 MOL1        -0.5987
      27    H18     20.098250   18.102124   27.955945 H          1 MOL1         0.3605
      28    H19     18.619404   18.022703   27.228829 H          1 MOL1         0.3605
      29    H20     19.150025   19.449232   27.869576 H          1 MOL1         0.3605
@<TRIPOS>BOND
    1     1     2    1
    2     1     3    1
    3     1     4    1
    4     1     5    1
    5     5     6    1
    6     5     7    1
    7     5     8    1
    8     8     9    1
    9     8    10    1
   10     8    11    1
   11    11    12    1
   12    11    13    1
   13    11    14    1
   14    14    15    1
   15    14    16    1
   16    14    17    1
   17    17    18    1
   18    17    19    1
   19    17    20    1
   20    20    21    1
   21    20    22    1
   22    22    23    1
   23    22    24    1
   24    22    25    1
   25    20    26    1
   26    26    27    1
   27    26    28    1
   28    26    29    1
@<TRIPOS>SUBSTRUCTURE
       1 MOL1            1 RESIDUE      1      MOL     
@<SCITEGIC>MOL_PROPERTY
VM2 Rank
SciTegic.value.IntegerValue
103

@<SCITEGIC>MOL_PROPERTY
Conf_Id
SciTegic.value.IntegerValue
195

@<SCITEGIC>MOL_PROPERTY
Probability
SciTegic.value.DoubleValue
0.02

@<SCITEGIC>MOL_PROPERTY
Sum Probability
SciTegic.value.DoubleValue
99.40

@<SCITEGIC>MOL_PROPERTY
Delta G
SciTegic.value.DoubleValue
3.804

@<SCITEGIC>MOL_PROPERTY
G
SciTegic.value.DoubleValue
37.506

@<SCITEGIC>MOL_PROPERTY
E
SciTegic.value.DoubleValue
-0.288

@<SCITEGIC>MOL_PROPERTY
-TS
SciTegic.value.DoubleValue
37.793

@<SCITEGIC>MOL_PROPERTY
U+W
SciTegic.value.DoubleValue
-24.432

@<SCITEGIC>MOL_PROPERTY
U
SciTegic.value.DoubleValue
27.713

@<SCITEGIC>MOL_PROPERTY
W
SciTegic.value.DoubleValue
-52.145

@<SCITEGIC>MOL_PROPERTY
W(PB)
SciTegic.value.DoubleValue
-54.603

@<SCITEGIC>MOL_PROPERTY
W(SA)
SciTegic.value.DoubleValue
2.458

@<SCITEGIC>MOL_PROPERTY
Valence
SciTegic.value.DoubleValue
6.758

@<SCITEGIC>MOL_PROPERTY
Coulomb
SciTegic.value.DoubleValue
19.720

@<SCITEGIC>MOL_PROPERTY
VdW
SciTegic.value.DoubleValue
1.236

@<SCITEGIC>MOL_PROPERTY
VdW6
SciTegic.value.DoubleValue
-9.782

@<SCITEGIC>MOL_PROPERTY
VdW12
SciTegic.value.DoubleValue
11.017

@<SCITEGIC>MOL_PROPERTY
Bond
SciTegic.value.DoubleValue
0.287

@<SCITEGIC>MOL_PROPERTY
Angle
SciTegic.value.DoubleValue
1.880

@<SCITEGIC>MOL_PROPERTY
Pdih
SciTegic.value.DoubleValue
4.591

@<SCITEGIC>MOL_PROPERTY
Idih
SciTegic.value.DoubleValue
0.000

@<SCITEGIC>MOL_PROPERTY
Tether
SciTegic.value.DoubleValue
0.000

@<TRIPOS>MOLECULE
guest-s15_vm2.mol2 : vm2 ligand conformer 104
          29          28           1
SMALL
USER_CHARGES
 
@<TRIPOS>ATOM
       1    C1      19.386298   18.804194   19.328043 C.3        1 MOL1        -0.2426
       2    H1      19.333468   17.814852   18.855355 H          1 MOL1         0.0959
       3    H2      18.482678   19.360586   19.046768 H          1 MOL1         0.0959
       4    H3      20.255390   19.330589   18.912317 H          1 MOL1         0.0959
       5    C2      19.501018   18.670104   20.861240 C.3        1 MOL1        -0.1410
       6    H4      20.392218   18.075108   21.101273 H          1 MOL1         0.0948
       7    H5      18.633708   18.114337   21.244022 H          1 MOL1         0.0948
       8    C3      19.581147   20.053006   21.549809 C.3        1 MOL1        -0.1435
       9    H6      20.475490   20.588494   21.202472 H          1 MOL1         0.0948
      10    H7      18.719176   20.658490   21.237242 H          1 MOL1         0.0948
      11    C4      19.590899   19.972785   23.095836 C.3        1 MOL1        -0.1435
      12    H8      18.680557   19.457928   23.426186 H          1 MOL1         0.0948
      13    H9      19.545328   20.994604   23.496995 H          1 MOL1         0.0948
      14    C5      20.842346   19.258178   23.664374 C.3        1 MOL1        -0.1435
      15    H10     20.820729   18.193337   23.399815 H          1 MOL1         0.0948
      16    H11     21.734401   19.669706   23.172488 H          1 MOL1         0.0948
      17    C6      21.033099   19.411637   25.199673 C.3        1 MOL1        -0.1500
      18    H12     21.175900   20.472500   25.443496 H          1 MOL1         0.0948
      19    H13     21.978126   18.921844   25.469023 H          1 MOL1         0.0948
      20    C7      19.927332   18.828994   26.116526 C.3        1 MOL1         0.1162
      21    H14     20.326964   18.834126   27.135330 H          1 MOL1         0.0910
      22    C8      19.581062   17.371177   25.767087 C.3        1 MOL1        -0.2491
      23    H15     19.085322   17.295271   24.791905 H          1 MOL1         0.0959
      24    H16     20.486346   16.751980   25.742554 H          1 MOL1         0.0959
      25    H17     18.906769   16.945491   26.520226 H          1 MOL1         0.0959
      26    N1      18.692799   19.685925   26.171413 N.4        1 MOL1        -0.5987
      27    H18     18.244702   19.749755   25.255065 H          1 MOL1         0.3605
      28    H19     18.912122   20.638877   26.475521 H          1 MOL1         0.3605
      29    H20     18.003996   19.306627   26.827494 H          1 MOL1         0.3605
@<TRIPOS>BOND
    1     1     2    1
    2     1     3    1
    3     1     4    1
    4     1     5    1
    5     5     6    1
    6     5     7    1
    7     5     8    1
    8     8     9    1
    9     8    10    1
   10     8    11    1
   11    11    12    1
   12    11    13    1
   13    11    14    1
   14    14    15    1
   15    14    16    1
   16    14    17    1
   17    17    18    1
   18    17    19    1
   19    17    20    1
   20    20    21    1
   21    20    22    1
   22    22    23    1
   23    22    24    1
   24    22    25    1
   25    20    26    1
   26    26    27    1
   27    26    28    1
   28    26    29    1
@<TRIPOS>SUBSTRUCTURE
       1 MOL1            1 RESIDUE      1      MOL     
@<SCITEGIC>MOL_PROPERTY
VM2 Rank
SciTegic.value.IntegerValue
104

@<SCITEGIC>MOL_PROPERTY
Conf_Id
SciTegic.value.IntegerValue
546

@<SCITEGIC>MOL_PROPERTY
Probability
SciTegic.value.DoubleValue
0.02

@<SCITEGIC>MOL_PROPERTY
Sum Probability
SciTegic.value.DoubleValue
99.41

@<SCITEGIC>MOL_PROPERTY
Delta G
SciTegic.value.DoubleValue
3.829

@<SCITEGIC>MOL_PROPERTY
G
SciTegic.value.DoubleValue
37.532

@<SCITEGIC>MOL_PROPERTY
E
SciTegic.value.DoubleValue
-0.571

@<SCITEGIC>MOL_PROPERTY
-TS
SciTegic.value.DoubleValue
38.103

@<SCITEGIC>MOL_PROPERTY
U+W
SciTegic.value.DoubleValue
-24.716

@<SCITEGIC>MOL_PROPERTY
U
SciTegic.value.DoubleValue
27.804

@<SCITEGIC>MOL_PROPERTY
W
SciTegic.value.DoubleValue
-52.520

@<SCITEGIC>MOL_PROPERTY
W(PB)
SciTegic.value.DoubleValue
-54.966

@<SCITEGIC>MOL_PROPERTY
W(SA)
SciTegic.value.DoubleValue
2.446

@<SCITEGIC>MOL_PROPERTY
Valence
SciTegic.value.DoubleValue
5.527

@<SCITEGIC>MOL_PROPERTY
Coulomb
SciTegic.value.DoubleValue
21.305

@<SCITEGIC>MOL_PROPERTY
VdW
SciTegic.value.DoubleValue
0.973

@<SCITEGIC>MOL_PROPERTY
VdW6
SciTegic.value.DoubleValue
-10.820

@<SCITEGIC>MOL_PROPERTY
VdW12
SciTegic.value.DoubleValue
11.793

@<SCITEGIC>MOL_PROPERTY
Bond
SciTegic.value.DoubleValue
0.332

@<SCITEGIC>MOL_PROPERTY
Angle
SciTegic.value.DoubleValue
2.322

@<SCITEGIC>MOL_PROPERTY
Pdih
SciTegic.value.DoubleValue
2.873

@<SCITEGIC>MOL_PROPERTY
Idih
SciTegic.value.DoubleValue
0.000

@<SCITEGIC>MOL_PROPERTY
Tether
SciTegic.value.DoubleValue
0.000

@<TRIPOS>MOLECULE
guest-s15_vm2.mol2 : vm2 ligand conformer 105
          29          28           1
SMALL
USER_CHARGES
 
@<TRIPOS>ATOM
       1    C1      20.636994   18.333704   19.845503 C.3        1 MOL1        -0.2426
       2    H1      19.740544   17.799054   19.505568 H          1 MOL1         0.0959
       3    H2      21.359475   18.337180   19.019104 H          1 MOL1         0.0959
       4    H3      21.083776   17.766554   20.671453 H          1 MOL1         0.0959
       5    C2      20.294001   19.779677   20.269805 C.3        1 MOL1        -0.1410
       6    H4      19.966771   20.340743   19.383305 H          1 MOL1         0.0948
       7    H5      21.200571   20.282487   20.634535 H          1 MOL1         0.0948
       8    C3      19.183385   19.858232   21.344895 C.3        1 MOL1        -0.1435
       9    H6      18.930866   20.914935   21.509036 H          1 MOL1         0.0948
      10    H7      18.271235   19.377551   20.965212 H          1 MOL1         0.0948
      11    C4      19.587294   19.219481   22.695079 C.3        1 MOL1        -0.1435
      12    H8      20.531408   19.666545   23.032713 H          1 MOL1         0.0948
      13    H9      19.764816   18.144541   22.560173 H          1 MOL1         0.0948
      14    C5      18.496814   19.422639   23.772685 C.3        1 MOL1        -0.1435
      15    H10     18.369812   20.496727   23.966847 H          1 MOL1         0.0948
      16    H11     17.534689   19.065571   23.379989 H          1 MOL1         0.0948
      17    C6      18.781414   18.690621   25.108891 C.3        1 MOL1        -0.1500
      18    H12     18.821050   17.605588   24.943828 H          1 MOL1         0.0948
      19    H13     17.916325   18.858165   25.764094 H          1 MOL1         0.0948
      20    C7      20.063831   19.175550   25.827792 C.3        1 MOL1         0.1162
      21    H14     20.321879   20.164384   25.436419 H          1 MOL1         0.0910
      22    C8      21.247979   18.222022   25.584314 C.3        1 MOL1        -0.2491
      23    H15     22.160242   18.612380   26.051954 H          1 MOL1         0.0959
      24    H16     21.048738   17.229374   26.007170 H          1 MOL1         0.0959
      25    H17     21.452321   18.097237   24.515349 H          1 MOL1         0.0959
      26    N1      19.844288   19.354072   27.305036 N.4        1 MOL1        -0.5987
      27    H18     20.687361   19.704953   27.768597 H          1 MOL1         0.3605
      28    H19     19.593532   18.469675   27.755455 H          1 MOL1         0.3605
      29    H20     19.091492   20.021891   27.495762 H          1 MOL1         0.3605
@<TRIPOS>BOND
    1     1     2    1
    2     1     3    1
    3     1     4    1
    4     1     5    1
    5     5     6    1
    6     5     7    1
    7     5     8    1
    8     8     9    1
    9     8    10    1
   10     8    11    1
   11    11    12    1
   12    11    13    1
   13    11    14    1
   14    14    15    1
   15    14    16    1
   16    14    17    1
   17    17    18    1
   18    17    19    1
   19    17    20    1
   20    20    21    1
   21    20    22    1
   22    22    23    1
   23    22    24    1
   24    22    25    1
   25    20    26    1
   26    26    27    1
   27    26    28    1
   28    26    29    1
@<TRIPOS>SUBSTRUCTURE
       1 MOL1            1 RESIDUE      1      MOL     
@<SCITEGIC>MOL_PROPERTY
VM2 Rank
SciTegic.value.IntegerValue
105

@<SCITEGIC>MOL_PROPERTY
Conf_Id
SciTegic.value.IntegerValue
1046

@<SCITEGIC>MOL_PROPERTY
Probability
SciTegic.value.DoubleValue
0.02

@<SCITEGIC>MOL_PROPERTY
Sum Probability
SciTegic.value.DoubleValue
99.43

@<SCITEGIC>MOL_PROPERTY
Delta G
SciTegic.value.DoubleValue
3.839

@<SCITEGIC>MOL_PROPERTY
G
SciTegic.value.DoubleValue
37.541

@<SCITEGIC>MOL_PROPERTY
E
SciTegic.value.DoubleValue
-0.122

@<SCITEGIC>MOL_PROPERTY
-TS
SciTegic.value.DoubleValue
37.663

@<SCITEGIC>MOL_PROPERTY
U+W
SciTegic.value.DoubleValue
-24.266

@<SCITEGIC>MOL_PROPERTY
U
SciTegic.value.DoubleValue
27.819

@<SCITEGIC>MOL_PROPERTY
W
SciTegic.value.DoubleValue
-52.086

@<SCITEGIC>MOL_PROPERTY
W(PB)
SciTegic.value.DoubleValue
-54.560

@<SCITEGIC>MOL_PROPERTY
W(SA)
SciTegic.value.DoubleValue
2.474

@<SCITEGIC>MOL_PROPERTY
Valence
SciTegic.value.DoubleValue
6.783

@<SCITEGIC>MOL_PROPERTY
Coulomb
SciTegic.value.DoubleValue
19.802

@<SCITEGIC>MOL_PROPERTY
VdW
SciTegic.value.DoubleValue
1.234

@<SCITEGIC>MOL_PROPERTY
VdW6
SciTegic.value.DoubleValue
-9.714

@<SCITEGIC>MOL_PROPERTY
VdW12
SciTegic.value.DoubleValue
10.948

@<SCITEGIC>MOL_PROPERTY
Bond
SciTegic.value.DoubleValue
0.259

@<SCITEGIC>MOL_PROPERTY
Angle
SciTegic.value.DoubleValue
1.621

@<SCITEGIC>MOL_PROPERTY
Pdih
SciTegic.value.DoubleValue
4.902

@<SCITEGIC>MOL_PROPERTY
Idih
SciTegic.value.DoubleValue
0.000

@<SCITEGIC>MOL_PROPERTY
Tether
SciTegic.value.DoubleValue
0.000

@<TRIPOS>MOLECULE
guest-s15_vm2.mol2 : vm2 ligand conformer 106
          29          28           1
SMALL
USER_CHARGES
 
@<TRIPOS>ATOM
       1    C1      21.021581   20.182219   20.230177 C.3        1 MOL1        -0.2426
       2    H1      21.684800   20.193302   19.355564 H          1 MOL1         0.0959
       3    H2      20.501946   21.148367   20.269723 H          1 MOL1         0.0959
       4    H3      21.654234   20.094541   21.122079 H          1 MOL1         0.0959
       5    C2      20.015043   19.013604   20.130373 C.3        1 MOL1        -0.1410
       6    H4      20.557670   18.057961   20.125772 H          1 MOL1         0.0948
       7    H5      19.494681   19.076303   19.164427 H          1 MOL1         0.0948
       8    C3      18.960075   19.010967   21.262902 C.3        1 MOL1        -0.1435
       9    H6      18.404795   19.958978   21.249311 H          1 MOL1         0.0948
      10    H7      18.226765   18.219973   21.053515 H          1 MOL1         0.0948
      11    C4      19.565734   18.781091   22.668121 C.3        1 MOL1        -0.1435
      12    H8      20.247927   19.605667   22.908482 H          1 MOL1         0.0948
      13    H9      20.159301   17.856627   22.663898 H          1 MOL1         0.0948
      14    C5      18.470101   18.688323   23.755735 C.3        1 MOL1        -0.1435
      15    H10     17.920508   19.638731   23.802521 H          1 MOL1         0.0948
      16    H11     17.737258   17.923804   23.462882 H          1 MOL1         0.0948
      17    C6      19.005841   18.335659   25.166734 C.3        1 MOL1        -0.1500
      18    H12     19.480659   17.345464   25.153313 H          1 MOL1         0.0948
      19    H13     18.137236   18.237547   25.831294 H          1 MOL1         0.0948
      20    C7      19.974862   19.392384   25.750674 C.3        1 MOL1         0.1162
      21    H14     19.822521   20.331495   25.209916 H          1 MOL1         0.0910
      22    C8      21.445415   18.963814   25.594154 C.3        1 MOL1        -0.2491
      23    H15     22.117561   19.750651   25.958016 H          1 MOL1         0.0959
      24    H16     21.653057   18.050197   26.165159 H          1 MOL1         0.0959
      25    H17     21.699909   18.770395   24.546342 H          1 MOL1         0.0959
      26    N1      19.677346   19.687939   27.195130 N.4        1 MOL1        -0.5987
      27    H18     19.793749   18.855146   27.778935 H          1 MOL1         0.3605
      28    H19     18.717152   20.021424   27.321140 H          1 MOL1         0.3605
      29    H20     20.301718   20.410404   27.565243 H          1 MOL1         0.3605
@<TRIPOS>BOND
    1     1     2    1
    2     1     3    1
    3     1     4    1
    4     1     5    1
    5     5     6    1
    6     5     7    1
    7     5     8    1
    8     8     9    1
    9     8    10    1
   10     8    11    1
   11    11    12    1
   12    11    13    1
   13    11    14    1
   14    14    15    1
   15    14    16    1
   16    14    17    1
   17    17    18    1
   18    17    19    1
   19    17    20    1
   20    20    21    1
   21    20    22    1
   22    22    23    1
   23    22    24    1
   24    22    25    1
   25    20    26    1
   26    26    27    1
   27    26    28    1
   28    26    29    1
@<TRIPOS>SUBSTRUCTURE
       1 MOL1            1 RESIDUE      1      MOL     
@<SCITEGIC>MOL_PROPERTY
VM2 Rank
SciTegic.value.IntegerValue
106

@<SCITEGIC>MOL_PROPERTY
Conf_Id
SciTegic.value.IntegerValue
237

@<SCITEGIC>MOL_PROPERTY
Probability
SciTegic.value.DoubleValue
0.02

@<SCITEGIC>MOL_PROPERTY
Sum Probability
SciTegic.value.DoubleValue
99.45

@<SCITEGIC>MOL_PROPERTY
Delta G
SciTegic.value.DoubleValue
3.848

@<SCITEGIC>MOL_PROPERTY
G
SciTegic.value.DoubleValue
37.550

@<SCITEGIC>MOL_PROPERTY
E
SciTegic.value.DoubleValue
-0.112

@<SCITEGIC>MOL_PROPERTY
-TS
SciTegic.value.DoubleValue
37.662

@<SCITEGIC>MOL_PROPERTY
U+W
SciTegic.value.DoubleValue
-24.257

@<SCITEGIC>MOL_PROPERTY
U
SciTegic.value.DoubleValue
27.879

@<SCITEGIC>MOL_PROPERTY
W
SciTegic.value.DoubleValue
-52.135

@<SCITEGIC>MOL_PROPERTY
W(PB)
SciTegic.value.DoubleValue
-54.595

@<SCITEGIC>MOL_PROPERTY
W(SA)
SciTegic.value.DoubleValue
2.460

@<SCITEGIC>MOL_PROPERTY
Valence
SciTegic.value.DoubleValue
6.781

@<SCITEGIC>MOL_PROPERTY
Coulomb
SciTegic.value.DoubleValue
19.866

@<SCITEGIC>MOL_PROPERTY
VdW
SciTegic.value.DoubleValue
1.231

@<SCITEGIC>MOL_PROPERTY
VdW6
SciTegic.value.DoubleValue
-9.740

@<SCITEGIC>MOL_PROPERTY
VdW12
SciTegic.value.DoubleValue
10.970

@<SCITEGIC>MOL_PROPERTY
Bond
SciTegic.value.DoubleValue
0.261

@<SCITEGIC>MOL_PROPERTY
Angle
SciTegic.value.DoubleValue
1.614

@<SCITEGIC>MOL_PROPERTY
Pdih
SciTegic.value.DoubleValue
4.906

@<SCITEGIC>MOL_PROPERTY
Idih
SciTegic.value.DoubleValue
0.000

@<SCITEGIC>MOL_PROPERTY
Tether
SciTegic.value.DoubleValue
0.000

@<TRIPOS>MOLECULE
guest-s15_vm2.mol2 : vm2 ligand conformer 107
          29          28           1
SMALL
USER_CHARGES
 
@<TRIPOS>ATOM
       1    C1      20.859210   19.990785   19.804594 C.3        1 MOL1        -0.2426
       2    H1      20.997825   21.030051   19.479424 H          1 MOL1         0.0959
       3    H2      21.827319   19.617905   20.163665 H          1 MOL1         0.0959
       4    H3      20.568964   19.398866   18.926744 H          1 MOL1         0.0959
       5    C2      19.787166   19.904416   20.911330 C.3        1 MOL1        -0.1410
       6    H4      18.841435   20.315826   20.531798 H          1 MOL1         0.0948
       7    H5      20.087867   20.540231   21.752543 H          1 MOL1         0.0948
       8    C3      19.566474   18.445364   21.378142 C.3        1 MOL1        -0.1435
       9    H6      19.236859   17.856524   20.510950 H          1 MOL1         0.0948
      10    H7      20.516151   17.998927   21.703543 H          1 MOL1         0.0948
      11    C4      18.501102   18.308462   22.497058 C.3        1 MOL1        -0.1435
      12    H8      17.946122   17.375410   22.327279 H          1 MOL1         0.0948
      13    H9      17.757126   19.112942   22.416702 H          1 MOL1         0.0948
      14    C5      19.075154   18.253219   23.936333 C.3        1 MOL1        -0.1435
      15    H10     18.240684   18.073069   24.626383 H          1 MOL1         0.0948
      16    H11     19.737996   17.381836   24.021129 H          1 MOL1         0.0948
      17    C6      19.835627   19.535853   24.365801 C.3        1 MOL1        -0.1500
      18    H12     19.215802   20.415292   24.147927 H          1 MOL1         0.0948
      19    H13     20.744631   19.639509   23.760385 H          1 MOL1         0.0948
      20    C7      20.243629   19.580353   25.857265 C.3        1 MOL1         0.1162
      21    H14     20.765871   20.527679   26.023372 H          1 MOL1         0.0910
      22    C8      21.212696   18.443279   26.224904 C.3        1 MOL1        -0.2491
      23    H15     20.725756   17.462343   26.169284 H          1 MOL1         0.0959
      24    H16     22.078751   18.436257   25.551486 H          1 MOL1         0.0959
      25    H17     21.587447   18.574058   27.247473 H          1 MOL1         0.0959
      26    N1      19.054941   19.594269   26.778573 N.4        1 MOL1        -0.5987
      27    H18     18.512682   18.730592   26.698383 H          1 MOL1         0.3605
      28    H19     18.425916   20.374435   26.568002 H          1 MOL1         0.3605
      29    H20     19.341426   19.687426   27.757287 H          1 MOL1         0.3605
@<TRIPOS>BOND
    1     1     2    1
    2     1     3    1
    3     1     4    1
    4     1     5    1
    5     5     6    1
    6     5     7    1
    7     5     8    1
    8     8     9    1
    9     8    10    1
   10     8    11    1
   11    11    12    1
   12    11    13    1
   13    11    14    1
   14    14    15    1
   15    14    16    1
   16    14    17    1
   17    17    18    1
   18    17    19    1
   19    17    20    1
   20    20    21    1
   21    20    22    1
   22    22    23    1
   23    22    24    1
   24    22    25    1
   25    20    26    1
   26    26    27    1
   27    26    28    1
   28    26    29    1
@<TRIPOS>SUBSTRUCTURE
       1 MOL1            1 RESIDUE      1      MOL     
@<SCITEGIC>MOL_PROPERTY
VM2 Rank
SciTegic.value.IntegerValue
107

@<SCITEGIC>MOL_PROPERTY
Conf_Id
SciTegic.value.IntegerValue
113

@<SCITEGIC>MOL_PROPERTY
Probability
SciTegic.value.DoubleValue
0.02

@<SCITEGIC>MOL_PROPERTY
Sum Probability
SciTegic.value.DoubleValue
99.46

@<SCITEGIC>MOL_PROPERTY
Delta G
SciTegic.value.DoubleValue
3.860

@<SCITEGIC>MOL_PROPERTY
G
SciTegic.value.DoubleValue
37.562

@<SCITEGIC>MOL_PROPERTY
E
SciTegic.value.DoubleValue
-0.373

@<SCITEGIC>MOL_PROPERTY
-TS
SciTegic.value.DoubleValue
37.935

@<SCITEGIC>MOL_PROPERTY
U+W
SciTegic.value.DoubleValue
-24.518

@<SCITEGIC>MOL_PROPERTY
U
SciTegic.value.DoubleValue
27.916

@<SCITEGIC>MOL_PROPERTY
W
SciTegic.value.DoubleValue
-52.434

@<SCITEGIC>MOL_PROPERTY
W(PB)
SciTegic.value.DoubleValue
-54.867

@<SCITEGIC>MOL_PROPERTY
W(SA)
SciTegic.value.DoubleValue
2.433

@<SCITEGIC>MOL_PROPERTY
Valence
SciTegic.value.DoubleValue
6.693

@<SCITEGIC>MOL_PROPERTY
Coulomb
SciTegic.value.DoubleValue
20.015

@<SCITEGIC>MOL_PROPERTY
VdW
SciTegic.value.DoubleValue
1.208

@<SCITEGIC>MOL_PROPERTY
VdW6
SciTegic.value.DoubleValue
-10.294

@<SCITEGIC>MOL_PROPERTY
VdW12
SciTegic.value.DoubleValue
11.502

@<SCITEGIC>MOL_PROPERTY
Bond
SciTegic.value.DoubleValue
0.312

@<SCITEGIC>MOL_PROPERTY
Angle
SciTegic.value.DoubleValue
1.940

@<SCITEGIC>MOL_PROPERTY
Pdih
SciTegic.value.DoubleValue
4.441

@<SCITEGIC>MOL_PROPERTY
Idih
SciTegic.value.DoubleValue
0.000

@<SCITEGIC>MOL_PROPERTY
Tether
SciTegic.value.DoubleValue
0.000

@<TRIPOS>MOLECULE
guest-s15_vm2.mol2 : vm2 ligand conformer 108
          29          28           1
SMALL
USER_CHARGES
 
@<TRIPOS>ATOM
       1    C1      19.627143   20.060924   19.701599 C.3        1 MOL1        -0.2426
       2    H1      18.772585   19.381895   19.594262 H          1 MOL1         0.0959
       3    H2      19.251306   21.037929   20.032072 H          1 MOL1         0.0959
       4    H3      20.070042   20.191592   18.705759 H          1 MOL1         0.0959
       5    C2      20.677376   19.505953   20.690719 C.3        1 MOL1        -0.1410
       6    H4      21.563213   20.155784   20.662304 H          1 MOL1         0.0948
       7    H5      21.013457   18.513963   20.357934 H          1 MOL1         0.0948
       8    C3      20.170410   19.425983   22.151088 C.3        1 MOL1        -0.1435
       9    H6      21.029095   19.177656   22.787179 H          1 MOL1         0.0948
      10    H7      19.811779   20.414219   22.469860 H          1 MOL1         0.0948
      11    C4      19.060746   18.366248   22.362236 C.3        1 MOL1        -0.1435
      12    H8      19.462239   17.369724   22.132570 H          1 MOL1         0.0948
      13    H9      18.247512   18.538984   21.646190 H          1 MOL1         0.0948
      14    C5      18.439777   18.357070   23.783323 C.3        1 MOL1        -0.1435
      15    H10     17.923641   19.307207   23.971031 H          1 MOL1         0.0948
      16    H11     17.652352   17.590740   23.791384 H          1 MOL1         0.0948
      17    C6      19.433692   18.031482   24.931386 C.3        1 MOL1        -0.1500
      18    H12     20.152605   17.278488   24.582026 H          1 MOL1         0.0948
      19    H13     18.880143   17.559067   25.753790 H          1 MOL1         0.0948
      20    C7      20.188189   19.257339   25.496835 C.3        1 MOL1         0.1162
      21    H14     20.675618   19.785298   24.674307 H          1 MOL1         0.0910
      22    C8      21.275017   18.804389   26.484435 C.3        1 MOL1        -0.2491
      23    H15     20.838471   18.271948   27.338772 H          1 MOL1         0.0959
      24    H16     21.992018   18.134100   25.994145 H          1 MOL1         0.0959
      25    H17     21.834672   19.666245   26.868360 H          1 MOL1         0.0959
      26    N1      19.263650   20.246611   26.152379 N.4        1 MOL1        -0.5987
      27    H18     19.775611   21.059707   26.506468 H          1 MOL1         0.3605
      28    H19     18.769999   19.826775   26.944581 H          1 MOL1         0.3605
      29    H20     18.557386   20.590538   25.496396 H          1 MOL1         0.3605
@<TRIPOS>BOND
    1     1     2    1
    2     1     3    1
    3     1     4    1
    4     1     5    1
    5     5     6    1
    6     5     7    1
    7     5     8    1
    8     8     9    1
    9     8    10    1
   10     8    11    1
   11    11    12    1
   12    11    13    1
   13    11    14    1
   14    14    15    1
   15    14    16    1
   16    14    17    1
   17    17    18    1
   18    17    19    1
   19    17    20    1
   20    20    21    1
   21    20    22    1
   22    22    23    1
   23    22    24    1
   24    22    25    1
   25    20    26    1
   26    26    27    1
   27    26    28    1
   28    26    29    1
@<TRIPOS>SUBSTRUCTURE
       1 MOL1            1 RESIDUE      1      MOL     
@<SCITEGIC>MOL_PROPERTY
VM2 Rank
SciTegic.value.IntegerValue
108

@<SCITEGIC>MOL_PROPERTY
Conf_Id
SciTegic.value.IntegerValue
696

@<SCITEGIC>MOL_PROPERTY
Probability
SciTegic.value.DoubleValue
0.02

@<SCITEGIC>MOL_PROPERTY
Sum Probability
SciTegic.value.DoubleValue
99.48

@<SCITEGIC>MOL_PROPERTY
Delta G
SciTegic.value.DoubleValue
3.862

@<SCITEGIC>MOL_PROPERTY
G
SciTegic.value.DoubleValue
37.564

@<SCITEGIC>MOL_PROPERTY
E
SciTegic.value.DoubleValue
-0.218

@<SCITEGIC>MOL_PROPERTY
-TS
SciTegic.value.DoubleValue
37.782

@<SCITEGIC>MOL_PROPERTY
U+W
SciTegic.value.DoubleValue
-24.363

@<SCITEGIC>MOL_PROPERTY
U
SciTegic.value.DoubleValue
28.056

@<SCITEGIC>MOL_PROPERTY
W
SciTegic.value.DoubleValue
-52.418

@<SCITEGIC>MOL_PROPERTY
W(PB)
SciTegic.value.DoubleValue
-54.882

@<SCITEGIC>MOL_PROPERTY
W(SA)
SciTegic.value.DoubleValue
2.464

@<SCITEGIC>MOL_PROPERTY
Valence
SciTegic.value.DoubleValue
6.325

@<SCITEGIC>MOL_PROPERTY
Coulomb
SciTegic.value.DoubleValue
20.690

@<SCITEGIC>MOL_PROPERTY
VdW
SciTegic.value.DoubleValue
1.041

@<SCITEGIC>MOL_PROPERTY
VdW6
SciTegic.value.DoubleValue
-10.427

@<SCITEGIC>MOL_PROPERTY
VdW12
SciTegic.value.DoubleValue
11.468

@<SCITEGIC>MOL_PROPERTY
Bond
SciTegic.value.DoubleValue
0.315

@<SCITEGIC>MOL_PROPERTY
Angle
SciTegic.value.DoubleValue
2.080

@<SCITEGIC>MOL_PROPERTY
Pdih
SciTegic.value.DoubleValue
3.930

@<SCITEGIC>MOL_PROPERTY
Idih
SciTegic.value.DoubleValue
0.000

@<SCITEGIC>MOL_PROPERTY
Tether
SciTegic.value.DoubleValue
0.000

@<TRIPOS>MOLECULE
guest-s15_vm2.mol2 : vm2 ligand conformer 109
          29          28           1
SMALL
USER_CHARGES
 
@<TRIPOS>ATOM
       1    C1      18.754730   19.029329   19.620832 C.3        1 MOL1        -0.2426
       2    H1      17.955518   18.892113   20.359675 H          1 MOL1         0.0959
       3    H2      18.784719   20.089734   19.338575 H          1 MOL1         0.0959
       4    H3      18.481352   18.451855   18.728245 H          1 MOL1         0.0959
       5    C2      20.121685   18.561633   20.169611 C.3        1 MOL1        -0.1410
       6    H4      20.861799   18.603131   19.358277 H          1 MOL1         0.0948
       7    H5      20.056941   17.507395   20.473096 H          1 MOL1         0.0948
       8    C3      20.634524   19.416617   21.353439 C.3        1 MOL1        -0.1435
       9    H6      21.651402   19.086322   21.606648 H          1 MOL1         0.0948
      10    H7      20.719568   20.465803   21.038475 H          1 MOL1         0.0948
      11    C4      19.743554   19.320433   22.614885 C.3        1 MOL1        -0.1435
      12    H8      19.609554   18.265822   22.883236 H          1 MOL1         0.0948
      13    H9      18.744222   19.717717   22.394051 H          1 MOL1         0.0948
      14    C5      20.346752   20.110394   23.802381 C.3        1 MOL1        -0.1435
      15    H10     21.372515   19.774230   24.007813 H          1 MOL1         0.0948
      16    H11     20.428103   21.164850   23.503945 H          1 MOL1         0.0948
      17    C6      19.491495   20.029965   25.094750 C.3        1 MOL1        -0.1500
      18    H12     18.434817   19.868621   24.843381 H          1 MOL1         0.0948
      19    H13     19.534973   21.010979   25.586122 H          1 MOL1         0.0948
      20    C7      19.963637   18.974042   26.123152 C.3        1 MOL1         0.1162
      21    H14     21.002327   19.196292   26.386412 H          1 MOL1         0.0910
      22    C8      19.904888   17.538011   25.575929 C.3        1 MOL1        -0.2491
      23    H15     18.901179   17.293737   25.206492 H          1 MOL1         0.0959
      24    H16     20.621737   17.399454   24.758407 H          1 MOL1         0.0959
      25    H17     20.165398   16.814719   26.358409 H          1 MOL1         0.0959
      26    N1      19.174735   19.075576   27.399021 N.4        1 MOL1        -0.5987
      27    H18     19.238710   20.012052   27.808646 H          1 MOL1         0.3605
      28    H19     19.513273   18.412051   28.101725 H          1 MOL1         0.3605
      29    H20     18.183269   18.875188   27.242320 H          1 MOL1         0.3605
@<TRIPOS>BOND
    1     1     2    1
    2     1     3    1
    3     1     4    1
    4     1     5    1
    5     5     6    1
    6     5     7    1
    7     5     8    1
    8     8     9    1
    9     8    10    1
   10     8    11    1
   11    11    12    1
   12    11    13    1
   13    11    14    1
   14    14    15    1
   15    14    16    1
   16    14    17    1
   17    17    18    1
   18    17    19    1
   19    17    20    1
   20    20    21    1
   21    20    22    1
   22    22    23    1
   23    22    24    1
   24    22    25    1
   25    20    26    1
   26    26    27    1
   27    26    28    1
   28    26    29    1
@<TRIPOS>SUBSTRUCTURE
       1 MOL1            1 RESIDUE      1      MOL     
@<SCITEGIC>MOL_PROPERTY
VM2 Rank
SciTegic.value.IntegerValue
109

@<SCITEGIC>MOL_PROPERTY
Conf_Id
SciTegic.value.IntegerValue
1607

@<SCITEGIC>MOL_PROPERTY
Probability
SciTegic.value.DoubleValue
0.02

@<SCITEGIC>MOL_PROPERTY
Sum Probability
SciTegic.value.DoubleValue
99.49

@<SCITEGIC>MOL_PROPERTY
Delta G
SciTegic.value.DoubleValue
3.871

@<SCITEGIC>MOL_PROPERTY
G
SciTegic.value.DoubleValue
37.573

@<SCITEGIC>MOL_PROPERTY
E
SciTegic.value.DoubleValue
-0.214

@<SCITEGIC>MOL_PROPERTY
-TS
SciTegic.value.DoubleValue
37.787

@<SCITEGIC>MOL_PROPERTY
U+W
SciTegic.value.DoubleValue
-24.358

@<SCITEGIC>MOL_PROPERTY
U
SciTegic.value.DoubleValue
27.696

@<SCITEGIC>MOL_PROPERTY
W
SciTegic.value.DoubleValue
-52.052

@<SCITEGIC>MOL_PROPERTY
W(PB)
SciTegic.value.DoubleValue
-54.526

@<SCITEGIC>MOL_PROPERTY
W(SA)
SciTegic.value.DoubleValue
2.474

@<SCITEGIC>MOL_PROPERTY
Valence
SciTegic.value.DoubleValue
6.761

@<SCITEGIC>MOL_PROPERTY
Coulomb
SciTegic.value.DoubleValue
19.663

@<SCITEGIC>MOL_PROPERTY
VdW
SciTegic.value.DoubleValue
1.272

@<SCITEGIC>MOL_PROPERTY
VdW6
SciTegic.value.DoubleValue
-9.717

@<SCITEGIC>MOL_PROPERTY
VdW12
SciTegic.value.DoubleValue
10.988

@<SCITEGIC>MOL_PROPERTY
Bond
SciTegic.value.DoubleValue
0.286

@<SCITEGIC>MOL_PROPERTY
Angle
SciTegic.value.DoubleValue
1.902

@<SCITEGIC>MOL_PROPERTY
Pdih
SciTegic.value.DoubleValue
4.573

@<SCITEGIC>MOL_PROPERTY
Idih
SciTegic.value.DoubleValue
0.000

@<SCITEGIC>MOL_PROPERTY
Tether
SciTegic.value.DoubleValue
0.000

@<TRIPOS>MOLECULE
guest-s15_vm2.mol2 : vm2 ligand conformer 110
          29          28           1
SMALL
USER_CHARGES
 
@<TRIPOS>ATOM
       1    C1      21.226148   19.404931   20.253958 C.3        1 MOL1        -0.2426
       2    H1      21.271642   18.329001   20.040582 H          1 MOL1         0.0959
       3    H2      20.722490   19.899361   19.413069 H          1 MOL1         0.0959
       4    H3      22.255563   19.783420   20.299538 H          1 MOL1         0.0959
       5    C2      20.486761   19.675686   21.581160 C.3        1 MOL1        -0.1410
       6    H4      20.485768   20.756371   21.780402 H          1 MOL1         0.0948
       7    H5      21.044915   19.205083   22.397928 H          1 MOL1         0.0948
       8    C3      19.030748   19.152570   21.537639 C.3        1 MOL1        -0.1435
       9    H6      18.526604   19.626441   20.683978 H          1 MOL1         0.0948
      10    H7      19.018788   18.073057   21.333977 H          1 MOL1         0.0948
      11    C4      18.209015   19.463897   22.816180 C.3        1 MOL1        -0.1435
      12    H8      17.164183   19.616342   22.511968 H          1 MOL1         0.0948
      13    H9      18.525180   20.420787   23.252149 H          1 MOL1         0.0948
      14    C5      18.212655   18.338990   23.886443 C.3        1 MOL1        -0.1435
      15    H10     17.497678   18.604660   24.676568 H          1 MOL1         0.0948
      16    H11     17.819422   17.417394   23.435724 H          1 MOL1         0.0948
      17    C6      19.587359   18.028591   24.532099 C.3        1 MOL1        -0.1500
      18    H12     20.249454   17.591551   23.774569 H          1 MOL1         0.0948
      19    H13     19.453644   17.249025   25.293760 H          1 MOL1         0.0948
      20    C7      20.270453   19.255090   25.176776 C.3        1 MOL1         0.1162
      21    H14     20.382629   20.028963   24.411904 H          1 MOL1         0.0910
      22    C8      21.669665   18.880863   25.689815 C.3        1 MOL1        -0.2491
      23    H15     22.295298   18.499652   24.873136 H          1 MOL1         0.0959
      24    H16     22.174562   19.757171   26.114706 H          1 MOL1         0.0959
      25    H17     21.614011   18.108162   26.466823 H          1 MOL1         0.0959
      26    N1      19.443196   19.855382   26.279930 N.4        1 MOL1        -0.5987
      27    H18     18.520380   20.138620   25.939296 H          1 MOL1         0.3605
      28    H19     19.893291   20.684558   26.677937 H          1 MOL1         0.3605
      29    H20     19.299231   19.188201   27.042547 H          1 MOL1         0.3605
@<TRIPOS>BOND
    1     1     2    1
    2     1     3    1
    3     1     4    1
    4     1     5    1
    5     5     6    1
    6     5     7    1
    7     5     8    1
    8     8     9    1
    9     8    10    1
   10     8    11    1
   11    11    12    1
   12    11    13    1
   13    11    14    1
   14    14    15    1
   15    14    16    1
   16    14    17    1
   17    17    18    1
   18    17    19    1
   19    17    20    1
   20    20    21    1
   21    20    22    1
   22    22    23    1
   23    22    24    1
   24    22    25    1
   25    20    26    1
   26    26    27    1
   27    26    28    1
   28    26    29    1
@<TRIPOS>SUBSTRUCTURE
       1 MOL1            1 RESIDUE      1      MOL     
@<SCITEGIC>MOL_PROPERTY
VM2 Rank
SciTegic.value.IntegerValue
110

@<SCITEGIC>MOL_PROPERTY
Conf_Id
SciTegic.value.IntegerValue
1686

@<SCITEGIC>MOL_PROPERTY
Probability
SciTegic.value.DoubleValue
0.02

@<SCITEGIC>MOL_PROPERTY
Sum Probability
SciTegic.value.DoubleValue
99.51

@<SCITEGIC>MOL_PROPERTY
Delta G
SciTegic.value.DoubleValue
3.882

@<SCITEGIC>MOL_PROPERTY
G
SciTegic.value.DoubleValue
37.584

@<SCITEGIC>MOL_PROPERTY
E
SciTegic.value.DoubleValue
-0.645

@<SCITEGIC>MOL_PROPERTY
-TS
SciTegic.value.DoubleValue
38.229

@<SCITEGIC>MOL_PROPERTY
U+W
SciTegic.value.DoubleValue
-24.789

@<SCITEGIC>MOL_PROPERTY
U
SciTegic.value.DoubleValue
27.761

@<SCITEGIC>MOL_PROPERTY
W
SciTegic.value.DoubleValue
-52.550

@<SCITEGIC>MOL_PROPERTY
W(PB)
SciTegic.value.DoubleValue
-54.968

@<SCITEGIC>MOL_PROPERTY
W(SA)
SciTegic.value.DoubleValue
2.418

@<SCITEGIC>MOL_PROPERTY
Valence
SciTegic.value.DoubleValue
6.483

@<SCITEGIC>MOL_PROPERTY
Coulomb
SciTegic.value.DoubleValue
20.860

@<SCITEGIC>MOL_PROPERTY
VdW
SciTegic.value.DoubleValue
0.418

@<SCITEGIC>MOL_PROPERTY
VdW6
SciTegic.value.DoubleValue
-11.358

@<SCITEGIC>MOL_PROPERTY
VdW12
SciTegic.value.DoubleValue
11.776

@<SCITEGIC>MOL_PROPERTY
Bond
SciTegic.value.DoubleValue
0.310

@<SCITEGIC>MOL_PROPERTY
Angle
SciTegic.value.DoubleValue
2.146

@<SCITEGIC>MOL_PROPERTY
Pdih
SciTegic.value.DoubleValue
4.026

@<SCITEGIC>MOL_PROPERTY
Idih
SciTegic.value.DoubleValue
0.000

@<SCITEGIC>MOL_PROPERTY
Tether
SciTegic.value.DoubleValue
0.000

@<TRIPOS>MOLECULE
guest-s15_vm2.mol2 : vm2 ligand conformer 111
          29          28           1
SMALL
USER_CHARGES
 
@<TRIPOS>ATOM
       1    C1      18.787145   18.156583   20.104489 C.3        1 MOL1        -0.2426
       2    H1      19.089245   17.360043   20.795618 H          1 MOL1         0.0959
       3    H2      17.778686   18.489668   20.382122 H          1 MOL1         0.0959
       4    H3      18.731023   17.717521   19.099999 H          1 MOL1         0.0959
       5    C2      19.786715   19.335265   20.124002 C.3        1 MOL1        -0.1410
       6    H4      19.511979   20.045186   19.331362 H          1 MOL1         0.0948
       7    H5      20.793124   18.970782   19.875003 H          1 MOL1         0.0948
       8    C3      19.822426   20.089629   21.474980 C.3        1 MOL1        -0.1435
       9    H6      20.466906   20.972628   21.364394 H          1 MOL1         0.0948
      10    H7      18.817889   20.467476   21.710171 H          1 MOL1         0.0948
      11    C4      20.343579   19.227034   22.649155 C.3        1 MOL1        -0.1435
      12    H8      21.327826   18.814284   22.388583 H          1 MOL1         0.0948
      13    H9      19.675283   18.372958   22.802005 H          1 MOL1         0.0948
      14    C5      20.461322   20.050517   23.955132 C.3        1 MOL1        -0.1435
      15    H10     21.165870   20.874315   23.775266 H          1 MOL1         0.0948
      16    H11     19.499806   20.523653   24.192712 H          1 MOL1         0.0948
      17    C6      20.978731   19.222868   25.164790 C.3        1 MOL1        -0.1500
      18    H12     21.619629   19.871250   25.776645 H          1 MOL1         0.0948
      19    H13     21.636160   18.417089   24.812585 H          1 MOL1         0.0948
      20    C7      19.893737   18.630166   26.097987 C.3        1 MOL1         0.1162
      21    H14     20.414901   18.074128   26.883438 H          1 MOL1         0.0910
      22    C8      18.957546   17.645331   25.379309 C.3        1 MOL1        -0.2491
      23    H15     19.532571   16.876862   24.848071 H          1 MOL1         0.0959
      24    H16     18.310292   17.135155   26.103114 H          1 MOL1         0.0959
      25    H17     18.310852   18.159186   24.658183 H          1 MOL1         0.0959
      26    N1      19.104800   19.698606   26.804156 N.4        1 MOL1        -0.5987
      27    H18     19.715157   20.328444   27.332794 H          1 MOL1         0.3605
      28    H19     18.436186   19.293800   27.465749 H          1 MOL1         0.3605
      29    H20     18.574087   20.268660   26.141051 H          1 MOL1         0.3605
@<TRIPOS>BOND
    1     1     2    1
    2     1     3    1
    3     1     4    1
    4     1     5    1
    5     5     6    1
    6     5     7    1
    7     5     8    1
    8     8     9    1
    9     8    10    1
   10     8    11    1
   11    11    12    1
   12    11    13    1
   13    11    14    1
   14    14    15    1
   15    14    16    1
   16    14    17    1
   17    17    18    1
   18    17    19    1
   19    17    20    1
   20    20    21    1
   21    20    22    1
   22    22    23    1
   23    22    24    1
   24    22    25    1
   25    20    26    1
   26    26    27    1
   27    26    28    1
   28    26    29    1
@<TRIPOS>SUBSTRUCTURE
       1 MOL1            1 RESIDUE      1      MOL     
@<SCITEGIC>MOL_PROPERTY
VM2 Rank
SciTegic.value.IntegerValue
111

@<SCITEGIC>MOL_PROPERTY
Conf_Id
SciTegic.value.IntegerValue
668

@<SCITEGIC>MOL_PROPERTY
Probability
SciTegic.value.DoubleValue
0.02

@<SCITEGIC>MOL_PROPERTY
Sum Probability
SciTegic.value.DoubleValue
99.52

@<SCITEGIC>MOL_PROPERTY
Delta G
SciTegic.value.DoubleValue
3.892

@<SCITEGIC>MOL_PROPERTY
G
SciTegic.value.DoubleValue
37.594

@<SCITEGIC>MOL_PROPERTY
E
SciTegic.value.DoubleValue
-0.266

@<SCITEGIC>MOL_PROPERTY
-TS
SciTegic.value.DoubleValue
37.860

@<SCITEGIC>MOL_PROPERTY
U+W
SciTegic.value.DoubleValue
-24.411

@<SCITEGIC>MOL_PROPERTY
U
SciTegic.value.DoubleValue
27.944

@<SCITEGIC>MOL_PROPERTY
W
SciTegic.value.DoubleValue
-52.355

@<SCITEGIC>MOL_PROPERTY
W(PB)
SciTegic.value.DoubleValue
-54.788

@<SCITEGIC>MOL_PROPERTY
W(SA)
SciTegic.value.DoubleValue
2.433

@<SCITEGIC>MOL_PROPERTY
Valence
SciTegic.value.DoubleValue
6.749

@<SCITEGIC>MOL_PROPERTY
Coulomb
SciTegic.value.DoubleValue
19.997

@<SCITEGIC>MOL_PROPERTY
VdW
SciTegic.value.DoubleValue
1.197

@<SCITEGIC>MOL_PROPERTY
VdW6
SciTegic.value.DoubleValue
-10.230

@<SCITEGIC>MOL_PROPERTY
VdW12
SciTegic.value.DoubleValue
11.427

@<SCITEGIC>MOL_PROPERTY
Bond
SciTegic.value.DoubleValue
0.319

@<SCITEGIC>MOL_PROPERTY
Angle
SciTegic.value.DoubleValue
2.019

@<SCITEGIC>MOL_PROPERTY
Pdih
SciTegic.value.DoubleValue
4.411

@<SCITEGIC>MOL_PROPERTY
Idih
SciTegic.value.DoubleValue
0.000

@<SCITEGIC>MOL_PROPERTY
Tether
SciTegic.value.DoubleValue
0.000

@<TRIPOS>MOLECULE
guest-s15_vm2.mol2 : vm2 ligand conformer 112
          29          28           1
SMALL
USER_CHARGES
 
@<TRIPOS>ATOM
       1    C1      20.580569   18.268594   19.801102 C.3        1 MOL1        -0.2426
       2    H1      21.581039   17.821960   19.733404 H          1 MOL1         0.0959
       3    H2      19.843527   17.470478   19.642925 H          1 MOL1         0.0959
       4    H3      20.479767   18.994264   18.983509 H          1 MOL1         0.0959
       5    C2      20.378060   18.945971   21.172940 C.3        1 MOL1        -0.1410
       6    H4      21.144831   19.720377   21.313680 H          1 MOL1         0.0948
       7    H5      20.523861   18.196585   21.962073 H          1 MOL1         0.0948
       8    C3      18.970993   19.573719   21.296569 C.3        1 MOL1        -0.1435
       9    H6      18.796234   20.230566   20.433275 H          1 MOL1         0.0948
      10    H7      18.212183   18.781444   21.235611 H          1 MOL1         0.0948
      11    C4      18.748738   20.400574   22.589415 C.3        1 MOL1        -0.1435
      12    H8      17.735483   20.822916   22.540894 H          1 MOL1         0.0948
      13    H9      19.427854   21.264068   22.606666 H          1 MOL1         0.0948
      14    C5      18.872284   19.589548   23.905666 C.3        1 MOL1        -0.1435
      15    H10     18.123434   19.969900   24.612935 H          1 MOL1         0.0948
      16    H11     18.608196   18.541188   23.716451 H          1 MOL1         0.0948
      17    C6      20.276005   19.703062   24.562795 C.3        1 MOL1        -0.1500
      18    H12     20.479877   20.758685   24.784986 H          1 MOL1         0.0948
      19    H13     21.053573   19.394804   23.855070 H          1 MOL1         0.0948
      20    C7      20.450928   18.889865   25.866872 C.3        1 MOL1         0.1162
      21    H14     21.451295   19.107703   26.253622 H          1 MOL1         0.0910
      22    C8      20.370759   17.373792   25.616400 C.3        1 MOL1        -0.2491
      23    H15     21.071275   17.071020   24.828258 H          1 MOL1         0.0959
      24    H16     20.635090   16.820867   26.526120 H          1 MOL1         0.0959
      25    H17     19.362510   17.063506   25.317996 H          1 MOL1         0.0959
      26    N1      19.487665   19.310875   26.942241 N.4        1 MOL1        -0.5987
      27    H18     19.566750   20.311266   27.146287 H          1 MOL1         0.3605
      28    H19     19.658402   18.805411   27.816291 H          1 MOL1         0.3605
      29    H20     18.519971   19.127830   26.665413 H          1 MOL1         0.3605
@<TRIPOS>BOND
    1     1     2    1
    2     1     3    1
    3     1     4    1
    4     1     5    1
    5     5     6    1
    6     5     7    1
    7     5     8    1
    8     8     9    1
    9     8    10    1
   10     8    11    1
   11    11    12    1
   12    11    13    1
   13    11    14    1
   14    14    15    1
   15    14    16    1
   16    14    17    1
   17    17    18    1
   18    17    19    1
   19    17    20    1
   20    20    21    1
   21    20    22    1
   22    22    23    1
   23    22    24    1
   24    22    25    1
   25    20    26    1
   26    26    27    1
   27    26    28    1
   28    26    29    1
@<TRIPOS>SUBSTRUCTURE
       1 MOL1            1 RESIDUE      1      MOL     
@<SCITEGIC>MOL_PROPERTY
VM2 Rank
SciTegic.value.IntegerValue
112

@<SCITEGIC>MOL_PROPERTY
Conf_Id
SciTegic.value.IntegerValue
1036

@<SCITEGIC>MOL_PROPERTY
Probability
SciTegic.value.DoubleValue
0.01

@<SCITEGIC>MOL_PROPERTY
Sum Probability
SciTegic.value.DoubleValue
99.54

@<SCITEGIC>MOL_PROPERTY
Delta G
SciTegic.value.DoubleValue
3.902

@<SCITEGIC>MOL_PROPERTY
G
SciTegic.value.DoubleValue
37.605

@<SCITEGIC>MOL_PROPERTY
E
SciTegic.value.DoubleValue
-0.305

@<SCITEGIC>MOL_PROPERTY
-TS
SciTegic.value.DoubleValue
37.910

@<SCITEGIC>MOL_PROPERTY
U+W
SciTegic.value.DoubleValue
-24.450

@<SCITEGIC>MOL_PROPERTY
U
SciTegic.value.DoubleValue
27.947

@<SCITEGIC>MOL_PROPERTY
W
SciTegic.value.DoubleValue
-52.397

@<SCITEGIC>MOL_PROPERTY
W(PB)
SciTegic.value.DoubleValue
-54.843

@<SCITEGIC>MOL_PROPERTY
W(SA)
SciTegic.value.DoubleValue
2.447

@<SCITEGIC>MOL_PROPERTY
Valence
SciTegic.value.DoubleValue
6.732

@<SCITEGIC>MOL_PROPERTY
Coulomb
SciTegic.value.DoubleValue
20.067

@<SCITEGIC>MOL_PROPERTY
VdW
SciTegic.value.DoubleValue
1.149

@<SCITEGIC>MOL_PROPERTY
VdW6
SciTegic.value.DoubleValue
-10.427

@<SCITEGIC>MOL_PROPERTY
VdW12
SciTegic.value.DoubleValue
11.576

@<SCITEGIC>MOL_PROPERTY
Bond
SciTegic.value.DoubleValue
0.324

@<SCITEGIC>MOL_PROPERTY
Angle
SciTegic.value.DoubleValue
1.943

@<SCITEGIC>MOL_PROPERTY
Pdih
SciTegic.value.DoubleValue
4.465

@<SCITEGIC>MOL_PROPERTY
Idih
SciTegic.value.DoubleValue
0.000

@<SCITEGIC>MOL_PROPERTY
Tether
SciTegic.value.DoubleValue
0.000

@<TRIPOS>MOLECULE
guest-s15_vm2.mol2 : vm2 ligand conformer 113
          29          28           1
SMALL
USER_CHARGES
 
@<TRIPOS>ATOM
       1    C1      19.298524   18.338514   20.052364 C.3        1 MOL1        -0.2426
       2    H1      19.428811   17.889499   19.059256 H          1 MOL1         0.0959
       3    H2      19.603022   17.589143   20.793413 H          1 MOL1         0.0959
       4    H3      18.230132   18.550884   20.187535 H          1 MOL1         0.0959
       5    C2      20.142335   19.625710   20.177346 C.3        1 MOL1        -0.1410
       6    H4      19.916763   20.279157   19.323043 H          1 MOL1         0.0948
       7    H5      21.208281   19.372005   20.093175 H          1 MOL1         0.0948
       8    C3      19.900192   20.423257   21.484184 C.3        1 MOL1        -0.1435
       9    H6      20.511813   21.334669   21.432796 H          1 MOL1         0.0948
      10    H7      18.858061   20.768373   21.528530 H          1 MOL1         0.0948
      11    C4      20.272534   19.663787   22.784055 C.3        1 MOL1        -0.1435
      12    H8      20.698242   20.387540   23.491604 H          1 MOL1         0.0948
      13    H9      21.068512   18.935025   22.578100 H          1 MOL1         0.0948
      14    C5      19.061261   18.966013   23.454541 C.3        1 MOL1        -0.1435
      15    H10     18.314581   19.718427   23.741021 H          1 MOL1         0.0948
      16    H11     18.559991   18.310576   22.732595 H          1 MOL1         0.0948
      17    C6      19.455758   18.116106   24.689421 C.3        1 MOL1        -0.1500
      18    H12     20.123144   17.307820   24.361976 H          1 MOL1         0.0948
      19    H13     18.557270   17.628134   25.089984 H          1 MOL1         0.0948
      20    C7      20.148382   18.915359   25.815817 C.3        1 MOL1         0.1162
      21    H14     21.049967   19.379471   25.405304 H          1 MOL1         0.0910
      22    C8      20.570315   17.976061   26.956616 C.3        1 MOL1        -0.2491
      23    H15     21.097422   18.531620   27.742040 H          1 MOL1         0.0959
      24    H16     19.699701   17.485860   27.410100 H          1 MOL1         0.0959
      25    H17     21.248344   17.196082   26.588310 H          1 MOL1         0.0959
      26    N1      19.286699   20.031193   26.339656 N.4        1 MOL1        -0.5987
      27    H18     19.769256   20.568289   27.065763 H          1 MOL1         0.3605
      28    H19     18.419798   19.671926   26.748138 H          1 MOL1         0.3605
      29    H20     19.029793   20.683015   25.593312 H          1 MOL1         0.3605
@<TRIPOS>BOND
    1     1     2    1
    2     1     3    1
    3     1     4    1
    4     1     5    1
    5     5     6    1
    6     5     7    1
    7     5     8    1
    8     8     9    1
    9     8    10    1
   10     8    11    1
   11    11    12    1
   12    11    13    1
   13    11    14    1
   14    14    15    1
   15    14    16    1
   16    14    17    1
   17    17    18    1
   18    17    19    1
   19    17    20    1
   20    20    21    1
   21    20    22    1
   22    22    23    1
   23    22    24    1
   24    22    25    1
   25    20    26    1
   26    26    27    1
   27    26    28    1
   28    26    29    1
@<TRIPOS>SUBSTRUCTURE
       1 MOL1            1 RESIDUE      1      MOL     
@<SCITEGIC>MOL_PROPERTY
VM2 Rank
SciTegic.value.IntegerValue
113

@<SCITEGIC>MOL_PROPERTY
Conf_Id
SciTegic.value.IntegerValue
999

@<SCITEGIC>MOL_PROPERTY
Probability
SciTegic.value.DoubleValue
0.01

@<SCITEGIC>MOL_PROPERTY
Sum Probability
SciTegic.value.DoubleValue
99.55

@<SCITEGIC>MOL_PROPERTY
Delta G
SciTegic.value.DoubleValue
3.904

@<SCITEGIC>MOL_PROPERTY
G
SciTegic.value.DoubleValue
37.607

@<SCITEGIC>MOL_PROPERTY
E
SciTegic.value.DoubleValue
-0.356

@<SCITEGIC>MOL_PROPERTY
-TS
SciTegic.value.DoubleValue
37.963

@<SCITEGIC>MOL_PROPERTY
U+W
SciTegic.value.DoubleValue
-24.501

@<SCITEGIC>MOL_PROPERTY
U
SciTegic.value.DoubleValue
27.887

@<SCITEGIC>MOL_PROPERTY
W
SciTegic.value.DoubleValue
-52.388

@<SCITEGIC>MOL_PROPERTY
W(PB)
SciTegic.value.DoubleValue
-54.850

@<SCITEGIC>MOL_PROPERTY
W(SA)
SciTegic.value.DoubleValue
2.462

@<SCITEGIC>MOL_PROPERTY
Valence
SciTegic.value.DoubleValue
6.471

@<SCITEGIC>MOL_PROPERTY
Coulomb
SciTegic.value.DoubleValue
20.362

@<SCITEGIC>MOL_PROPERTY
VdW
SciTegic.value.DoubleValue
1.054

@<SCITEGIC>MOL_PROPERTY
VdW6
SciTegic.value.DoubleValue
-10.398

@<SCITEGIC>MOL_PROPERTY
VdW12
SciTegic.value.DoubleValue
11.452

@<SCITEGIC>MOL_PROPERTY
Bond
SciTegic.value.DoubleValue
0.305

@<SCITEGIC>MOL_PROPERTY
Angle
SciTegic.value.DoubleValue
1.802

@<SCITEGIC>MOL_PROPERTY
Pdih
SciTegic.value.DoubleValue
4.364

@<SCITEGIC>MOL_PROPERTY
Idih
SciTegic.value.DoubleValue
0.000

@<SCITEGIC>MOL_PROPERTY
Tether
SciTegic.value.DoubleValue
0.000

@<TRIPOS>MOLECULE
guest-s15_vm2.mol2 : vm2 ligand conformer 114
          29          28           1
SMALL
USER_CHARGES
 
@<TRIPOS>ATOM
       1    C1      19.014923   20.800575   20.325791 C.3        1 MOL1        -0.2426
       2    H1      19.949107   21.376075   20.291841 H          1 MOL1         0.0959
       3    H2      18.369671   21.160100   19.513794 H          1 MOL1         0.0959
       4    H3      18.507267   21.023028   21.272319 H          1 MOL1         0.0959
       5    C2      19.288298   19.287503   20.168763 C.3        1 MOL1        -0.1410
       6    H4      19.677227   19.101666   19.157838 H          1 MOL1         0.0948
       7    H5      18.343113   18.731538   20.241295 H          1 MOL1         0.0948
       8    C3      20.301930   18.733863   21.199167 C.3        1 MOL1        -0.1435
       9    H6      20.520312   17.687773   20.943666 H          1 MOL1         0.0948
      10    H7      21.251729   19.278907   21.109038 H          1 MOL1         0.0948
      11    C4      19.796395   18.804044   22.660035 C.3        1 MOL1        -0.1435
      12    H8      18.826336   18.293566   22.734875 H          1 MOL1         0.0948
      13    H9      19.642132   19.854157   22.932008 H          1 MOL1         0.0948
      14    C5      20.802371   18.160368   23.643863 C.3        1 MOL1        -0.1435
      15    H10     21.083904   17.168547   23.263871 H          1 MOL1         0.0948
      16    H11     21.727280   18.753425   23.660874 H          1 MOL1         0.0948
      17    C6      20.276010   17.982906   25.092570 C.3        1 MOL1        -0.1500
      18    H12     21.044421   17.429032   25.648342 H          1 MOL1         0.0948
      19    H13     19.384591   17.341810   25.095676 H          1 MOL1         0.0948
      20    C7      19.978821   19.303081   25.842536 C.3        1 MOL1         0.1162
      21    H14     20.753933   20.030396   25.582233 H          1 MOL1         0.0910
      22    C8      20.021806   19.076960   27.362841 C.3        1 MOL1        -0.2491
      23    H15     19.271328   18.340106   27.675686 H          1 MOL1         0.0959
      24    H16     21.008732   18.714438   27.676452 H          1 MOL1         0.0959
      25    H17     19.827241   20.013072   27.900737 H          1 MOL1         0.0959
      26    N1      18.655448   19.906701   25.458433 N.4        1 MOL1        -0.5987
      27    H18     18.599189   20.074129   24.451289 H          1 MOL1         0.3605
      28    H19     18.501970   20.802197   25.931071 H          1 MOL1         0.3605
      29    H20     17.879088   19.289873   25.712273 H          1 MOL1         0.3605
@<TRIPOS>BOND
    1     1     2    1
    2     1     3    1
    3     1     4    1
    4     1     5    1
    5     5     6    1
    6     5     7    1
    7     5     8    1
    8     8     9    1
    9     8    10    1
   10     8    11    1
   11    11    12    1
   12    11    13    1
   13    11    14    1
   14    14    15    1
   15    14    16    1
   16    14    17    1
   17    17    18    1
   18    17    19    1
   19    17    20    1
   20    20    21    1
   21    20    22    1
   22    22    23    1
   23    22    24    1
   24    22    25    1
   25    20    26    1
   26    26    27    1
   27    26    28    1
   28    26    29    1
@<TRIPOS>SUBSTRUCTURE
       1 MOL1            1 RESIDUE      1      MOL     
@<SCITEGIC>MOL_PROPERTY
VM2 Rank
SciTegic.value.IntegerValue
114

@<SCITEGIC>MOL_PROPERTY
Conf_Id
SciTegic.value.IntegerValue
1233

@<SCITEGIC>MOL_PROPERTY
Probability
SciTegic.value.DoubleValue
0.01

@<SCITEGIC>MOL_PROPERTY
Sum Probability
SciTegic.value.DoubleValue
99.57

@<SCITEGIC>MOL_PROPERTY
Delta G
SciTegic.value.DoubleValue
3.942

@<SCITEGIC>MOL_PROPERTY
G
SciTegic.value.DoubleValue
37.644

@<SCITEGIC>MOL_PROPERTY
E
SciTegic.value.DoubleValue
0.130

@<SCITEGIC>MOL_PROPERTY
-TS
SciTegic.value.DoubleValue
37.514

@<SCITEGIC>MOL_PROPERTY
U+W
SciTegic.value.DoubleValue
-24.014

@<SCITEGIC>MOL_PROPERTY
U
SciTegic.value.DoubleValue
27.949

@<SCITEGIC>MOL_PROPERTY
W
SciTegic.value.DoubleValue
-51.963

@<SCITEGIC>MOL_PROPERTY
W(PB)
SciTegic.value.DoubleValue
-54.443

@<SCITEGIC>MOL_PROPERTY
W(SA)
SciTegic.value.DoubleValue
2.480

@<SCITEGIC>MOL_PROPERTY
Valence
SciTegic.value.DoubleValue
5.463

@<SCITEGIC>MOL_PROPERTY
Coulomb
SciTegic.value.DoubleValue
21.337

@<SCITEGIC>MOL_PROPERTY
VdW
SciTegic.value.DoubleValue
1.149

@<SCITEGIC>MOL_PROPERTY
VdW6
SciTegic.value.DoubleValue
-9.730

@<SCITEGIC>MOL_PROPERTY
VdW12
SciTegic.value.DoubleValue
10.879

@<SCITEGIC>MOL_PROPERTY
Bond
SciTegic.value.DoubleValue
0.280

@<SCITEGIC>MOL_PROPERTY
Angle
SciTegic.value.DoubleValue
1.828

@<SCITEGIC>MOL_PROPERTY
Pdih
SciTegic.value.DoubleValue
3.355

@<SCITEGIC>MOL_PROPERTY
Idih
SciTegic.value.DoubleValue
0.000

@<SCITEGIC>MOL_PROPERTY
Tether
SciTegic.value.DoubleValue
0.000

@<TRIPOS>MOLECULE
guest-s15_vm2.mol2 : vm2 ligand conformer 115
          29          28           1
SMALL
USER_CHARGES
 
@<TRIPOS>ATOM
       1    C1      18.542077   18.915623   19.687957 C.3        1 MOL1        -0.2426
       2    H1      18.518172   18.237079   18.825382 H          1 MOL1         0.0959
       3    H2      17.591848   18.808840   20.227294 H          1 MOL1         0.0959
       4    H3      18.605476   19.943226   19.306840 H          1 MOL1         0.0959
       5    C2      19.739965   18.589429   20.604667 C.3        1 MOL1        -0.1410
       6    H4      20.672540   18.670800   20.028866 H          1 MOL1         0.0948
       7    H5      19.666195   17.546514   20.943362 H          1 MOL1         0.0948
       8    C3      19.797395   19.531597   21.827107 C.3        1 MOL1        -0.1435
       9    H6      19.874708   20.572386   21.483716 H          1 MOL1         0.0948
      10    H7      18.855975   19.452800   22.385125 H          1 MOL1         0.0948
      11    C4      20.996767   19.202978   22.748588 C.3        1 MOL1        -0.1435
      12    H8      21.922010   19.276459   22.160504 H          1 MOL1         0.0948
      13    H9      20.942646   18.161267   23.089506 H          1 MOL1         0.0948
      14    C5      21.117913   20.155029   23.964301 C.3        1 MOL1        -0.1435
      15    H10     22.052545   19.928821   24.495989 H          1 MOL1         0.0948
      16    H11     21.226400   21.184726   23.596608 H          1 MOL1         0.0948
      17    C6      19.945255   20.109235   24.980261 C.3        1 MOL1        -0.1500
      18    H12     19.002222   20.404362   24.503138 H          1 MOL1         0.0948
      19    H13     20.143575   20.886086   25.730488 H          1 MOL1         0.0948
      20    C7      19.791015   18.748079   25.702626 C.3        1 MOL1         0.1162
      21    H14     20.744161   18.214730   25.635260 H          1 MOL1         0.0910
      22    C8      18.690812   17.877882   25.067988 C.3        1 MOL1        -0.2491
      23    H15     17.713007   18.372171   25.125407 H          1 MOL1         0.0959
      24    H16     18.900774   17.664423   24.015037 H          1 MOL1         0.0959
      25    H17     18.613868   16.914756   25.587352 H          1 MOL1         0.0959
      26    N1      19.514801   18.926149   27.170506 N.4        1 MOL1        -0.5987
      27    H18     20.257080   19.460763   27.631182 H          1 MOL1         0.3605
      28    H19     19.446817   18.023894   27.650138 H          1 MOL1         0.3605
      29    H20     18.633651   19.422917   27.327580 H          1 MOL1         0.3605
@<TRIPOS>BOND
    1     1     2    1
    2     1     3    1
    3     1     4    1
    4     1     5    1
    5     5     6    1
    6     5     7    1
    7     5     8    1
    8     8     9    1
    9     8    10    1
   10     8    11    1
   11    11    12    1
   12    11    13    1
   13    11    14    1
   14    14    15    1
   15    14    16    1
   16    14    17    1
   17    17    18    1
   18    17    19    1
   19    17    20    1
   20    20    21    1
   21    20    22    1
   22    22    23    1
   23    22    24    1
   24    22    25    1
   25    20    26    1
   26    26    27    1
   27    26    28    1
   28    26    29    1
@<TRIPOS>SUBSTRUCTURE
       1 MOL1            1 RESIDUE      1      MOL     
@<SCITEGIC>MOL_PROPERTY
VM2 Rank
SciTegic.value.IntegerValue
115

@<SCITEGIC>MOL_PROPERTY
Conf_Id
SciTegic.value.IntegerValue
640

@<SCITEGIC>MOL_PROPERTY
Probability
SciTegic.value.DoubleValue
0.01

@<SCITEGIC>MOL_PROPERTY
Sum Probability
SciTegic.value.DoubleValue
99.58

@<SCITEGIC>MOL_PROPERTY
Delta G
SciTegic.value.DoubleValue
3.960

@<SCITEGIC>MOL_PROPERTY
G
SciTegic.value.DoubleValue
37.663

@<SCITEGIC>MOL_PROPERTY
E
SciTegic.value.DoubleValue
-0.355

@<SCITEGIC>MOL_PROPERTY
-TS
SciTegic.value.DoubleValue
38.018

@<SCITEGIC>MOL_PROPERTY
U+W
SciTegic.value.DoubleValue
-24.500

@<SCITEGIC>MOL_PROPERTY
U
SciTegic.value.DoubleValue
27.828

@<SCITEGIC>MOL_PROPERTY
W
SciTegic.value.DoubleValue
-52.328

@<SCITEGIC>MOL_PROPERTY
W(PB)
SciTegic.value.DoubleValue
-54.779

@<SCITEGIC>MOL_PROPERTY
W(SA)
SciTegic.value.DoubleValue
2.451

@<SCITEGIC>MOL_PROPERTY
Valence
SciTegic.value.DoubleValue
6.936

@<SCITEGIC>MOL_PROPERTY
Coulomb
SciTegic.value.DoubleValue
20.037

@<SCITEGIC>MOL_PROPERTY
VdW
SciTegic.value.DoubleValue
0.855

@<SCITEGIC>MOL_PROPERTY
VdW6
SciTegic.value.DoubleValue
-10.295

@<SCITEGIC>MOL_PROPERTY
VdW12
SciTegic.value.DoubleValue
11.149

@<SCITEGIC>MOL_PROPERTY
Bond
SciTegic.value.DoubleValue
0.273

@<SCITEGIC>MOL_PROPERTY
Angle
SciTegic.value.DoubleValue
1.990

@<SCITEGIC>MOL_PROPERTY
Pdih
SciTegic.value.DoubleValue
4.673

@<SCITEGIC>MOL_PROPERTY
Idih
SciTegic.value.DoubleValue
0.000

@<SCITEGIC>MOL_PROPERTY
Tether
SciTegic.value.DoubleValue
0.000

@<TRIPOS>MOLECULE
guest-s15_vm2.mol2 : vm2 ligand conformer 116
          29          28           1
SMALL
USER_CHARGES
 
@<TRIPOS>ATOM
       1    C1      20.740363   18.808554   19.724123 C.3        1 MOL1        -0.2426
       2    H1      19.881292   18.534638   19.097841 H          1 MOL1         0.0959
       3    H2      21.136995   19.765721   19.361175 H          1 MOL1         0.0959
       4    H3      21.517782   18.046655   19.582194 H          1 MOL1         0.0959
       5    C2      20.334909   18.902831   21.210311 C.3        1 MOL1        -0.1410
       6    H4      21.217804   19.153836   21.814504 H          1 MOL1         0.0948
       7    H5      19.981932   17.917551   21.540460 H          1 MOL1         0.0948
       8    C3      19.227684   19.957515   21.433281 C.3        1 MOL1        -0.1435
       9    H6      19.526342   20.894993   20.944133 H          1 MOL1         0.0948
      10    H7      18.307049   19.631619   20.929908 H          1 MOL1         0.0948
      11    C4      18.922195   20.268033   22.921345 C.3        1 MOL1        -0.1435
      12    H8      18.162751   21.061991   22.937036 H          1 MOL1         0.0948
      13    H9      19.807387   20.705241   23.399466 H          1 MOL1         0.0948
      14    C5      18.373498   19.069866   23.744459 C.3        1 MOL1        -0.1435
      15    H10     17.655990   19.452709   24.482261 H          1 MOL1         0.0948
      16    H11     17.785969   18.413525   23.087939 H          1 MOL1         0.0948
      17    C6      19.445460   18.227629   24.490987 C.3        1 MOL1        -0.1500
      18    H12     20.117702   17.753990   23.767803 H          1 MOL1         0.0948
      19    H13     18.941390   17.403717   25.013345 H          1 MOL1         0.0948
      20    C7      20.292327   19.023859   25.509909 C.3        1 MOL1         0.1162
      21    H14     20.814766   19.823684   24.977765 H          1 MOL1         0.0910
      22    C8      21.349103   18.112329   26.153537 C.3        1 MOL1        -0.2491
      23    H15     20.879903   17.291313   26.710047 H          1 MOL1         0.0959
      24    H16     22.005011   17.676494   25.389600 H          1 MOL1         0.0959
      25    H17     21.979687   18.679954   26.848916 H          1 MOL1         0.0959
      26    N1      19.450460   19.685383   26.566047 N.4        1 MOL1        -0.5987
      27    H18     18.770381   20.327258   26.149626 H          1 MOL1         0.3605
      28    H19     20.024728   20.226221   27.218914 H          1 MOL1         0.3605
      29    H20     18.929462   18.995419   27.113708 H          1 MOL1         0.3605
@<TRIPOS>BOND
    1     1     2    1
    2     1     3    1
    3     1     4    1
    4     1     5    1
    5     5     6    1
    6     5     7    1
    7     5     8    1
    8     8     9    1
    9     8    10    1
   10     8    11    1
   11    11    12    1
   12    11    13    1
   13    11    14    1
   14    14    15    1
   15    14    16    1
   16    14    17    1
   17    17    18    1
   18    17    19    1
   19    17    20    1
   20    20    21    1
   21    20    22    1
   22    22    23    1
   23    22    24    1
   24    22    25    1
   25    20    26    1
   26    26    27    1
   27    26    28    1
   28    26    29    1
@<TRIPOS>SUBSTRUCTURE
       1 MOL1            1 RESIDUE      1      MOL     
@<SCITEGIC>MOL_PROPERTY
VM2 Rank
SciTegic.value.IntegerValue
116

@<SCITEGIC>MOL_PROPERTY
Conf_Id
SciTegic.value.IntegerValue
1029

@<SCITEGIC>MOL_PROPERTY
Probability
SciTegic.value.DoubleValue
0.01

@<SCITEGIC>MOL_PROPERTY
Sum Probability
SciTegic.value.DoubleValue
99.59

@<SCITEGIC>MOL_PROPERTY
Delta G
SciTegic.value.DoubleValue
3.971

@<SCITEGIC>MOL_PROPERTY
G
SciTegic.value.DoubleValue
37.673

@<SCITEGIC>MOL_PROPERTY
E
SciTegic.value.DoubleValue
0.008

@<SCITEGIC>MOL_PROPERTY
-TS
SciTegic.value.DoubleValue
37.665

@<SCITEGIC>MOL_PROPERTY
U+W
SciTegic.value.DoubleValue
-24.136

@<SCITEGIC>MOL_PROPERTY
U
SciTegic.value.DoubleValue
28.212

@<SCITEGIC>MOL_PROPERTY
W
SciTegic.value.DoubleValue
-52.348

@<SCITEGIC>MOL_PROPERTY
W(PB)
SciTegic.value.DoubleValue
-54.785

@<SCITEGIC>MOL_PROPERTY
W(SA)
SciTegic.value.DoubleValue
2.437

@<SCITEGIC>MOL_PROPERTY
Valence
SciTegic.value.DoubleValue
6.653

@<SCITEGIC>MOL_PROPERTY
Coulomb
SciTegic.value.DoubleValue
20.543

@<SCITEGIC>MOL_PROPERTY
VdW
SciTegic.value.DoubleValue
1.015

@<SCITEGIC>MOL_PROPERTY
VdW6
SciTegic.value.DoubleValue
-10.508

@<SCITEGIC>MOL_PROPERTY
VdW12
SciTegic.value.DoubleValue
11.524

@<SCITEGIC>MOL_PROPERTY
Bond
SciTegic.value.DoubleValue
0.340

@<SCITEGIC>MOL_PROPERTY
Angle
SciTegic.value.DoubleValue
2.187

@<SCITEGIC>MOL_PROPERTY
Pdih
SciTegic.value.DoubleValue
4.126

@<SCITEGIC>MOL_PROPERTY
Idih
SciTegic.value.DoubleValue
0.000

@<SCITEGIC>MOL_PROPERTY
Tether
SciTegic.value.DoubleValue
0.000

@<TRIPOS>MOLECULE
guest-s15_vm2.mol2 : vm2 ligand conformer 117
          29          28           1
SMALL
USER_CHARGES
 
@<TRIPOS>ATOM
       1    C1      20.098064   19.737329   19.051259 C.3        1 MOL1        -0.2426
       2    H1      20.359830   18.788247   18.565515 H          1 MOL1         0.0959
       3    H2      19.414449   20.279329   18.384972 H          1 MOL1         0.0959
       4    H3      21.014081   20.333936   19.152344 H          1 MOL1         0.0959
       5    C2      19.440358   19.494522   20.426196 C.3        1 MOL1        -0.1410
       6    H4      18.512675   18.921335   20.290083 H          1 MOL1         0.0948
       7    H5      19.156783   20.462182   20.860930 H          1 MOL1         0.0948
       8    C3      20.387728   18.735295   21.384813 C.3        1 MOL1        -0.1435
       9    H6      20.722379   17.809544   20.896658 H          1 MOL1         0.0948
      10    H7      21.291780   19.333853   21.562604 H          1 MOL1         0.0948
      11    C4      19.735313   18.366938   22.739810 C.3        1 MOL1        -0.1435
      12    H8      20.435154   17.732554   23.296871 H          1 MOL1         0.0948
      13    H9      18.844784   17.748913   22.560342 H          1 MOL1         0.0948
      14    C5      19.345021   19.601355   23.593057 C.3        1 MOL1        -0.1435
      15    H10     20.188111   20.302409   23.663766 H          1 MOL1         0.0948
      16    H11     18.541465   20.142830   23.076687 H          1 MOL1         0.0948
      17    C6      18.840784   19.230363   25.012925 C.3        1 MOL1        -0.1500
      18    H12     18.405463   18.222210   25.011676 H          1 MOL1         0.0948
      19    H13     18.016720   19.911144   25.264351 H          1 MOL1         0.0948
      20    C7      19.903381   19.353506   26.131507 C.3        1 MOL1         0.1162
      21    H14     20.280296   20.380886   26.130481 H          1 MOL1         0.0910
      22    C8      21.097015   18.405048   25.929068 C.3        1 MOL1        -0.2491
      23    H15     20.766059   17.362939   25.839493 H          1 MOL1         0.0959
      24    H16     21.662267   18.670609   25.028168 H          1 MOL1         0.0959
      25    H17     21.790920   18.470358   26.776130 H          1 MOL1         0.0959
      26    N1      19.288336   19.131644   27.485365 N.4        1 MOL1        -0.5987
      27    H18     19.975840   19.258391   28.233655 H          1 MOL1         0.3605
      28    H19     18.911644   18.184029   27.573957 H          1 MOL1         0.3605
      29    H20     18.520785   19.786025   27.662895 H          1 MOL1         0.3605
@<TRIPOS>BOND
    1     1     2    1
    2     1     3    1
    3     1     4    1
    4     1     5    1
    5     5     6    1
    6     5     7    1
    7     5     8    1
    8     8     9    1
    9     8    10    1
   10     8    11    1
   11    11    12    1
   12    11    13    1
   13    11    14    1
   14    14    15    1
   15    14    16    1
   16    14    17    1
   17    17    18    1
   18    17    19    1
   19    17    20    1
   20    20    21    1
   21    20    22    1
   22    22    23    1
   23    22    24    1
   24    22    25    1
   25    20    26    1
   26    26    27    1
   27    26    28    1
   28    26    29    1
@<TRIPOS>SUBSTRUCTURE
       1 MOL1            1 RESIDUE      1      MOL     
@<SCITEGIC>MOL_PROPERTY
VM2 Rank
SciTegic.value.IntegerValue
117

@<SCITEGIC>MOL_PROPERTY
Conf_Id
SciTegic.value.IntegerValue
309

@<SCITEGIC>MOL_PROPERTY
Probability
SciTegic.value.DoubleValue
0.01

@<SCITEGIC>MOL_PROPERTY
Sum Probability
SciTegic.value.DoubleValue
99.61

@<SCITEGIC>MOL_PROPERTY
Delta G
SciTegic.value.DoubleValue
3.972

@<SCITEGIC>MOL_PROPERTY
G
SciTegic.value.DoubleValue
37.674

@<SCITEGIC>MOL_PROPERTY
E
SciTegic.value.DoubleValue
-0.136

@<SCITEGIC>MOL_PROPERTY
-TS
SciTegic.value.DoubleValue
37.810

@<SCITEGIC>MOL_PROPERTY
U+W
SciTegic.value.DoubleValue
-24.281

@<SCITEGIC>MOL_PROPERTY
U
SciTegic.value.DoubleValue
27.820

@<SCITEGIC>MOL_PROPERTY
W
SciTegic.value.DoubleValue
-52.101

@<SCITEGIC>MOL_PROPERTY
W(PB)
SciTegic.value.DoubleValue
-54.585

@<SCITEGIC>MOL_PROPERTY
W(SA)
SciTegic.value.DoubleValue
2.485

@<SCITEGIC>MOL_PROPERTY
Valence
SciTegic.value.DoubleValue
6.838

@<SCITEGIC>MOL_PROPERTY
Coulomb
SciTegic.value.DoubleValue
19.703

@<SCITEGIC>MOL_PROPERTY
VdW
SciTegic.value.DoubleValue
1.279

@<SCITEGIC>MOL_PROPERTY
VdW6
SciTegic.value.DoubleValue
-9.734

@<SCITEGIC>MOL_PROPERTY
VdW12
SciTegic.value.DoubleValue
11.013

@<SCITEGIC>MOL_PROPERTY
Bond
SciTegic.value.DoubleValue
0.292

@<SCITEGIC>MOL_PROPERTY
Angle
SciTegic.value.DoubleValue
1.870

@<SCITEGIC>MOL_PROPERTY
Pdih
SciTegic.value.DoubleValue
4.677

@<SCITEGIC>MOL_PROPERTY
Idih
SciTegic.value.DoubleValue
0.000

@<SCITEGIC>MOL_PROPERTY
Tether
SciTegic.value.DoubleValue
0.000

@<TRIPOS>MOLECULE
guest-s15_vm2.mol2 : vm2 ligand conformer 118
          29          28           1
SMALL
USER_CHARGES
 
@<TRIPOS>ATOM
       1    C1      19.237615   20.622996   19.908539 C.3        1 MOL1        -0.2426
       2    H1      20.219130   21.067620   19.698340 H          1 MOL1         0.0959
       3    H2      18.949748   20.006521   19.046963 H          1 MOL1         0.0959
       4    H3      18.509362   21.439645   19.996546 H          1 MOL1         0.0959
       5    C2      19.274971   19.784472   21.203660 C.3        1 MOL1        -0.1410
       6    H4      18.274438   19.375553   21.401591 H          1 MOL1         0.0948
       7    H5      19.529088   20.443250   22.044550 H          1 MOL1         0.0948
       8    C3      20.301476   18.632809   21.107567 C.3        1 MOL1        -0.1435
       9    H6      20.099524   18.050489   20.197951 H          1 MOL1         0.0948
      10    H7      21.309444   19.052207   20.983737 H          1 MOL1         0.0948
      11    C4      20.292841   17.663196   22.317615 C.3        1 MOL1        -0.1435
      12    H8      21.022702   16.868713   22.108920 H          1 MOL1         0.0948
      13    H9      19.319695   17.158346   22.391023 H          1 MOL1         0.0948
      14    C5      20.664794   18.317387   23.673783 C.3        1 MOL1        -0.1435
      15    H10     21.261854   17.595373   24.246330 H          1 MOL1         0.0948
      16    H11     21.314761   19.187371   23.506638 H          1 MOL1         0.0948
      17    C6      19.427915   18.719824   24.519145 C.3        1 MOL1        -0.1500
      18    H12     18.871490   17.817552   24.805677 H          1 MOL1         0.0948
      19    H13     18.743994   19.316486   23.905437 H          1 MOL1         0.0948
      20    C7      19.779933   19.534085   25.784971 C.3        1 MOL1         0.1162
      21    H14     20.362764   20.408357   25.479072 H          1 MOL1         0.0910
      22    C8      20.615994   18.718121   26.787154 C.3        1 MOL1        -0.2491
      23    H15     20.098687   17.794872   27.076488 H          1 MOL1         0.0959
      24    H16     21.591567   18.448693   26.366194 H          1 MOL1         0.0959
      25    H17     20.805668   19.301092   27.696832 H          1 MOL1         0.0959
      26    N1      18.540460   20.063110   26.451565 N.4        1 MOL1        -0.5987
      27    H18     17.989814   20.647324   25.815745 H          1 MOL1         0.3605
      28    H19     18.771077   20.635917   27.268539 H          1 MOL1         0.3605
      29    H20     17.935356   19.302659   26.773042 H          1 MOL1         0.3605
@<TRIPOS>BOND
    1     1     2    1
    2     1     3    1
    3     1     4    1
    4     1     5    1
    5     5     6    1
    6     5     7    1
    7     5     8    1
    8     8     9    1
    9     8    10    1
   10     8    11    1
   11    11    12    1
   12    11    13    1
   13    11    14    1
   14    14    15    1
   15    14    16    1
   16    14    17    1
   17    17    18    1
   18    17    19    1
   19    17    20    1
   20    20    21    1
   21    20    22    1
   22    22    23    1
   23    22    24    1
   24    22    25    1
   25    20    26    1
   26    26    27    1
   27    26    28    1
   28    26    29    1
@<TRIPOS>SUBSTRUCTURE
       1 MOL1            1 RESIDUE      1      MOL     
@<SCITEGIC>MOL_PROPERTY
VM2 Rank
SciTegic.value.IntegerValue
118

@<SCITEGIC>MOL_PROPERTY
Conf_Id
SciTegic.value.IntegerValue
277

@<SCITEGIC>MOL_PROPERTY
Probability
SciTegic.value.DoubleValue
0.01

@<SCITEGIC>MOL_PROPERTY
Sum Probability
SciTegic.value.DoubleValue
99.62

@<SCITEGIC>MOL_PROPERTY
Delta G
SciTegic.value.DoubleValue
3.982

@<SCITEGIC>MOL_PROPERTY
G
SciTegic.value.DoubleValue
37.684

@<SCITEGIC>MOL_PROPERTY
E
SciTegic.value.DoubleValue
-0.144

@<SCITEGIC>MOL_PROPERTY
-TS
SciTegic.value.DoubleValue
37.828

@<SCITEGIC>MOL_PROPERTY
U+W
SciTegic.value.DoubleValue
-24.289

@<SCITEGIC>MOL_PROPERTY
U
SciTegic.value.DoubleValue
28.312

@<SCITEGIC>MOL_PROPERTY
W
SciTegic.value.DoubleValue
-52.601

@<SCITEGIC>MOL_PROPERTY
W(PB)
SciTegic.value.DoubleValue
-55.091

@<SCITEGIC>MOL_PROPERTY
W(SA)
SciTegic.value.DoubleValue
2.490

@<SCITEGIC>MOL_PROPERTY
Valence
SciTegic.value.DoubleValue
6.782

@<SCITEGIC>MOL_PROPERTY
Coulomb
SciTegic.value.DoubleValue
20.298

@<SCITEGIC>MOL_PROPERTY
VdW
SciTegic.value.DoubleValue
1.231

@<SCITEGIC>MOL_PROPERTY
VdW6
SciTegic.value.DoubleValue
-9.819

@<SCITEGIC>MOL_PROPERTY
VdW12
SciTegic.value.DoubleValue
11.050

@<SCITEGIC>MOL_PROPERTY
Bond
SciTegic.value.DoubleValue
0.292

@<SCITEGIC>MOL_PROPERTY
Angle
SciTegic.value.DoubleValue
1.855

@<SCITEGIC>MOL_PROPERTY
Pdih
SciTegic.value.DoubleValue
4.635

@<SCITEGIC>MOL_PROPERTY
Idih
SciTegic.value.DoubleValue
0.000

@<SCITEGIC>MOL_PROPERTY
Tether
SciTegic.value.DoubleValue
0.000

@<TRIPOS>MOLECULE
guest-s15_vm2.mol2 : vm2 ligand conformer 119
          29          28           1
SMALL
USER_CHARGES
 
@<TRIPOS>ATOM
       1    C1      20.296649   18.336096   19.907831 C.3        1 MOL1        -0.2426
       2    H1      20.077955   18.994216   19.056930 H          1 MOL1         0.0959
       3    H2      21.294488   18.587256   20.287007 H          1 MOL1         0.0959
       4    H3      20.336662   17.305593   19.531833 H          1 MOL1         0.0959
       5    C2      19.215731   18.468986   21.005060 C.3        1 MOL1        -0.1410
       6    H4      19.457910   17.800804   21.839859 H          1 MOL1         0.0948
       7    H5      18.260489   18.110648   20.596750 H          1 MOL1         0.0948
       8    C3      19.022513   19.925722   21.500511 C.3        1 MOL1        -0.1435
       9    H6      18.855130   20.565363   20.622974 H          1 MOL1         0.0948
      10    H7      18.099232   19.993075   22.092058 H          1 MOL1         0.0948
      11    C4      20.206433   20.506184   22.321491 C.3        1 MOL1        -0.1435
      12    H8      20.279163   21.579522   22.098170 H          1 MOL1         0.0948
      13    H9      21.160397   20.074626   21.994444 H          1 MOL1         0.0948
      14    C5      20.061542   20.361392   23.858293 C.3        1 MOL1        -0.1435
      15    H10     20.908294   20.876267   24.333161 H          1 MOL1         0.0948
      16    H11     19.156678   20.891317   24.184557 H          1 MOL1         0.0948
      17    C6      20.022023   18.895818   24.356710 C.3        1 MOL1        -0.1500
      18    H12     20.856510   18.343028   23.905159 H          1 MOL1         0.0948
      19    H13     19.096407   18.412219   24.020471 H          1 MOL1         0.0948
      20    C7      20.122444   18.782812   25.892948 C.3        1 MOL1         0.1162
      21    H14     21.040475   19.284256   26.214499 H          1 MOL1         0.0910
      22    C8      20.204394   17.307539   26.316031 C.3        1 MOL1        -0.2491
      23    H15     20.313529   17.221180   27.404160 H          1 MOL1         0.0959
      24    H16     19.302445   16.758290   26.018129 H          1 MOL1         0.0959
      25    H17     21.070859   16.817380   25.854793 H          1 MOL1         0.0959
      26    N1      18.984271   19.471452   26.595126 N.4        1 MOL1        -0.5987
      27    H18     18.943422   20.465245   26.353343 H          1 MOL1         0.3605
      28    H19     19.078589   19.406944   27.612755 H          1 MOL1         0.3605
      29    H20     18.083986   19.054978   26.343223 H          1 MOL1         0.3605
@<TRIPOS>BOND
    1     1     2    1
    2     1     3    1
    3     1     4    1
    4     1     5    1
    5     5     6    1
    6     5     7    1
    7     5     8    1
    8     8     9    1
    9     8    10    1
   10     8    11    1
   11    11    12    1
   12    11    13    1
   13    11    14    1
   14    14    15    1
   15    14    16    1
   16    14    17    1
   17    17    18    1
   18    17    19    1
   19    17    20    1
   20    20    21    1
   21    20    22    1
   22    22    23    1
   23    22    24    1
   24    22    25    1
   25    20    26    1
   26    26    27    1
   27    26    28    1
   28    26    29    1
@<TRIPOS>SUBSTRUCTURE
       1 MOL1            1 RESIDUE      1      MOL     
@<SCITEGIC>MOL_PROPERTY
VM2 Rank
SciTegic.value.IntegerValue
119

@<SCITEGIC>MOL_PROPERTY
Conf_Id
SciTegic.value.IntegerValue
1309

@<SCITEGIC>MOL_PROPERTY
Probability
SciTegic.value.DoubleValue
0.01

@<SCITEGIC>MOL_PROPERTY
Sum Probability
SciTegic.value.DoubleValue
99.63

@<SCITEGIC>MOL_PROPERTY
Delta G
SciTegic.value.DoubleValue
4.032

@<SCITEGIC>MOL_PROPERTY
G
SciTegic.value.DoubleValue
37.735

@<SCITEGIC>MOL_PROPERTY
E
SciTegic.value.DoubleValue
-0.060

@<SCITEGIC>MOL_PROPERTY
-TS
SciTegic.value.DoubleValue
37.794

@<SCITEGIC>MOL_PROPERTY
U+W
SciTegic.value.DoubleValue
-24.204

@<SCITEGIC>MOL_PROPERTY
U
SciTegic.value.DoubleValue
28.202

@<SCITEGIC>MOL_PROPERTY
W
SciTegic.value.DoubleValue
-52.406

@<SCITEGIC>MOL_PROPERTY
W(PB)
SciTegic.value.DoubleValue
-54.880

@<SCITEGIC>MOL_PROPERTY
W(SA)
SciTegic.value.DoubleValue
2.474

@<SCITEGIC>MOL_PROPERTY
Valence
SciTegic.value.DoubleValue
6.863

@<SCITEGIC>MOL_PROPERTY
Coulomb
SciTegic.value.DoubleValue
20.157

@<SCITEGIC>MOL_PROPERTY
VdW
SciTegic.value.DoubleValue
1.181

@<SCITEGIC>MOL_PROPERTY
VdW6
SciTegic.value.DoubleValue
-10.208

@<SCITEGIC>MOL_PROPERTY
VdW12
SciTegic.value.DoubleValue
11.389

@<SCITEGIC>MOL_PROPERTY
Bond
SciTegic.value.DoubleValue
0.322

@<SCITEGIC>MOL_PROPERTY
Angle
SciTegic.value.DoubleValue
1.965

@<SCITEGIC>MOL_PROPERTY
Pdih
SciTegic.value.DoubleValue
4.576

@<SCITEGIC>MOL_PROPERTY
Idih
SciTegic.value.DoubleValue
0.000

@<SCITEGIC>MOL_PROPERTY
Tether
SciTegic.value.DoubleValue
0.000

@<TRIPOS>MOLECULE
guest-s15_vm2.mol2 : vm2 ligand conformer 120
          29          28           1
SMALL
USER_CHARGES
 
@<TRIPOS>ATOM
       1    C1      18.608796   20.357436   20.885142 C.3        1 MOL1        -0.2426
       2    H1      19.095667   20.914350   21.695093 H          1 MOL1         0.0959
       3    H2      18.218735   21.093445   20.170303 H          1 MOL1         0.0959
       4    H3      17.754701   19.807504   21.300961 H          1 MOL1         0.0959
       5    C2      19.600818   19.401590   20.187468 C.3        1 MOL1        -0.1410
       6    H4      20.473844   19.972228   19.841226 H          1 MOL1         0.0948
       7    H5      19.123798   18.997367   19.283718 H          1 MOL1         0.0948
       8    C3      20.071467   18.215132   21.066956 C.3        1 MOL1        -0.1435
       9    H6      19.215940   17.578673   21.331600 H          1 MOL1         0.0948
      10    H7      20.727829   17.586575   20.449338 H          1 MOL1         0.0948
      11    C4      20.854441   18.623483   22.341976 C.3        1 MOL1        -0.1435
      12    H8      21.377556   19.574741   22.173009 H          1 MOL1         0.0948
      13    H9      21.637429   17.874305   22.523727 H          1 MOL1         0.0948
      14    C5      19.967253   18.710446   23.607893 C.3        1 MOL1        -0.1435
      15    H10     19.149406   19.420685   23.445361 H          1 MOL1         0.0948
      16    H11     19.503681   17.730861   23.783103 H          1 MOL1         0.0948
      17    C6      20.790560   19.134344   24.851912 C.3        1 MOL1        -0.1500
      18    H12     21.293080   20.087964   24.643329 H          1 MOL1         0.0948
      19    H13     21.590936   18.402568   25.024064 H          1 MOL1         0.0948
      20    C7      19.970500   19.289614   26.154437 C.3        1 MOL1         0.1162
      21    H14     20.662676   19.614676   26.937373 H          1 MOL1         0.0910
      22    C8      19.347102   17.958224   26.608343 C.3        1 MOL1        -0.2491
      23    H15     18.567845   17.618111   25.916024 H          1 MOL1         0.0959
      24    H16     20.111095   17.174073   26.679033 H          1 MOL1         0.0959
      25    H17     18.889900   18.067264   27.599439 H          1 MOL1         0.0959
      26    N1      18.925062   20.365731   26.049873 N.4        1 MOL1        -0.5987
      27    H18     18.222726   20.133263   25.343374 H          1 MOL1         0.3605
      28    H19     19.338242   21.266295   25.791083 H          1 MOL1         0.3605
      29    H20     18.434772   20.498018   26.939154 H          1 MOL1         0.3605
@<TRIPOS>BOND
    1     1     2    1
    2     1     3    1
    3     1     4    1
    4     1     5    1
    5     5     6    1
    6     5     7    1
    7     5     8    1
    8     8     9    1
    9     8    10    1
   10     8    11    1
   11    11    12    1
   12    11    13    1
   13    11    14    1
   14    14    15    1
   15    14    16    1
   16    14    17    1
   17    17    18    1
   18    17    19    1
   19    17    20    1
   20    20    21    1
   21    20    22    1
   22    22    23    1
   23    22    24    1
   24    22    25    1
   25    20    26    1
   26    26    27    1
   27    26    28    1
   28    26    29    1
@<TRIPOS>SUBSTRUCTURE
       1 MOL1            1 RESIDUE      1      MOL     
@<SCITEGIC>MOL_PROPERTY
VM2 Rank
SciTegic.value.IntegerValue
120

@<SCITEGIC>MOL_PROPERTY
Conf_Id
SciTegic.value.IntegerValue
1277

@<SCITEGIC>MOL_PROPERTY
Probability
SciTegic.value.DoubleValue
0.01

@<SCITEGIC>MOL_PROPERTY
Sum Probability
SciTegic.value.DoubleValue
99.64

@<SCITEGIC>MOL_PROPERTY
Delta G
SciTegic.value.DoubleValue
4.037

@<SCITEGIC>MOL_PROPERTY
G
SciTegic.value.DoubleValue
37.739

@<SCITEGIC>MOL_PROPERTY
E
SciTegic.value.DoubleValue
-0.155

@<SCITEGIC>MOL_PROPERTY
-TS
SciTegic.value.DoubleValue
37.894

@<SCITEGIC>MOL_PROPERTY
U+W
SciTegic.value.DoubleValue
-24.300

@<SCITEGIC>MOL_PROPERTY
U
SciTegic.value.DoubleValue
28.236

@<SCITEGIC>MOL_PROPERTY
W
SciTegic.value.DoubleValue
-52.536

@<SCITEGIC>MOL_PROPERTY
W(PB)
SciTegic.value.DoubleValue
-54.984

@<SCITEGIC>MOL_PROPERTY
W(SA)
SciTegic.value.DoubleValue
2.448

@<SCITEGIC>MOL_PROPERTY
Valence
SciTegic.value.DoubleValue
6.639

@<SCITEGIC>MOL_PROPERTY
Coulomb
SciTegic.value.DoubleValue
20.375

@<SCITEGIC>MOL_PROPERTY
VdW
SciTegic.value.DoubleValue
1.222

@<SCITEGIC>MOL_PROPERTY
VdW6
SciTegic.value.DoubleValue
-10.233

@<SCITEGIC>MOL_PROPERTY
VdW12
SciTegic.value.DoubleValue
11.455

@<SCITEGIC>MOL_PROPERTY
Bond
SciTegic.value.DoubleValue
0.310

@<SCITEGIC>MOL_PROPERTY
Angle
SciTegic.value.DoubleValue
1.952

@<SCITEGIC>MOL_PROPERTY
Pdih
SciTegic.value.DoubleValue
4.377

@<SCITEGIC>MOL_PROPERTY
Idih
SciTegic.value.DoubleValue
0.000

@<SCITEGIC>MOL_PROPERTY
Tether
SciTegic.value.DoubleValue
0.000

@<TRIPOS>MOLECULE
guest-s15_vm2.mol2 : vm2 ligand conformer 121
          29          28           1
SMALL
USER_CHARGES
 
@<TRIPOS>ATOM
       1    C1      20.313872   17.843542   20.675627 C.3        1 MOL1        -0.2426
       2    H1      21.230679   17.261024   20.517770 H          1 MOL1         0.0959
       3    H2      19.760887   17.375694   21.498819 H          1 MOL1         0.0959
       4    H3      19.704133   17.762052   19.766510 H          1 MOL1         0.0959
       5    C2      20.655893   19.319924   20.980415 C.3        1 MOL1        -0.1410
       6    H4      21.266500   19.713651   20.155956 H          1 MOL1         0.0948
       7    H5      21.287092   19.389103   21.875410 H          1 MOL1         0.0948
       8    C3      19.404829   20.218619   21.135530 C.3        1 MOL1        -0.1435
       9    H6      19.731166   21.261691   21.247676 H          1 MOL1         0.0948
      10    H7      18.832989   20.186212   20.197941 H          1 MOL1         0.0948
      11    C4      18.451294   19.863202   22.308209 C.3        1 MOL1        -0.1435
      12    H8      18.046612   18.849644   22.188159 H          1 MOL1         0.0948
      13    H9      17.582599   20.531677   22.231810 H          1 MOL1         0.0948
      14    C5      19.064037   20.043345   23.722095 C.3        1 MOL1        -0.1435
      15    H10     19.836523   20.824398   23.700822 H          1 MOL1         0.0948
      16    H11     18.273457   20.414985   24.387334 H          1 MOL1         0.0948
      17    C6      19.639120   18.734012   24.321615 C.3        1 MOL1        -0.1500
      18    H12     20.385479   18.311958   23.640573 H          1 MOL1         0.0948
      19    H13     18.840353   17.985522   24.407820 H          1 MOL1         0.0948
      20    C7      20.301021   18.944846   25.700481 C.3        1 MOL1         0.1162
      21    H14     21.071947   19.714573   25.596434 H          1 MOL1         0.0910
      22    C8      20.975681   17.647221   26.173176 C.3        1 MOL1        -0.2491
      23    H15     21.478811   17.799596   27.136004 H          1 MOL1         0.0959
      24    H16     20.242475   16.839976   26.294434 H          1 MOL1         0.0959
      25    H17     21.732558   17.315765   25.451327 H          1 MOL1         0.0959
      26    N1      19.330253   19.441290   26.736853 N.4        1 MOL1        -0.5987
      27    H18     19.791032   19.593418   27.638599 H          1 MOL1         0.3605
      28    H19     18.571998   18.770912   26.888947 H          1 MOL1         0.3605
      29    H20     18.905743   20.329328   26.456072 H          1 MOL1         0.3605
@<TRIPOS>BOND
    1     1     2    1
    2     1     3    1
    3     1     4    1
    4     1     5    1
    5     5     6    1
    6     5     7    1
    7     5     8    1
    8     8     9    1
    9     8    10    1
   10     8    11    1
   11    11    12    1
   12    11    13    1
   13    11    14    1
   14    14    15    1
   15    14    16    1
   16    14    17    1
   17    17    18    1
   18    17    19    1
   19    17    20    1
   20    20    21    1
   21    20    22    1
   22    22    23    1
   23    22    24    1
   24    22    25    1
   25    20    26    1
   26    26    27    1
   27    26    28    1
   28    26    29    1
@<TRIPOS>SUBSTRUCTURE
       1 MOL1            1 RESIDUE      1      MOL     
@<SCITEGIC>MOL_PROPERTY
VM2 Rank
SciTegic.value.IntegerValue
121

@<SCITEGIC>MOL_PROPERTY
Conf_Id
SciTegic.value.IntegerValue
627

@<SCITEGIC>MOL_PROPERTY
Probability
SciTegic.value.DoubleValue
0.01

@<SCITEGIC>MOL_PROPERTY
Sum Probability
SciTegic.value.DoubleValue
99.66

@<SCITEGIC>MOL_PROPERTY
Delta G
SciTegic.value.DoubleValue
4.048

@<SCITEGIC>MOL_PROPERTY
G
SciTegic.value.DoubleValue
37.750

@<SCITEGIC>MOL_PROPERTY
E
SciTegic.value.DoubleValue
-0.464

@<SCITEGIC>MOL_PROPERTY
-TS
SciTegic.value.DoubleValue
38.214

@<SCITEGIC>MOL_PROPERTY
U+W
SciTegic.value.DoubleValue
-24.609

@<SCITEGIC>MOL_PROPERTY
U
SciTegic.value.DoubleValue
27.913

@<SCITEGIC>MOL_PROPERTY
W
SciTegic.value.DoubleValue
-52.522

@<SCITEGIC>MOL_PROPERTY
W(PB)
SciTegic.value.DoubleValue
-54.944

@<SCITEGIC>MOL_PROPERTY
W(SA)
SciTegic.value.DoubleValue
2.423

@<SCITEGIC>MOL_PROPERTY
Valence
SciTegic.value.DoubleValue
6.822

@<SCITEGIC>MOL_PROPERTY
Coulomb
SciTegic.value.DoubleValue
20.150

@<SCITEGIC>MOL_PROPERTY
VdW
SciTegic.value.DoubleValue
0.941

@<SCITEGIC>MOL_PROPERTY
VdW6
SciTegic.value.DoubleValue
-10.666

@<SCITEGIC>MOL_PROPERTY
VdW12
SciTegic.value.DoubleValue
11.607

@<SCITEGIC>MOL_PROPERTY
Bond
SciTegic.value.DoubleValue
0.323

@<SCITEGIC>MOL_PROPERTY
Angle
SciTegic.value.DoubleValue
2.171

@<SCITEGIC>MOL_PROPERTY
Pdih
SciTegic.value.DoubleValue
4.328

@<SCITEGIC>MOL_PROPERTY
Idih
SciTegic.value.DoubleValue
0.000

@<SCITEGIC>MOL_PROPERTY
Tether
SciTegic.value.DoubleValue
0.000

@<TRIPOS>MOLECULE
guest-s15_vm2.mol2 : vm2 ligand conformer 122
          29          28           1
SMALL
USER_CHARGES
 
@<TRIPOS>ATOM
       1    C1      20.183295   20.555106   19.854301 C.3        1 MOL1        -0.2426
       2    H1      19.713106   21.425249   20.330725 H          1 MOL1         0.0959
       3    H2      21.156280   20.872777   19.457555 H          1 MOL1         0.0959
       4    H3      19.556919   20.249536   19.006061 H          1 MOL1         0.0959
       5    C2      20.356629   19.398485   20.861147 C.3        1 MOL1        -0.1410
       6    H4      21.021108   19.723227   21.670837 H          1 MOL1         0.0948
       7    H5      20.859901   18.557873   20.363336 H          1 MOL1         0.0948
       8    C3      18.995378   18.925341   21.425611 C.3        1 MOL1        -0.1435
       9    H6      18.448278   19.769739   21.866859 H          1 MOL1         0.0948
      10    H7      18.381476   18.573642   20.584878 H          1 MOL1         0.0948
      11    C4      19.122300   17.773561   22.456583 C.3        1 MOL1        -0.1435
      12    H8      20.024228   17.179093   22.255825 H          1 MOL1         0.0948
      13    H9      18.277442   17.087002   22.307331 H          1 MOL1         0.0948
      14    C5      19.100039   18.224100   23.940110 C.3        1 MOL1        -0.1435
      15    H10     18.143284   18.721253   24.148042 H          1 MOL1         0.0948
      16    H11     19.119469   17.321014   24.563211 H          1 MOL1         0.0948
      17    C6      20.274462   19.157818   24.337306 C.3        1 MOL1        -0.1500
      18    H12     20.196244   20.095550   23.773955 H          1 MOL1         0.0948
      19    H13     21.225243   18.696353   24.039836 H          1 MOL1         0.0948
      20    C7      20.342424   19.515988   25.840815 C.3        1 MOL1         0.1162
      21    H14     21.160681   20.231801   25.966615 H          1 MOL1         0.0910
      22    C8      20.661295   18.291546   26.716573 C.3        1 MOL1        -0.2491
      23    H15     19.835964   17.570070   26.724515 H          1 MOL1         0.0959
      24    H16     21.562829   17.779515   26.357948 H          1 MOL1         0.0959
      25    H17     20.844844   18.599971   27.753095 H          1 MOL1         0.0959
      26    N1      19.100178   20.214054   26.321555 N.4        1 MOL1        -0.5987
      27    H18     18.281429   19.605020   26.248354 H          1 MOL1         0.3605
      28    H19     18.907846   21.057663   25.773904 H          1 MOL1         0.3605
      29    H20     19.185992   20.497704   27.301760 H          1 MOL1         0.3605
@<TRIPOS>BOND
    1     1     2    1
    2     1     3    1
    3     1     4    1
    4     1     5    1
    5     5     6    1
    6     5     7    1
    7     5     8    1
    8     8     9    1
    9     8    10    1
   10     8    11    1
   11    11    12    1
   12    11    13    1
   13    11    14    1
   14    14    15    1
   15    14    16    1
   16    14    17    1
   17    17    18    1
   18    17    19    1
   19    17    20    1
   20    20    21    1
   21    20    22    1
   22    22    23    1
   23    22    24    1
   24    22    25    1
   25    20    26    1
   26    26    27    1
   27    26    28    1
   28    26    29    1
@<TRIPOS>SUBSTRUCTURE
       1 MOL1            1 RESIDUE      1      MOL     
@<SCITEGIC>MOL_PROPERTY
VM2 Rank
SciTegic.value.IntegerValue
122

@<SCITEGIC>MOL_PROPERTY
Conf_Id
SciTegic.value.IntegerValue
1278

@<SCITEGIC>MOL_PROPERTY
Probability
SciTegic.value.DoubleValue
0.01

@<SCITEGIC>MOL_PROPERTY
Sum Probability
SciTegic.value.DoubleValue
99.67

@<SCITEGIC>MOL_PROPERTY
Delta G
SciTegic.value.DoubleValue
4.054

@<SCITEGIC>MOL_PROPERTY
G
SciTegic.value.DoubleValue
37.756

@<SCITEGIC>MOL_PROPERTY
E
SciTegic.value.DoubleValue
-0.142

@<SCITEGIC>MOL_PROPERTY
-TS
SciTegic.value.DoubleValue
37.898

@<SCITEGIC>MOL_PROPERTY
U+W
SciTegic.value.DoubleValue
-24.287

@<SCITEGIC>MOL_PROPERTY
U
SciTegic.value.DoubleValue
28.217

@<SCITEGIC>MOL_PROPERTY
W
SciTegic.value.DoubleValue
-52.504

@<SCITEGIC>MOL_PROPERTY
W(PB)
SciTegic.value.DoubleValue
-54.950

@<SCITEGIC>MOL_PROPERTY
W(SA)
SciTegic.value.DoubleValue
2.446

@<SCITEGIC>MOL_PROPERTY
Valence
SciTegic.value.DoubleValue
6.821

@<SCITEGIC>MOL_PROPERTY
Coulomb
SciTegic.value.DoubleValue
20.147

@<SCITEGIC>MOL_PROPERTY
VdW
SciTegic.value.DoubleValue
1.249

@<SCITEGIC>MOL_PROPERTY
VdW6
SciTegic.value.DoubleValue
-10.236

@<SCITEGIC>MOL_PROPERTY
VdW12
SciTegic.value.DoubleValue
11.486

@<SCITEGIC>MOL_PROPERTY
Bond
SciTegic.value.DoubleValue
0.316

@<SCITEGIC>MOL_PROPERTY
Angle
SciTegic.value.DoubleValue
1.990

@<SCITEGIC>MOL_PROPERTY
Pdih
SciTegic.value.DoubleValue
4.514

@<SCITEGIC>MOL_PROPERTY
Idih
SciTegic.value.DoubleValue
0.000

@<SCITEGIC>MOL_PROPERTY
Tether
SciTegic.value.DoubleValue
0.000

@<TRIPOS>MOLECULE
guest-s15_vm2.mol2 : vm2 ligand conformer 123
          29          28           1
SMALL
USER_CHARGES
 
@<TRIPOS>ATOM
       1    C1      18.754202   19.482538   19.353756 C.3        1 MOL1        -0.2426
       2    H1      17.815788   19.864362   19.776625 H          1 MOL1         0.0959
       3    H2      19.342601   20.338618   18.998567 H          1 MOL1         0.0959
       4    H3      18.503850   18.861453   18.483921 H          1 MOL1         0.0959
       5    C2      19.541278   18.664222   20.399116 C.3        1 MOL1        -0.1410
       6    H4      20.456210   18.267333   19.937325 H          1 MOL1         0.0948
       7    H5      18.941419   17.797557   20.710477 H          1 MOL1         0.0948
       8    C3      19.907177   19.515835   21.634849 C.3        1 MOL1        -0.1435
       9    H6      20.506345   20.380291   21.317245 H          1 MOL1         0.0948
      10    H7      18.987158   19.915153   22.080216 H          1 MOL1         0.0948
      11    C4      20.698200   18.695611   22.682768 C.3        1 MOL1        -0.1435
      12    H8      21.595871   18.283921   22.201160 H          1 MOL1         0.0948
      13    H9      20.100604   17.833515   23.002731 H          1 MOL1         0.0948
      14    C5      21.143634   19.534868   23.908821 C.3        1 MOL1        -0.1435
      15    H10     21.911694   18.985679   24.470789 H          1 MOL1         0.0948
      16    H11     21.643525   20.442136   23.542294 H          1 MOL1         0.0948
      17    C6      19.995377   19.946996   24.871373 C.3        1 MOL1        -0.1500
      18    H12     19.042409   20.026183   24.335065 H          1 MOL1         0.0948
      19    H13     20.215264   20.958322   25.238031 H          1 MOL1         0.0948
      20    C7      19.827647   19.030882   26.107231 C.3        1 MOL1         0.1162
      21    H14     20.780032   19.007239   26.645720 H          1 MOL1         0.0910
      22    C8      19.452322   17.587581   25.731520 C.3        1 MOL1        -0.2491
      23    H15     18.550832   17.560875   25.106813 H          1 MOL1         0.0959
      24    H16     20.268425   17.098146   25.187726 H          1 MOL1         0.0959
      25    H17     19.261239   16.990446   26.631632 H          1 MOL1         0.0959
      26    N1      18.816163   19.597467   27.064567 N.4        1 MOL1        -0.5987
      27    H18     19.070442   20.542511   27.366389 H          1 MOL1         0.3605
      28    H19     18.734498   19.020539   27.906679 H          1 MOL1         0.3605
      29    H20     17.886832   19.649710   26.638781 H          1 MOL1         0.3605
@<TRIPOS>BOND
    1     1     2    1
    2     1     3    1
    3     1     4    1
    4     1     5    1
    5     5     6    1
    6     5     7    1
    7     5     8    1
    8     8     9    1
    9     8    10    1
   10     8    11    1
   11    11    12    1
   12    11    13    1
   13    11    14    1
   14    14    15    1
   15    14    16    1
   16    14    17    1
   17    17    18    1
   18    17    19    1
   19    17    20    1
   20    20    21    1
   21    20    22    1
   22    22    23    1
   23    22    24    1
   24    22    25    1
   25    20    26    1
   26    26    27    1
   27    26    28    1
   28    26    29    1
@<TRIPOS>SUBSTRUCTURE
       1 MOL1            1 RESIDUE      1      MOL     
@<SCITEGIC>MOL_PROPERTY
VM2 Rank
SciTegic.value.IntegerValue
123

@<SCITEGIC>MOL_PROPERTY
Conf_Id
SciTegic.value.IntegerValue
966

@<SCITEGIC>MOL_PROPERTY
Probability
SciTegic.value.DoubleValue
0.01

@<SCITEGIC>MOL_PROPERTY
Sum Probability
SciTegic.value.DoubleValue
99.68

@<SCITEGIC>MOL_PROPERTY
Delta G
SciTegic.value.DoubleValue
4.075

@<SCITEGIC>MOL_PROPERTY
G
SciTegic.value.DoubleValue
37.777

@<SCITEGIC>MOL_PROPERTY
E
SciTegic.value.DoubleValue
0.042

@<SCITEGIC>MOL_PROPERTY
-TS
SciTegic.value.DoubleValue
37.735

@<SCITEGIC>MOL_PROPERTY
U+W
SciTegic.value.DoubleValue
-24.103

@<SCITEGIC>MOL_PROPERTY
U
SciTegic.value.DoubleValue
28.131

@<SCITEGIC>MOL_PROPERTY
W
SciTegic.value.DoubleValue
-52.234

@<SCITEGIC>MOL_PROPERTY
W(PB)
SciTegic.value.DoubleValue
-54.734

@<SCITEGIC>MOL_PROPERTY
W(SA)
SciTegic.value.DoubleValue
2.500

@<SCITEGIC>MOL_PROPERTY
Valence
SciTegic.value.DoubleValue
6.994

@<SCITEGIC>MOL_PROPERTY
Coulomb
SciTegic.value.DoubleValue
19.895

@<SCITEGIC>MOL_PROPERTY
VdW
SciTegic.value.DoubleValue
1.243

@<SCITEGIC>MOL_PROPERTY
VdW6
SciTegic.value.DoubleValue
-9.657

@<SCITEGIC>MOL_PROPERTY
VdW12
SciTegic.value.DoubleValue
10.900

@<SCITEGIC>MOL_PROPERTY
Bond
SciTegic.value.DoubleValue
0.303

@<SCITEGIC>MOL_PROPERTY
Angle
SciTegic.value.DoubleValue
1.907

@<SCITEGIC>MOL_PROPERTY
Pdih
SciTegic.value.DoubleValue
4.784

@<SCITEGIC>MOL_PROPERTY
Idih
SciTegic.value.DoubleValue
0.000

@<SCITEGIC>MOL_PROPERTY
Tether
SciTegic.value.DoubleValue
0.000

@<TRIPOS>MOLECULE
guest-s15_vm2.mol2 : vm2 ligand conformer 124
          29          28           1
SMALL
USER_CHARGES
 
@<TRIPOS>ATOM
       1    C1      20.981067   19.898507   20.356513 C.3        1 MOL1        -0.2426
       2    H1      21.575445   20.487674   21.066867 H          1 MOL1         0.0959
       3    H2      21.316007   18.855241   20.409763 H          1 MOL1         0.0959
       4    H3      21.204382   20.265515   19.346394 H          1 MOL1         0.0959
       5    C2      19.470288   20.025746   20.656248 C.3        1 MOL1        -0.1410
       6    H4      18.899438   19.406565   19.950225 H          1 MOL1         0.0948
       7    H5      19.159716   21.064224   20.474909 H          1 MOL1         0.0948
       8    C3      19.099833   19.642808   22.109118 C.3        1 MOL1        -0.1435
       9    H6      19.659119   20.287684   22.795460 H          1 MOL1         0.0948
      10    H7      18.036285   19.869397   22.264993 H          1 MOL1         0.0948
      11    C4      19.350950   18.146335   22.428848 C.3        1 MOL1        -0.1435
      12    H8      20.419097   17.905994   22.348031 H          1 MOL1         0.0948
      13    H9      18.845810   17.546477   21.659229 H          1 MOL1         0.0948
      14    C5      18.818280   17.695608   23.814391 C.3        1 MOL1        -0.1435
      15    H10     17.870905   18.200454   24.045158 H          1 MOL1         0.0948
      16    H11     18.567272   16.628118   23.744512 H          1 MOL1         0.0948
      17    C6      19.827320   17.852060   24.984265 C.3        1 MOL1        -0.1500
      18    H12     20.727003   17.266080   24.753927 H          1 MOL1         0.0948
      19    H13     19.393207   17.397694   25.884832 H          1 MOL1         0.0948
      20    C7      20.243738   19.302576   25.307843 C.3        1 MOL1         0.1162
      21    H14     20.711953   19.733130   24.418970 H          1 MOL1         0.0910
      22    C8      21.278969   19.320885   26.443481 C.3        1 MOL1        -0.2491
      23    H15     20.862418   18.901771   27.368007 H          1 MOL1         0.0959
      24    H16     22.165687   18.734713   26.171666 H          1 MOL1         0.0959
      25    H17     21.608815   20.346238   26.651402 H          1 MOL1         0.0959
      26    N1      19.065554   20.171475   25.653293 N.4        1 MOL1        -0.5987
      27    H18     18.382262   20.187315   24.891441 H          1 MOL1         0.3605
      28    H19     19.352156   21.137713   25.834673 H          1 MOL1         0.3605
      29    H20     18.586369   19.830955   26.491177 H          1 MOL1         0.3605
@<TRIPOS>BOND
    1     1     2    1
    2     1     3    1
    3     1     4    1
    4     1     5    1
    5     5     6    1
    6     5     7    1
    7     5     8    1
    8     8     9    1
    9     8    10    1
   10     8    11    1
   11    11    12    1
   12    11    13    1
   13    11    14    1
   14    14    15    1
   15    14    16    1
   16    14    17    1
   17    17    18    1
   18    17    19    1
   19    17    20    1
   20    20    21    1
   21    20    22    1
   22    22    23    1
   23    22    24    1
   24    22    25    1
   25    20    26    1
   26    26    27    1
   27    26    28    1
   28    26    29    1
@<TRIPOS>SUBSTRUCTURE
       1 MOL1            1 RESIDUE      1      MOL     
@<SCITEGIC>MOL_PROPERTY
VM2 Rank
SciTegic.value.IntegerValue
124

@<SCITEGIC>MOL_PROPERTY
Conf_Id
SciTegic.value.IntegerValue
215

@<SCITEGIC>MOL_PROPERTY
Probability
SciTegic.value.DoubleValue
0.01

@<SCITEGIC>MOL_PROPERTY
Sum Probability
SciTegic.value.DoubleValue
99.69

@<SCITEGIC>MOL_PROPERTY
Delta G
SciTegic.value.DoubleValue
4.077

@<SCITEGIC>MOL_PROPERTY
G
SciTegic.value.DoubleValue
37.779

@<SCITEGIC>MOL_PROPERTY
E
SciTegic.value.DoubleValue
-0.160

@<SCITEGIC>MOL_PROPERTY
-TS
SciTegic.value.DoubleValue
37.939

@<SCITEGIC>MOL_PROPERTY
U+W
SciTegic.value.DoubleValue
-24.304

@<SCITEGIC>MOL_PROPERTY
U
SciTegic.value.DoubleValue
28.166

@<SCITEGIC>MOL_PROPERTY
W
SciTegic.value.DoubleValue
-52.470

@<SCITEGIC>MOL_PROPERTY
W(PB)
SciTegic.value.DoubleValue
-54.893

@<SCITEGIC>MOL_PROPERTY
W(SA)
SciTegic.value.DoubleValue
2.423

@<SCITEGIC>MOL_PROPERTY
Valence
SciTegic.value.DoubleValue
6.294

@<SCITEGIC>MOL_PROPERTY
Coulomb
SciTegic.value.DoubleValue
21.099

@<SCITEGIC>MOL_PROPERTY
VdW
SciTegic.value.DoubleValue
0.773

@<SCITEGIC>MOL_PROPERTY
VdW6
SciTegic.value.DoubleValue
-10.791

@<SCITEGIC>MOL_PROPERTY
VdW12
SciTegic.value.DoubleValue
11.563

@<SCITEGIC>MOL_PROPERTY
Bond
SciTegic.value.DoubleValue
0.315

@<SCITEGIC>MOL_PROPERTY
Angle
SciTegic.value.DoubleValue
2.119

@<SCITEGIC>MOL_PROPERTY
Pdih
SciTegic.value.DoubleValue
3.860

@<SCITEGIC>MOL_PROPERTY
Idih
SciTegic.value.DoubleValue
0.000

@<SCITEGIC>MOL_PROPERTY
Tether
SciTegic.value.DoubleValue
0.000

@<TRIPOS>MOLECULE
guest-s15_vm2.mol2 : vm2 ligand conformer 125
          29          28           1
SMALL
USER_CHARGES
 
@<TRIPOS>ATOM
       1    C1      18.430091   19.550680   20.249909 C.3        1 MOL1        -0.2426
       2    H1      18.592623   18.831619   19.436538 H          1 MOL1         0.0959
       3    H2      17.920072   19.026970   21.065650 H          1 MOL1         0.0959
       4    H3      17.749465   20.326784   19.876681 H          1 MOL1         0.0959
       5    C2      19.767674   20.178783   20.705839 C.3        1 MOL1        -0.1410
       6    H4      19.588326   20.945627   21.472052 H          1 MOL1         0.0948
       7    H5      20.202754   20.707248   19.846012 H          1 MOL1         0.0948
       8    C3      20.796499   19.136871   21.215604 C.3        1 MOL1        -0.1435
       9    H6      20.649213   18.175209   20.705073 H          1 MOL1         0.0948
      10    H7      21.799491   19.476435   20.922215 H          1 MOL1         0.0948
      11    C4      20.806641   18.930043   22.752000 C.3        1 MOL1        -0.1435
      12    H8      21.053614   19.882537   23.239492 H          1 MOL1         0.0948
      13    H9      21.623408   18.238030   22.999512 H          1 MOL1         0.0948
      14    C5      19.482850   18.370282   23.327186 C.3        1 MOL1        -0.1435
      15    H10     18.682897   19.112358   23.214810 H          1 MOL1         0.0948
      16    H11     19.177618   17.492411   22.741367 H          1 MOL1         0.0948
      17    C6      19.596118   17.954686   24.816172 C.3        1 MOL1        -0.1500
      18    H12     20.323235   17.136020   24.900048 H          1 MOL1         0.0948
      19    H13     18.633212   17.544300   25.148185 H          1 MOL1         0.0948
      20    C7      20.017726   19.101350   25.762083 C.3        1 MOL1         0.1162
      21    H14     20.984429   19.487640   25.425713 H          1 MOL1         0.0910
      22    C8      20.183999   18.577387   27.197173 C.3        1 MOL1        -0.2491
      23    H15     19.238188   18.181036   27.587375 H          1 MOL1         0.0959
      24    H16     20.931986   17.775619   27.234870 H          1 MOL1         0.0959
      25    H17     20.520899   19.378639   27.866406 H          1 MOL1         0.0959
      26    N1      19.054401   20.255917   25.728036 N.4        1 MOL1        -0.5987
      27    H18     18.963506   20.635054   24.781557 H          1 MOL1         0.3605
      28    H19     19.362082   21.018665   26.338106 H          1 MOL1         0.3605
      29    H20     18.121499   19.971556   26.038429 H          1 MOL1         0.3605
@<TRIPOS>BOND
    1     1     2    1
    2     1     3    1
    3     1     4    1
    4     1     5    1
    5     5     6    1
    6     5     7    1
    7     5     8    1
    8     8     9    1
    9     8    10    1
   10     8    11    1
   11    11    12    1
   12    11    13    1
   13    11    14    1
   14    14    15    1
   15    14    16    1
   16    14    17    1
   17    17    18    1
   18    17    19    1
   19    17    20    1
   20    20    21    1
   21    20    22    1
   22    22    23    1
   23    22    24    1
   24    22    25    1
   25    20    26    1
   26    26    27    1
   27    26    28    1
   28    26    29    1
@<TRIPOS>SUBSTRUCTURE
       1 MOL1            1 RESIDUE      1      MOL     
@<SCITEGIC>MOL_PROPERTY
VM2 Rank
SciTegic.value.IntegerValue
125

@<SCITEGIC>MOL_PROPERTY
Conf_Id
SciTegic.value.IntegerValue
1632

@<SCITEGIC>MOL_PROPERTY
Probability
SciTegic.value.DoubleValue
0.01

@<SCITEGIC>MOL_PROPERTY
Sum Probability
SciTegic.value.DoubleValue
99.70

@<SCITEGIC>MOL_PROPERTY
Delta G
SciTegic.value.DoubleValue
4.095

@<SCITEGIC>MOL_PROPERTY
G
SciTegic.value.DoubleValue
37.797

@<SCITEGIC>MOL_PROPERTY
E
SciTegic.value.DoubleValue
-0.122

@<SCITEGIC>MOL_PROPERTY
-TS
SciTegic.value.DoubleValue
37.920

@<SCITEGIC>MOL_PROPERTY
U+W
SciTegic.value.DoubleValue
-24.267

@<SCITEGIC>MOL_PROPERTY
U
SciTegic.value.DoubleValue
28.134

@<SCITEGIC>MOL_PROPERTY
W
SciTegic.value.DoubleValue
-52.401

@<SCITEGIC>MOL_PROPERTY
W(PB)
SciTegic.value.DoubleValue
-54.854

@<SCITEGIC>MOL_PROPERTY
W(SA)
SciTegic.value.DoubleValue
2.454

@<SCITEGIC>MOL_PROPERTY
Valence
SciTegic.value.DoubleValue
6.427

@<SCITEGIC>MOL_PROPERTY
Coulomb
SciTegic.value.DoubleValue
20.721

@<SCITEGIC>MOL_PROPERTY
VdW
SciTegic.value.DoubleValue
0.986

@<SCITEGIC>MOL_PROPERTY
VdW6
SciTegic.value.DoubleValue
-10.460

@<SCITEGIC>MOL_PROPERTY
VdW12
SciTegic.value.DoubleValue
11.446

@<SCITEGIC>MOL_PROPERTY
Bond
SciTegic.value.DoubleValue
0.299

@<SCITEGIC>MOL_PROPERTY
Angle
SciTegic.value.DoubleValue
1.839

@<SCITEGIC>MOL_PROPERTY
Pdih
SciTegic.value.DoubleValue
4.289

@<SCITEGIC>MOL_PROPERTY
Idih
SciTegic.value.DoubleValue
0.000

@<SCITEGIC>MOL_PROPERTY
Tether
SciTegic.value.DoubleValue
0.000

@<TRIPOS>MOLECULE
guest-s15_vm2.mol2 : vm2 ligand conformer 126
          29          28           1
SMALL
USER_CHARGES
 
@<TRIPOS>ATOM
       1    C1      20.267823   20.762416   20.647596 C.3        1 MOL1        -0.2426
       2    H1      20.563527   20.967135   21.684048 H          1 MOL1         0.0959
       3    H2      21.071406   21.129765   19.996333 H          1 MOL1         0.0959
       4    H3      19.363307   21.343481   20.425897 H          1 MOL1         0.0959
       5    C2      20.029510   19.253430   20.414170 C.3        1 MOL1        -0.1410
       6    H4      20.939556   18.691804   20.664437 H          1 MOL1         0.0948
       7    H5      19.856976   19.084479   19.342115 H          1 MOL1         0.0948
       8    C3      18.819487   18.691032   21.202860 C.3        1 MOL1        -0.1435
       9    H6      17.904958   19.191332   20.855780 H          1 MOL1         0.0948
      10    H7      18.695039   17.629067   20.950067 H          1 MOL1         0.0948
      11    C4      18.912989   18.835255   22.743532 C.3        1 MOL1        -0.1435
      12    H8      18.001525   18.410307   23.185999 H          1 MOL1         0.0948
      13    H9      18.921254   19.900439   23.000965 H          1 MOL1         0.0948
      14    C5      20.151751   18.128823   23.348633 C.3        1 MOL1        -0.1435
      15    H10     20.231685   17.124312   22.910715 H          1 MOL1         0.0948
      16    H11     21.065076   18.663994   23.055895 H          1 MOL1         0.0948
      17    C6      20.124737   17.976752   24.892255 C.3        1 MOL1        -0.1500
      18    H12     20.983475   17.350576   25.168931 H          1 MOL1         0.0948
      19    H13     19.233273   17.416161   25.203095 H          1 MOL1         0.0948
      20    C7      20.213539   19.307298   25.676555 C.3        1 MOL1         0.1162
      21    H14     20.937008   19.956640   25.174084 H          1 MOL1         0.0910
      22    C8      20.710111   19.051475   27.109100 C.3        1 MOL1        -0.2491
      23    H15     20.025003   18.390015   27.654197 H          1 MOL1         0.0959
      24    H16     21.702825   18.584315   27.101288 H          1 MOL1         0.0959
      25    H17     20.792177   19.993051   27.666043 H          1 MOL1         0.0959
      26    N1      18.906052   20.049518   25.719299 N.4        1 MOL1        -0.5987
      27    H18     18.556878   20.245308   24.778509 H          1 MOL1         0.3605
      28    H19     19.000362   20.944801   26.207479 H          1 MOL1         0.3605
      29    H20     18.188199   19.508262   26.208450 H          1 MOL1         0.3605
@<TRIPOS>BOND
    1     1     2    1
    2     1     3    1
    3     1     4    1
    4     1     5    1
    5     5     6    1
    6     5     7    1
    7     5     8    1
    8     8     9    1
    9     8    10    1
   10     8    11    1
   11    11    12    1
   12    11    13    1
   13    11    14    1
   14    14    15    1
   15    14    16    1
   16    14    17    1
   17    17    18    1
   18    17    19    1
   19    17    20    1
   20    20    21    1
   21    20    22    1
   22    22    23    1
   23    22    24    1
   24    22    25    1
   25    20    26    1
   26    26    27    1
   27    26    28    1
   28    26    29    1
@<TRIPOS>SUBSTRUCTURE
       1 MOL1            1 RESIDUE      1      MOL     
@<SCITEGIC>MOL_PROPERTY
VM2 Rank
SciTegic.value.IntegerValue
126

@<SCITEGIC>MOL_PROPERTY
Conf_Id
SciTegic.value.IntegerValue
1187

@<SCITEGIC>MOL_PROPERTY
Probability
SciTegic.value.DoubleValue
0.01

@<SCITEGIC>MOL_PROPERTY
Sum Probability
SciTegic.value.DoubleValue
99.71

@<SCITEGIC>MOL_PROPERTY
Delta G
SciTegic.value.DoubleValue
4.110

@<SCITEGIC>MOL_PROPERTY
G
SciTegic.value.DoubleValue
37.812

@<SCITEGIC>MOL_PROPERTY
E
SciTegic.value.DoubleValue
0.008

@<SCITEGIC>MOL_PROPERTY
-TS
SciTegic.value.DoubleValue
37.804

@<SCITEGIC>MOL_PROPERTY
U+W
SciTegic.value.DoubleValue
-24.137

@<SCITEGIC>MOL_PROPERTY
U
SciTegic.value.DoubleValue
28.192

@<SCITEGIC>MOL_PROPERTY
W
SciTegic.value.DoubleValue
-52.329

@<SCITEGIC>MOL_PROPERTY
W(PB)
SciTegic.value.DoubleValue
-54.785

@<SCITEGIC>MOL_PROPERTY
W(SA)
SciTegic.value.DoubleValue
2.456

@<SCITEGIC>MOL_PROPERTY
Valence
SciTegic.value.DoubleValue
5.839

@<SCITEGIC>MOL_PROPERTY
Coulomb
SciTegic.value.DoubleValue
21.295

@<SCITEGIC>MOL_PROPERTY
VdW
SciTegic.value.DoubleValue
1.058

@<SCITEGIC>MOL_PROPERTY
VdW6
SciTegic.value.DoubleValue
-10.711

@<SCITEGIC>MOL_PROPERTY
VdW12
SciTegic.value.DoubleValue
11.769

@<SCITEGIC>MOL_PROPERTY
Bond
SciTegic.value.DoubleValue
0.323

@<SCITEGIC>MOL_PROPERTY
Angle
SciTegic.value.DoubleValue
2.126

@<SCITEGIC>MOL_PROPERTY
Pdih
SciTegic.value.DoubleValue
3.390

@<SCITEGIC>MOL_PROPERTY
Idih
SciTegic.value.DoubleValue
0.000

@<SCITEGIC>MOL_PROPERTY
Tether
SciTegic.value.DoubleValue
0.000

@<TRIPOS>MOLECULE
guest-s15_vm2.mol2 : vm2 ligand conformer 127
          29          28           1
SMALL
USER_CHARGES
 
@<TRIPOS>ATOM
       1    C1      21.227221   20.041162   21.235370 C.3        1 MOL1        -0.2426
       2    H1      21.060653   20.367831   22.267074 H          1 MOL1         0.0959
       3    H2      21.994566   19.256353   21.246007 H          1 MOL1         0.0959
       4    H3      21.634463   20.896861   20.681500 H          1 MOL1         0.0959
       5    C2      19.927857   19.536095   20.566093 C.3        1 MOL1        -0.1410
       6    H4      20.159440   19.303915   19.517137 H          1 MOL1         0.0948
       7    H5      19.176722   20.337635   20.538641 H          1 MOL1         0.0948
       8    C3      19.335411   18.264836   21.228013 C.3        1 MOL1        -0.1435
       9    H6      18.864319   17.665064   20.437038 H          1 MOL1         0.0948
      10    H7      20.136927   17.631010   21.629087 H          1 MOL1         0.0948
      11    C4      18.248802   18.531538   22.304990 C.3        1 MOL1        -0.1435
      12    H8      17.833943   17.567217   22.629204 H          1 MOL1         0.0948
      13    H9      17.414052   19.070349   21.835947 H          1 MOL1         0.0948
      14    C5      18.703578   19.320781   23.557727 C.3        1 MOL1        -0.1435
      15    H10     19.040988   20.322948   23.265117 H          1 MOL1         0.0948
      16    H11     17.822792   19.476254   24.194396 H          1 MOL1         0.0948
      17    C6      19.804718   18.598478   24.376078 C.3        1 MOL1        -0.1500
      18    H12     20.675394   18.415008   23.735194 H          1 MOL1         0.0948
      19    H13     19.441072   17.613619   24.697675 H          1 MOL1         0.0948
      20    C7      20.267386   19.409153   25.605775 C.3        1 MOL1         0.1162
      21    H14     20.590925   20.396882   25.263237 H          1 MOL1         0.0910
      22    C8      21.461899   18.718284   26.282589 C.3        1 MOL1        -0.2491
      23    H15     21.189115   17.719465   26.645756 H          1 MOL1         0.0959
      24    H16     22.298610   18.610135   25.581160 H          1 MOL1         0.0959
      25    H17     21.818206   19.307194   27.136768 H          1 MOL1         0.0959
      26    N1      19.159128   19.635672   26.597365 N.4        1 MOL1        -0.5987
      27    H18     18.373605   20.135495   26.172258 H          1 MOL1         0.3605
      28    H19     19.479386   20.190514   27.396224 H          1 MOL1         0.3605
      29    H20     18.799762   18.749973   26.963274 H          1 MOL1         0.3605
@<TRIPOS>BOND
    1     1     2    1
    2     1     3    1
    3     1     4    1
    4     1     5    1
    5     5     6    1
    6     5     7    1
    7     5     8    1
    8     8     9    1
    9     8    10    1
   10     8    11    1
   11    11    12    1
   12    11    13    1
   13    11    14    1
   14    14    15    1
   15    14    16    1
   16    14    17    1
   17    17    18    1
   18    17    19    1
   19    17    20    1
   20    20    21    1
   21    20    22    1
   22    22    23    1
   23    22    24    1
   24    22    25    1
   25    20    26    1
   26    26    27    1
   27    26    28    1
   28    26    29    1
@<TRIPOS>SUBSTRUCTURE
       1 MOL1            1 RESIDUE      1      MOL     
@<SCITEGIC>MOL_PROPERTY
VM2 Rank
SciTegic.value.IntegerValue
127

@<SCITEGIC>MOL_PROPERTY
Conf_Id
SciTegic.value.IntegerValue
1370

@<SCITEGIC>MOL_PROPERTY
Probability
SciTegic.value.DoubleValue
0.01

@<SCITEGIC>MOL_PROPERTY
Sum Probability
SciTegic.value.DoubleValue
99.72

@<SCITEGIC>MOL_PROPERTY
Delta G
SciTegic.value.DoubleValue
4.116

@<SCITEGIC>MOL_PROPERTY
G
SciTegic.value.DoubleValue
37.819

@<SCITEGIC>MOL_PROPERTY
E
SciTegic.value.DoubleValue
-0.405

@<SCITEGIC>MOL_PROPERTY
-TS
SciTegic.value.DoubleValue
38.223

@<SCITEGIC>MOL_PROPERTY
U+W
SciTegic.value.DoubleValue
-24.549

@<SCITEGIC>MOL_PROPERTY
U
SciTegic.value.DoubleValue
27.919

@<SCITEGIC>MOL_PROPERTY
W
SciTegic.value.DoubleValue
-52.468

@<SCITEGIC>MOL_PROPERTY
W(PB)
SciTegic.value.DoubleValue
-54.880

@<SCITEGIC>MOL_PROPERTY
W(SA)
SciTegic.value.DoubleValue
2.412

@<SCITEGIC>MOL_PROPERTY
Valence
SciTegic.value.DoubleValue
6.769

@<SCITEGIC>MOL_PROPERTY
Coulomb
SciTegic.value.DoubleValue
20.295

@<SCITEGIC>MOL_PROPERTY
VdW
SciTegic.value.DoubleValue
0.854

@<SCITEGIC>MOL_PROPERTY
VdW6
SciTegic.value.DoubleValue
-10.882

@<SCITEGIC>MOL_PROPERTY
VdW12
SciTegic.value.DoubleValue
11.736

@<SCITEGIC>MOL_PROPERTY
Bond
SciTegic.value.DoubleValue
0.328

@<SCITEGIC>MOL_PROPERTY
Angle
SciTegic.value.DoubleValue
2.340

@<SCITEGIC>MOL_PROPERTY
Pdih
SciTegic.value.DoubleValue
4.102

@<SCITEGIC>MOL_PROPERTY
Idih
SciTegic.value.DoubleValue
0.000

@<SCITEGIC>MOL_PROPERTY
Tether
SciTegic.value.DoubleValue
0.000

@<TRIPOS>MOLECULE
guest-s15_vm2.mol2 : vm2 ligand conformer 128
          29          28           1
SMALL
USER_CHARGES
 
@<TRIPOS>ATOM
       1    C1      19.386491   18.112294   20.104381 C.3        1 MOL1        -0.2426
       2    H1      18.748062   17.766706   20.924687 H          1 MOL1         0.0959
       3    H2      18.755186   18.660217   19.392854 H          1 MOL1         0.0959
       4    H3      19.775071   17.224369   19.589136 H          1 MOL1         0.0959
       5    C2      20.550273   18.998995   20.605216 C.3        1 MOL1        -0.1410
       6    H4      21.158805   19.281219   19.734641 H          1 MOL1         0.0948
       7    H5      21.214249   18.421741   21.263584 H          1 MOL1         0.0948
       8    C3      20.077470   20.292931   21.316648 C.3        1 MOL1        -0.1435
       9    H6      20.789059   21.094577   21.075070 H          1 MOL1         0.0948
      10    H7      19.112180   20.621514   20.907540 H          1 MOL1         0.0948
      11    C4      19.996696   20.192541   22.861541 C.3        1 MOL1        -0.1435
      12    H8      19.732216   21.182896   23.257089 H          1 MOL1         0.0948
      13    H9      20.994369   19.959913   23.257297 H          1 MOL1         0.0948
      14    C5      18.971350   19.154453   23.378590 C.3        1 MOL1        -0.1435
      15    H10     18.009135   19.314752   22.873268 H          1 MOL1         0.0948
      16    H11     19.296164   18.141671   23.110654 H          1 MOL1         0.0948
      17    C6      18.743908   19.236851   24.909935 C.3        1 MOL1        -0.1500
      18    H12     18.005190   18.479213   25.203222 H          1 MOL1         0.0948
      19    H13     18.290208   20.209632   25.141083 H          1 MOL1         0.0948
      20    C7      20.018855   19.067745   25.769535 C.3        1 MOL1         0.1162
      21    H14     20.743572   19.828773   25.465429 H          1 MOL1         0.0910
      22    C8      20.661723   17.681592   25.584929 C.3        1 MOL1        -0.2491
      23    H15     21.007848   17.537542   24.554786 H          1 MOL1         0.0959
      24    H16     21.534940   17.570220   26.239418 H          1 MOL1         0.0959
      25    H17     19.951955   16.880117   25.824712 H          1 MOL1         0.0959
      26    N1      19.729234   19.318599   27.223225 N.4        1 MOL1        -0.5987
      27    H18     19.339489   20.253561   27.374238 H          1 MOL1         0.3605
      28    H19     20.578031   19.246836   27.791611 H          1 MOL1         0.3605
      29    H20     19.056308   18.641482   27.592557 H          1 MOL1         0.3605
@<TRIPOS>BOND
    1     1     2    1
    2     1     3    1
    3     1     4    1
    4     1     5    1
    5     5     6    1
    6     5     7    1
    7     5     8    1
    8     8     9    1
    9     8    10    1
   10     8    11    1
   11    11    12    1
   12    11    13    1
   13    11    14    1
   14    14    15    1
   15    14    16    1
   16    14    17    1
   17    17    18    1
   18    17    19    1
   19    17    20    1
   20    20    21    1
   21    20    22    1
   22    22    23    1
   23    22    24    1
   24    22    25    1
   25    20    26    1
   26    26    27    1
   27    26    28    1
   28    26    29    1
@<TRIPOS>SUBSTRUCTURE
       1 MOL1            1 RESIDUE      1      MOL     
@<SCITEGIC>MOL_PROPERTY
VM2 Rank
SciTegic.value.IntegerValue
128

@<SCITEGIC>MOL_PROPERTY
Conf_Id
SciTegic.value.IntegerValue
1642

@<SCITEGIC>MOL_PROPERTY
Probability
SciTegic.value.DoubleValue
0.01

@<SCITEGIC>MOL_PROPERTY
Sum Probability
SciTegic.value.DoubleValue
99.73

@<SCITEGIC>MOL_PROPERTY
Delta G
SciTegic.value.DoubleValue
4.137

@<SCITEGIC>MOL_PROPERTY
G
SciTegic.value.DoubleValue
37.839

@<SCITEGIC>MOL_PROPERTY
E
SciTegic.value.DoubleValue
-0.183

@<SCITEGIC>MOL_PROPERTY
-TS
SciTegic.value.DoubleValue
38.022

@<SCITEGIC>MOL_PROPERTY
U+W
SciTegic.value.DoubleValue
-24.327

@<SCITEGIC>MOL_PROPERTY
U
SciTegic.value.DoubleValue
28.040

@<SCITEGIC>MOL_PROPERTY
W
SciTegic.value.DoubleValue
-52.368

@<SCITEGIC>MOL_PROPERTY
W(PB)
SciTegic.value.DoubleValue
-54.808

@<SCITEGIC>MOL_PROPERTY
W(SA)
SciTegic.value.DoubleValue
2.440

@<SCITEGIC>MOL_PROPERTY
Valence
SciTegic.value.DoubleValue
6.918

@<SCITEGIC>MOL_PROPERTY
Coulomb
SciTegic.value.DoubleValue
20.071

@<SCITEGIC>MOL_PROPERTY
VdW
SciTegic.value.DoubleValue
1.052

@<SCITEGIC>MOL_PROPERTY
VdW6
SciTegic.value.DoubleValue
-10.718

@<SCITEGIC>MOL_PROPERTY
VdW12
SciTegic.value.DoubleValue
11.770

@<SCITEGIC>MOL_PROPERTY
Bond
SciTegic.value.DoubleValue
0.310

@<SCITEGIC>MOL_PROPERTY
Angle
SciTegic.value.DoubleValue
2.142

@<SCITEGIC>MOL_PROPERTY
Pdih
SciTegic.value.DoubleValue
4.465

@<SCITEGIC>MOL_PROPERTY
Idih
SciTegic.value.DoubleValue
0.000

@<SCITEGIC>MOL_PROPERTY
Tether
SciTegic.value.DoubleValue
0.000

@<TRIPOS>MOLECULE
guest-s15_vm2.mol2 : vm2 ligand conformer 129
          29          28           1
SMALL
USER_CHARGES
 
@<TRIPOS>ATOM
       1    C1      18.923775   18.455345   19.934561 C.3        1 MOL1        -0.2426
       2    H1      18.682165   17.448529   19.570062 H          1 MOL1         0.0959
       3    H2      18.019786   18.862258   20.403450 H          1 MOL1         0.0959
       4    H3      19.166441   19.077110   19.063061 H          1 MOL1         0.0959
       5    C2      20.109239   18.401250   20.925394 C.3        1 MOL1        -0.1410
       6    H4      20.955131   17.905435   20.429158 H          1 MOL1         0.0948
       7    H5      19.842984   17.767115   21.779657 H          1 MOL1         0.0948
       8    C3      20.569756   19.803064   21.402018 C.3        1 MOL1        -0.1435
       9    H6      21.552040   19.722688   21.887382 H          1 MOL1         0.0948
      10    H7      20.732485   20.430764   20.515024 H          1 MOL1         0.0948
      11    C4      19.578752   20.527667   22.353350 C.3        1 MOL1        -0.1435
      12    H8      18.546182   20.213689   22.156479 H          1 MOL1         0.0948
      13    H9      19.608181   21.601167   22.121062 H          1 MOL1         0.0948
      14    C5      19.895966   20.369274   23.862799 C.3        1 MOL1        -0.1435
      15    H10     20.890186   20.787594   24.072453 H          1 MOL1         0.0948
      16    H11     19.180344   20.985581   24.422301 H          1 MOL1         0.0948
      17    C6      19.835019   18.908129   24.374005 C.3        1 MOL1        -0.1500
      18    H12     20.609730   18.321105   23.865706 H          1 MOL1         0.0948
      19    H13     18.868044   18.460092   24.109555 H          1 MOL1         0.0948
      20    C7      20.063284   18.791018   25.896711 C.3        1 MOL1         0.1162
      21    H14     21.010635   19.281622   26.140584 H          1 MOL1         0.0910
      22    C8      20.164606   17.313673   26.308790 C.3        1 MOL1        -0.2491
      23    H15     19.235854   16.774329   26.084100 H          1 MOL1         0.0959
      24    H16     20.985731   16.815939   25.777965 H          1 MOL1         0.0959
      25    H17     20.360985   17.223082   27.384261 H          1 MOL1         0.0959
      26    N1      18.995603   19.486579   26.696373 N.4        1 MOL1        -0.5987
      27    H18     18.945786   20.482854   26.467309 H          1 MOL1         0.3605
      28    H19     19.173482   19.412141   27.702074 H          1 MOL1         0.3605
      29    H20     18.072659   19.082111   26.517301 H          1 MOL1         0.3605
@<TRIPOS>BOND
    1     1     2    1
    2     1     3    1
    3     1     4    1
    4     1     5    1
    5     5     6    1
    6     5     7    1
    7     5     8    1
    8     8     9    1
    9     8    10    1
   10     8    11    1
   11    11    12    1
   12    11    13    1
   13    11    14    1
   14    14    15    1
   15    14    16    1
   16    14    17    1
   17    17    18    1
   18    17    19    1
   19    17    20    1
   20    20    21    1
   21    20    22    1
   22    22    23    1
   23    22    24    1
   24    22    25    1
   25    20    26    1
   26    26    27    1
   27    26    28    1
   28    26    29    1
@<TRIPOS>SUBSTRUCTURE
       1 MOL1            1 RESIDUE      1      MOL     
@<SCITEGIC>MOL_PROPERTY
VM2 Rank
SciTegic.value.IntegerValue
129

@<SCITEGIC>MOL_PROPERTY
Conf_Id
SciTegic.value.IntegerValue
287

@<SCITEGIC>MOL_PROPERTY
Probability
SciTegic.value.DoubleValue
0.01

@<SCITEGIC>MOL_PROPERTY
Sum Probability
SciTegic.value.DoubleValue
99.74

@<SCITEGIC>MOL_PROPERTY
Delta G
SciTegic.value.DoubleValue
4.151

@<SCITEGIC>MOL_PROPERTY
G
SciTegic.value.DoubleValue
37.853

@<SCITEGIC>MOL_PROPERTY
E
SciTegic.value.DoubleValue
0.037

@<SCITEGIC>MOL_PROPERTY
-TS
SciTegic.value.DoubleValue
37.816

@<SCITEGIC>MOL_PROPERTY
U+W
SciTegic.value.DoubleValue
-24.107

@<SCITEGIC>MOL_PROPERTY
U
SciTegic.value.DoubleValue
28.258

@<SCITEGIC>MOL_PROPERTY
W
SciTegic.value.DoubleValue
-52.365

@<SCITEGIC>MOL_PROPERTY
W(PB)
SciTegic.value.DoubleValue
-54.797

@<SCITEGIC>MOL_PROPERTY
W(SA)
SciTegic.value.DoubleValue
2.432

@<SCITEGIC>MOL_PROPERTY
Valence
SciTegic.value.DoubleValue
6.944

@<SCITEGIC>MOL_PROPERTY
Coulomb
SciTegic.value.DoubleValue
20.034

@<SCITEGIC>MOL_PROPERTY
VdW
SciTegic.value.DoubleValue
1.280

@<SCITEGIC>MOL_PROPERTY
VdW6
SciTegic.value.DoubleValue
-10.156

@<SCITEGIC>MOL_PROPERTY
VdW12
SciTegic.value.DoubleValue
11.436

@<SCITEGIC>MOL_PROPERTY
Bond
SciTegic.value.DoubleValue
0.326

@<SCITEGIC>MOL_PROPERTY
Angle
SciTegic.value.DoubleValue
1.949

@<SCITEGIC>MOL_PROPERTY
Pdih
SciTegic.value.DoubleValue
4.669

@<SCITEGIC>MOL_PROPERTY
Idih
SciTegic.value.DoubleValue
0.000

@<SCITEGIC>MOL_PROPERTY
Tether
SciTegic.value.DoubleValue
0.000

@<TRIPOS>MOLECULE
guest-s15_vm2.mol2 : vm2 ligand conformer 130
          29          28           1
SMALL
USER_CHARGES
 
@<TRIPOS>ATOM
       1    C1      20.293848   20.621953   20.595998 C.3        1 MOL1        -0.2426
       2    H1      19.424641   21.054089   21.106847 H          1 MOL1         0.0959
       3    H2      21.160474   20.683245   21.266889 H          1 MOL1         0.0959
       4    H3      20.502922   21.247427   19.718550 H          1 MOL1         0.0959
       5    C2      20.023793   19.163386   20.166938 C.3        1 MOL1        -0.1410
       6    H4      20.846884   18.828448   19.520369 H          1 MOL1         0.0948
       7    H5      19.116513   19.126941   19.547910 H          1 MOL1         0.0948
       8    C3      19.889346   18.167887   21.347191 C.3        1 MOL1        -0.1435
       9    H6      19.758056   17.164646   20.918869 H          1 MOL1         0.0948
      10    H7      20.832206   18.127835   21.906258 H          1 MOL1         0.0948
      11    C4      18.690090   18.447247   22.294020 C.3        1 MOL1        -0.1435
      12    H8      18.270116   17.488861   22.629190 H          1 MOL1         0.0948
      13    H9      17.886293   18.936450   21.726902 H          1 MOL1         0.0948
      14    C5      19.029127   19.296418   23.546822 C.3        1 MOL1        -0.1435
      15    H10     19.568000   20.206768   23.258087 H          1 MOL1         0.0948
      16    H11     18.084001   19.627778   23.996526 H          1 MOL1         0.0948
      17    C6      19.852045   18.518702   24.606591 C.3        1 MOL1        -0.1500
      18    H12     20.782043   18.154173   24.154026 H          1 MOL1         0.0948
      19    H13     19.293949   17.630126   24.930151 H          1 MOL1         0.0948
      20    C7      20.212533   19.379466   25.836881 C.3        1 MOL1         0.1162
      21    H14     20.740088   20.272474   25.487790 H          1 MOL1         0.0910
      22    C8      21.148367   18.602923   26.776929 C.3        1 MOL1        -0.2491
      23    H15     20.664562   17.694452   27.157144 H          1 MOL1         0.0959
      24    H16     22.067707   18.307940   26.255821 H          1 MOL1         0.0959
      25    H17     21.436943   19.221587   27.635640 H          1 MOL1         0.0959
      26    N1      18.996850   19.858017   26.582630 N.4        1 MOL1        -0.5987
      27    H18     18.385002   20.416169   25.981210 H          1 MOL1         0.3605
      28    H19     19.254997   20.441772   27.383390 H          1 MOL1         0.3605
      29    H20     18.445953   19.073034   26.940175 H          1 MOL1         0.3605
@<TRIPOS>BOND
    1     1     2    1
    2     1     3    1
    3     1     4    1
    4     1     5    1
    5     5     6    1
    6     5     7    1
    7     5     8    1
    8     8     9    1
    9     8    10    1
   10     8    11    1
   11    11    12    1
   12    11    13    1
   13    11    14    1
   14    14    15    1
   15    14    16    1
   16    14    17    1
   17    17    18    1
   18    17    19    1
   19    17    20    1
   20    20    21    1
   21    20    22    1
   22    22    23    1
   23    22    24    1
   24    22    25    1
   25    20    26    1
   26    26    27    1
   27    26    28    1
   28    26    29    1
@<TRIPOS>SUBSTRUCTURE
       1 MOL1            1 RESIDUE      1      MOL     
@<SCITEGIC>MOL_PROPERTY
VM2 Rank
SciTegic.value.IntegerValue
130

@<SCITEGIC>MOL_PROPERTY
Conf_Id
SciTegic.value.IntegerValue
1288

@<SCITEGIC>MOL_PROPERTY
Probability
SciTegic.value.DoubleValue
0.01

@<SCITEGIC>MOL_PROPERTY
Sum Probability
SciTegic.value.DoubleValue
99.75

@<SCITEGIC>MOL_PROPERTY
Delta G
SciTegic.value.DoubleValue
4.158

@<SCITEGIC>MOL_PROPERTY
G
SciTegic.value.DoubleValue
37.860

@<SCITEGIC>MOL_PROPERTY
E
SciTegic.value.DoubleValue
0.050

@<SCITEGIC>MOL_PROPERTY
-TS
SciTegic.value.DoubleValue
37.810

@<SCITEGIC>MOL_PROPERTY
U+W
SciTegic.value.DoubleValue
-24.095

@<SCITEGIC>MOL_PROPERTY
U
SciTegic.value.DoubleValue
28.284

@<SCITEGIC>MOL_PROPERTY
W
SciTegic.value.DoubleValue
-52.379

@<SCITEGIC>MOL_PROPERTY
W(PB)
SciTegic.value.DoubleValue
-54.830

@<SCITEGIC>MOL_PROPERTY
W(SA)
SciTegic.value.DoubleValue
2.451

@<SCITEGIC>MOL_PROPERTY
Valence
SciTegic.value.DoubleValue
6.921

@<SCITEGIC>MOL_PROPERTY
Coulomb
SciTegic.value.DoubleValue
20.077

@<SCITEGIC>MOL_PROPERTY
VdW
SciTegic.value.DoubleValue
1.287

@<SCITEGIC>MOL_PROPERTY
VdW6
SciTegic.value.DoubleValue
-10.098

@<SCITEGIC>MOL_PROPERTY
VdW12
SciTegic.value.DoubleValue
11.385

@<SCITEGIC>MOL_PROPERTY
Bond
SciTegic.value.DoubleValue
0.331

@<SCITEGIC>MOL_PROPERTY
Angle
SciTegic.value.DoubleValue
1.887

@<SCITEGIC>MOL_PROPERTY
Pdih
SciTegic.value.DoubleValue
4.704

@<SCITEGIC>MOL_PROPERTY
Idih
SciTegic.value.DoubleValue
0.000

@<SCITEGIC>MOL_PROPERTY
Tether
SciTegic.value.DoubleValue
0.000

@<TRIPOS>MOLECULE
guest-s15_vm2.mol2 : vm2 ligand conformer 131
          29          28           1
SMALL
USER_CHARGES
 
@<TRIPOS>ATOM
       1    C1      18.503541   19.336094   20.049957 C.3        1 MOL1        -0.2426
       2    H1      17.930737   19.009336   20.924826 H          1 MOL1         0.0959
       3    H2      18.228123   20.376979   19.836051 H          1 MOL1         0.0959
       4    H3      18.184259   18.725105   19.195766 H          1 MOL1         0.0959
       5    C2      20.028621   19.203670   20.269663 C.3        1 MOL1        -0.1410
       6    H4      20.532695   19.530940   19.349516 H          1 MOL1         0.0948
       7    H5      20.305140   18.148991   20.406557 H          1 MOL1         0.0948
       8    C3      20.555054   20.057297   21.452008 C.3        1 MOL1        -0.1435
       9    H6      21.546396   20.444457   21.178622 H          1 MOL1         0.0948
      10    H7      19.920900   20.943337   21.592968 H          1 MOL1         0.0948
      11    C4      20.707490   19.292379   22.792105 C.3        1 MOL1        -0.1435
      12    H8      21.154468   19.980789   23.520810 H          1 MOL1         0.0948
      13    H9      21.428207   18.473143   22.663392 H          1 MOL1         0.0948
      14    C5      19.381338   18.725279   23.355863 C.3        1 MOL1        -0.1435
      15    H10     18.626690   19.521011   23.408737 H          1 MOL1         0.0948
      16    H11     18.988781   17.971899   22.661101 H          1 MOL1         0.0948
      17    C6      19.543214   18.050793   24.742619 C.3        1 MOL1        -0.1500
      18    H12     20.239482   17.207100   24.645961 H          1 MOL1         0.0948
      19    H13     18.579207   17.619134   25.043014 H          1 MOL1         0.0948
      20    C7      20.047098   18.994329   25.857950 C.3        1 MOL1         0.1162
      21    H14     21.021729   19.391923   25.560619 H          1 MOL1         0.0910
      22    C8      20.228693   18.218924   27.172311 C.3        1 MOL1        -0.2491
      23    H15     19.276089   17.802007   27.522510 H          1 MOL1         0.0959
      24    H16     20.936559   17.390956   27.041389 H          1 MOL1         0.0959
      25    H17     20.624450   18.874159   27.958074 H          1 MOL1         0.0959
      26    N1      19.140953   20.177236   26.061524 N.4        1 MOL1        -0.5987
      27    H18     19.044589   20.722511   25.200492 H          1 MOL1         0.3605
      28    H19     19.501306   20.805248   26.785622 H          1 MOL1         0.3605
      29    H20     18.203443   19.883359   26.348153 H          1 MOL1         0.3605
@<TRIPOS>BOND
    1     1     2    1
    2     1     3    1
    3     1     4    1
    4     1     5    1
    5     5     6    1
    6     5     7    1
    7     5     8    1
    8     8     9    1
    9     8    10    1
   10     8    11    1
   11    11    12    1
   12    11    13    1
   13    11    14    1
   14    14    15    1
   15    14    16    1
   16    14    17    1
   17    17    18    1
   18    17    19    1
   19    17    20    1
   20    20    21    1
   21    20    22    1
   22    22    23    1
   23    22    24    1
   24    22    25    1
   25    20    26    1
   26    26    27    1
   27    26    28    1
   28    26    29    1
@<TRIPOS>SUBSTRUCTURE
       1 MOL1            1 RESIDUE      1      MOL     
@<SCITEGIC>MOL_PROPERTY
VM2 Rank
SciTegic.value.IntegerValue
131

@<SCITEGIC>MOL_PROPERTY
Conf_Id
SciTegic.value.IntegerValue
374

@<SCITEGIC>MOL_PROPERTY
Probability
SciTegic.value.DoubleValue
0.01

@<SCITEGIC>MOL_PROPERTY
Sum Probability
SciTegic.value.DoubleValue
99.76

@<SCITEGIC>MOL_PROPERTY
Delta G
SciTegic.value.DoubleValue
4.168

@<SCITEGIC>MOL_PROPERTY
G
SciTegic.value.DoubleValue
37.870

@<SCITEGIC>MOL_PROPERTY
E
SciTegic.value.DoubleValue
-0.036

@<SCITEGIC>MOL_PROPERTY
-TS
SciTegic.value.DoubleValue
37.906

@<SCITEGIC>MOL_PROPERTY
U+W
SciTegic.value.DoubleValue
-24.181

@<SCITEGIC>MOL_PROPERTY
U
SciTegic.value.DoubleValue
28.057

@<SCITEGIC>MOL_PROPERTY
W
SciTegic.value.DoubleValue
-52.238

@<SCITEGIC>MOL_PROPERTY
W(PB)
SciTegic.value.DoubleValue
-54.696

@<SCITEGIC>MOL_PROPERTY
W(SA)
SciTegic.value.DoubleValue
2.458

@<SCITEGIC>MOL_PROPERTY
Valence
SciTegic.value.DoubleValue
6.543

@<SCITEGIC>MOL_PROPERTY
Coulomb
SciTegic.value.DoubleValue
20.387

@<SCITEGIC>MOL_PROPERTY
VdW
SciTegic.value.DoubleValue
1.128

@<SCITEGIC>MOL_PROPERTY
VdW6
SciTegic.value.DoubleValue
-10.342

@<SCITEGIC>MOL_PROPERTY
VdW12
SciTegic.value.DoubleValue
11.470

@<SCITEGIC>MOL_PROPERTY
Bond
SciTegic.value.DoubleValue
0.308

@<SCITEGIC>MOL_PROPERTY
Angle
SciTegic.value.DoubleValue
1.937

@<SCITEGIC>MOL_PROPERTY
Pdih
SciTegic.value.DoubleValue
4.297

@<SCITEGIC>MOL_PROPERTY
Idih
SciTegic.value.DoubleValue
0.000

@<SCITEGIC>MOL_PROPERTY
Tether
SciTegic.value.DoubleValue
0.000

@<TRIPOS>MOLECULE
guest-s15_vm2.mol2 : vm2 ligand conformer 132
          29          28           1
SMALL
USER_CHARGES
 
@<TRIPOS>ATOM
       1    C1      19.559909   19.233673   19.127215 C.3        1 MOL1        -0.2426
       2    H1      20.247537   19.682858   18.398904 H          1 MOL1         0.0959
       3    H2      19.578489   18.145643   18.981987 H          1 MOL1         0.0959
       4    H3      18.547412   19.591914   18.899757 H          1 MOL1         0.0959
       5    C2      19.970975   19.607554   20.567127 C.3        1 MOL1        -0.1410
       6    H4      19.970834   20.701373   20.672963 H          1 MOL1         0.0948
       7    H5      21.001304   19.270878   20.740360 H          1 MOL1         0.0948
       8    C3      19.017053   18.981356   21.612055 C.3        1 MOL1        -0.1435
       9    H6      17.985436   19.266833   21.363790 H          1 MOL1         0.0948
      10    H7      19.057734   17.885500   21.543514 H          1 MOL1         0.0948
      11    C4      19.308444   19.423335   23.067433 C.3        1 MOL1        -0.1435
      12    H8      18.481492   19.064585   23.691065 H          1 MOL1         0.0948
      13    H9      19.300613   20.520409   23.126510 H          1 MOL1         0.0948
      14    C5      20.645150   18.872613   23.625316 C.3        1 MOL1        -0.1435
      15    H10     20.620780   17.774772   23.624775 H          1 MOL1         0.0948
      16    H11     21.461555   19.151065   22.947542 H          1 MOL1         0.0948
      17    C6      21.023792   19.396874   25.039519 C.3        1 MOL1        -0.1500
      18    H12     21.163010   20.485042   24.997194 H          1 MOL1         0.0948
      19    H13     22.011007   18.987778   25.291678 H          1 MOL1         0.0948
      20    C7      20.067621   19.057325   26.211472 C.3        1 MOL1         0.1162
      21    H14     20.605254   19.294669   27.134683 H          1 MOL1         0.0910
      22    C8      19.706626   17.562633   26.263714 C.3        1 MOL1        -0.2491
      23    H15     19.083268   17.266418   25.411604 H          1 MOL1         0.0959
      24    H16     20.612590   16.943959   26.259276 H          1 MOL1         0.0959
      25    H17     19.151339   17.333436   27.181437 H          1 MOL1         0.0959
      26    N1      18.836431   19.920638   26.240150 N.4        1 MOL1        -0.5987
      27    H18     18.255522   19.715039   27.058092 H          1 MOL1         0.3605
      28    H19     18.260725   19.775546   25.408377 H          1 MOL1         0.3605
      29    H20     19.077697   20.915111   26.279127 H          1 MOL1         0.3605
@<TRIPOS>BOND
    1     1     2    1
    2     1     3    1
    3     1     4    1
    4     1     5    1
    5     5     6    1
    6     5     7    1
    7     5     8    1
    8     8     9    1
    9     8    10    1
   10     8    11    1
   11    11    12    1
   12    11    13    1
   13    11    14    1
   14    14    15    1
   15    14    16    1
   16    14    17    1
   17    17    18    1
   18    17    19    1
   19    17    20    1
   20    20    21    1
   21    20    22    1
   22    22    23    1
   23    22    24    1
   24    22    25    1
   25    20    26    1
   26    26    27    1
   27    26    28    1
   28    26    29    1
@<TRIPOS>SUBSTRUCTURE
       1 MOL1            1 RESIDUE      1      MOL     
@<SCITEGIC>MOL_PROPERTY
VM2 Rank
SciTegic.value.IntegerValue
132

@<SCITEGIC>MOL_PROPERTY
Conf_Id
SciTegic.value.IntegerValue
305

@<SCITEGIC>MOL_PROPERTY
Probability
SciTegic.value.DoubleValue
0.01

@<SCITEGIC>MOL_PROPERTY
Sum Probability
SciTegic.value.DoubleValue
99.77

@<SCITEGIC>MOL_PROPERTY
Delta G
SciTegic.value.DoubleValue
4.178

@<SCITEGIC>MOL_PROPERTY
G
SciTegic.value.DoubleValue
37.880

@<SCITEGIC>MOL_PROPERTY
E
SciTegic.value.DoubleValue
-0.108

@<SCITEGIC>MOL_PROPERTY
-TS
SciTegic.value.DoubleValue
37.987

@<SCITEGIC>MOL_PROPERTY
U+W
SciTegic.value.DoubleValue
-24.252

@<SCITEGIC>MOL_PROPERTY
U
SciTegic.value.DoubleValue
28.089

@<SCITEGIC>MOL_PROPERTY
W
SciTegic.value.DoubleValue
-52.341

@<SCITEGIC>MOL_PROPERTY
W(PB)
SciTegic.value.DoubleValue
-54.817

@<SCITEGIC>MOL_PROPERTY
W(SA)
SciTegic.value.DoubleValue
2.476

@<SCITEGIC>MOL_PROPERTY
Valence
SciTegic.value.DoubleValue
5.753

@<SCITEGIC>MOL_PROPERTY
Coulomb
SciTegic.value.DoubleValue
21.249

@<SCITEGIC>MOL_PROPERTY
VdW
SciTegic.value.DoubleValue
1.087

@<SCITEGIC>MOL_PROPERTY
VdW6
SciTegic.value.DoubleValue
-10.617

@<SCITEGIC>MOL_PROPERTY
VdW12
SciTegic.value.DoubleValue
11.704

@<SCITEGIC>MOL_PROPERTY
Bond
SciTegic.value.DoubleValue
0.344

@<SCITEGIC>MOL_PROPERTY
Angle
SciTegic.value.DoubleValue
2.548

@<SCITEGIC>MOL_PROPERTY
Pdih
SciTegic.value.DoubleValue
2.862

@<SCITEGIC>MOL_PROPERTY
Idih
SciTegic.value.DoubleValue
0.000

@<SCITEGIC>MOL_PROPERTY
Tether
SciTegic.value.DoubleValue
0.000

@<TRIPOS>MOLECULE
guest-s15_vm2.mol2 : vm2 ligand conformer 133
          29          28           1
SMALL
USER_CHARGES
 
@<TRIPOS>ATOM
       1    C1      18.125182   19.275821   20.443247 C.3        1 MOL1        -0.2426
       2    H1      17.690758   19.662569   21.373182 H          1 MOL1         0.0959
       3    H2      17.563619   19.716603   19.609400 H          1 MOL1         0.0959
       4    H3      17.969649   18.189505   20.415440 H          1 MOL1         0.0959
       5    C2      19.626288   19.625447   20.328058 C.3        1 MOL1        -0.1410
       6    H4      19.758454   20.714436   20.394073 H          1 MOL1         0.0948
       7    H5      19.981834   19.332712   19.330235 H          1 MOL1         0.0948
       8    C3      20.505609   18.925739   21.392369 C.3        1 MOL1        -0.1435
       9    H6      20.385355   17.836739   21.309351 H          1 MOL1         0.0948
      10    H7      21.559690   19.138534   21.166794 H          1 MOL1         0.0948
      11    C4      20.196284   19.376142   22.839996 C.3        1 MOL1        -0.1435
      12    H8      19.163036   19.106117   23.083781 H          1 MOL1         0.0948
      13    H9      20.278585   20.469619   22.907562 H          1 MOL1         0.0948
      14    C5      21.155154   18.717652   23.860231 C.3        1 MOL1        -0.1435
      15    H10     21.003803   17.629901   23.860209 H          1 MOL1         0.0948
      16    H11     22.188897   18.873022   23.521996 H          1 MOL1         0.0948
      17    C6      21.043744   19.271667   25.308755 C.3        1 MOL1        -0.1500
      18    H12     21.322528   20.333528   25.312978 H          1 MOL1         0.0948
      19    H13     21.806705   18.768618   25.917319 H          1 MOL1         0.0948
      20    C7      19.684250   19.106178   26.034825 C.3        1 MOL1         0.1162
      21    H14     19.859392   19.340913   27.089303 H          1 MOL1         0.0910
      22    C8      19.153368   17.663609   25.968781 C.3        1 MOL1        -0.2491
      23    H15     18.865542   17.384000   24.948288 H          1 MOL1         0.0959
      24    H16     19.913067   16.953856   26.318999 H          1 MOL1         0.0959
      25    H17     18.270523   17.549508   26.609608 H          1 MOL1         0.0959
      26    N1      18.646120   20.093744   25.577739 N.4        1 MOL1        -0.5987
      27    H18     18.970925   21.058038   25.693653 H          1 MOL1         0.3605
      28    H19     17.778262   19.997312   26.112865 H          1 MOL1         0.3605
      29    H20     18.417515   19.961698   24.590428 H          1 MOL1         0.3605
@<TRIPOS>BOND
    1     1     2    1
    2     1     3    1
    3     1     4    1
    4     1     5    1
    5     5     6    1
    6     5     7    1
    7     5     8    1
    8     8     9    1
    9     8    10    1
   10     8    11    1
   11    11    12    1
   12    11    13    1
   13    11    14    1
   14    14    15    1
   15    14    16    1
   16    14    17    1
   17    17    18    1
   18    17    19    1
   19    17    20    1
   20    20    21    1
   21    20    22    1
   22    22    23    1
   23    22    24    1
   24    22    25    1
   25    20    26    1
   26    26    27    1
   27    26    28    1
   28    26    29    1
@<TRIPOS>SUBSTRUCTURE
       1 MOL1            1 RESIDUE      1      MOL     
@<SCITEGIC>MOL_PROPERTY
VM2 Rank
SciTegic.value.IntegerValue
133

@<SCITEGIC>MOL_PROPERTY
Conf_Id
SciTegic.value.IntegerValue
1203

@<SCITEGIC>MOL_PROPERTY
Probability
SciTegic.value.DoubleValue
0.01

@<SCITEGIC>MOL_PROPERTY
Sum Probability
SciTegic.value.DoubleValue
99.78

@<SCITEGIC>MOL_PROPERTY
Delta G
SciTegic.value.DoubleValue
4.207

@<SCITEGIC>MOL_PROPERTY
G
SciTegic.value.DoubleValue
37.909

@<SCITEGIC>MOL_PROPERTY
E
SciTegic.value.DoubleValue
-0.174

@<SCITEGIC>MOL_PROPERTY
-TS
SciTegic.value.DoubleValue
38.083

@<SCITEGIC>MOL_PROPERTY
U+W
SciTegic.value.DoubleValue
-24.318

@<SCITEGIC>MOL_PROPERTY
U
SciTegic.value.DoubleValue
28.045

@<SCITEGIC>MOL_PROPERTY
W
SciTegic.value.DoubleValue
-52.364

@<SCITEGIC>MOL_PROPERTY
W(PB)
SciTegic.value.DoubleValue
-54.808

@<SCITEGIC>MOL_PROPERTY
W(SA)
SciTegic.value.DoubleValue
2.445

@<SCITEGIC>MOL_PROPERTY
Valence
SciTegic.value.DoubleValue
5.555

@<SCITEGIC>MOL_PROPERTY
Coulomb
SciTegic.value.DoubleValue
21.509

@<SCITEGIC>MOL_PROPERTY
VdW
SciTegic.value.DoubleValue
0.981

@<SCITEGIC>MOL_PROPERTY
VdW6
SciTegic.value.DoubleValue
-10.796

@<SCITEGIC>MOL_PROPERTY
VdW12
SciTegic.value.DoubleValue
11.777

@<SCITEGIC>MOL_PROPERTY
Bond
SciTegic.value.DoubleValue
0.331

@<SCITEGIC>MOL_PROPERTY
Angle
SciTegic.value.DoubleValue
2.400

@<SCITEGIC>MOL_PROPERTY
Pdih
SciTegic.value.DoubleValue
2.824

@<SCITEGIC>MOL_PROPERTY
Idih
SciTegic.value.DoubleValue
0.000

@<SCITEGIC>MOL_PROPERTY
Tether
SciTegic.value.DoubleValue
0.000

@<TRIPOS>MOLECULE
guest-s15_vm2.mol2 : vm2 ligand conformer 134
          29          28           1
SMALL
USER_CHARGES
 
@<TRIPOS>ATOM
       1    C1      19.217266   17.833668   20.800168 C.3        1 MOL1        -0.2426
       2    H1      18.337520   17.181653   20.724778 H          1 MOL1         0.0959
       3    H2      19.741741   17.802302   19.836405 H          1 MOL1         0.0959
       4    H3      19.880752   17.408742   21.562779 H          1 MOL1         0.0959
       5    C2      18.792596   19.277905   21.151062 C.3        1 MOL1        -0.1410
       6    H4      18.251718   19.295709   22.105433 H          1 MOL1         0.0948
       7    H5      18.072200   19.622997   20.396395 H          1 MOL1         0.0948
       8    C3      19.977240   20.273902   21.187905 C.3        1 MOL1        -0.1435
       9    H6      20.437974   20.304673   20.190963 H          1 MOL1         0.0948
      10    H7      19.583250   21.284328   21.363550 H          1 MOL1         0.0948
      11    C4      21.086302   19.979057   22.233772 C.3        1 MOL1        -0.1435
      12    H8      21.878740   20.724956   22.082228 H          1 MOL1         0.0948
      13    H9      21.561451   19.009703   22.033850 H          1 MOL1         0.0948
      14    C5      20.629277   20.070168   23.713645 C.3        1 MOL1        -0.1435
      15    H10     21.466873   20.461906   24.307476 H          1 MOL1         0.0948
      16    H11     19.820298   20.806625   23.805962 H          1 MOL1         0.0948
      17    C6      20.208523   18.707296   24.322462 C.3        1 MOL1        -0.1500
      18    H12     21.028540   17.990386   24.183490 H          1 MOL1         0.0948
      19    H13     19.343351   18.295663   23.792023 H          1 MOL1         0.0948
      20    C7      19.883262   18.800057   25.828665 C.3        1 MOL1         0.1162
      21    H14     20.751142   19.225757   26.341680 H          1 MOL1         0.0910
      22    C8      19.619537   17.400199   26.405875 C.3        1 MOL1        -0.2491
      23    H15     19.423138   17.455349   27.483734 H          1 MOL1         0.0959
      24    H16     18.753754   16.928659   25.924185 H          1 MOL1         0.0959
      25    H17     20.489405   16.747832   26.259268 H          1 MOL1         0.0959
      26    N1      18.721997   19.713747   26.110447 N.4        1 MOL1        -0.5987
      27    H18     18.901110   20.661389   25.767622 H          1 MOL1         0.3605
      28    H19     18.534731   19.781336   27.114941 H          1 MOL1         0.3605
      29    H20     17.866114   19.378656   25.660438 H          1 MOL1         0.3605
@<TRIPOS>BOND
    1     1     2    1
    2     1     3    1
    3     1     4    1
    4     1     5    1
    5     5     6    1
    6     5     7    1
    7     5     8    1
    8     8     9    1
    9     8    10    1
   10     8    11    1
   11    11    12    1
   12    11    13    1
   13    11    14    1
   14    14    15    1
   15    14    16    1
   16    14    17    1
   17    17    18    1
   18    17    19    1
   19    17    20    1
   20    20    21    1
   21    20    22    1
   22    22    23    1
   23    22    24    1
   24    22    25    1
   25    20    26    1
   26    26    27    1
   27    26    28    1
   28    26    29    1
@<TRIPOS>SUBSTRUCTURE
       1 MOL1            1 RESIDUE      1      MOL     
@<SCITEGIC>MOL_PROPERTY
VM2 Rank
SciTegic.value.IntegerValue
134

@<SCITEGIC>MOL_PROPERTY
Conf_Id
SciTegic.value.IntegerValue
996

@<SCITEGIC>MOL_PROPERTY
Probability
SciTegic.value.DoubleValue
0.01

@<SCITEGIC>MOL_PROPERTY
Sum Probability
SciTegic.value.DoubleValue
99.79

@<SCITEGIC>MOL_PROPERTY
Delta G
SciTegic.value.DoubleValue
4.229

@<SCITEGIC>MOL_PROPERTY
G
SciTegic.value.DoubleValue
37.931

@<SCITEGIC>MOL_PROPERTY
E
SciTegic.value.DoubleValue
-0.273

@<SCITEGIC>MOL_PROPERTY
-TS
SciTegic.value.DoubleValue
38.204

@<SCITEGIC>MOL_PROPERTY
U+W
SciTegic.value.DoubleValue
-24.418

@<SCITEGIC>MOL_PROPERTY
U
SciTegic.value.DoubleValue
28.181

@<SCITEGIC>MOL_PROPERTY
W
SciTegic.value.DoubleValue
-52.599

@<SCITEGIC>MOL_PROPERTY
W(PB)
SciTegic.value.DoubleValue
-55.015

@<SCITEGIC>MOL_PROPERTY
W(SA)
SciTegic.value.DoubleValue
2.416

@<SCITEGIC>MOL_PROPERTY
Valence
SciTegic.value.DoubleValue
6.746

@<SCITEGIC>MOL_PROPERTY
Coulomb
SciTegic.value.DoubleValue
20.582

@<SCITEGIC>MOL_PROPERTY
VdW
SciTegic.value.DoubleValue
0.854

@<SCITEGIC>MOL_PROPERTY
VdW6
SciTegic.value.DoubleValue
-10.781

@<SCITEGIC>MOL_PROPERTY
VdW12
SciTegic.value.DoubleValue
11.635

@<SCITEGIC>MOL_PROPERTY
Bond
SciTegic.value.DoubleValue
0.324

@<SCITEGIC>MOL_PROPERTY
Angle
SciTegic.value.DoubleValue
2.262

@<SCITEGIC>MOL_PROPERTY
Pdih
SciTegic.value.DoubleValue
4.159

@<SCITEGIC>MOL_PROPERTY
Idih
SciTegic.value.DoubleValue
0.000

@<SCITEGIC>MOL_PROPERTY
Tether
SciTegic.value.DoubleValue
0.000

@<TRIPOS>MOLECULE
guest-s15_vm2.mol2 : vm2 ligand conformer 135
          29          28           1
SMALL
USER_CHARGES
 
@<TRIPOS>ATOM
       1    C1      20.225812   21.044833   20.913198 C.3        1 MOL1        -0.2426
       2    H1      19.585246   21.915118   20.720127 H          1 MOL1         0.0959
       3    H2      21.020184   21.357413   21.603459 H          1 MOL1         0.0959
       4    H3      20.693029   20.753089   19.963570 H          1 MOL1         0.0959
       5    C2      19.401837   19.882829   21.506137 C.3        1 MOL1        -0.1410
       6    H4      18.595753   19.613953   20.809319 H          1 MOL1         0.0948
       7    H5      18.918751   20.224355   22.429431 H          1 MOL1         0.0948
       8    C3      20.284005   18.642665   21.782381 C.3        1 MOL1        -0.1435
       9    H6      20.757737   18.333002   20.840625 H          1 MOL1         0.0948
      10    H7      21.110314   18.902208   22.455761 H          1 MOL1         0.0948
      11    C4      19.495911   17.434748   22.347844 C.3        1 MOL1        -0.1435
      12    H8      20.181509   16.580691   22.435694 H          1 MOL1         0.0948
      13    H9      18.739645   17.132335   21.610390 H          1 MOL1         0.0948
      14    C5      18.793485   17.652315   23.715591 C.3        1 MOL1        -0.1435
      15    H10     18.006719   18.411594   23.628386 H          1 MOL1         0.0948
      16    H11     18.266089   16.719982   23.960296 H          1 MOL1         0.0948
      17    C6      19.753336   17.974787   24.893251 C.3        1 MOL1        -0.1500
      18    H12     20.679326   17.397800   24.768981 H          1 MOL1         0.0948
      19    H13     19.300627   17.617176   25.827636 H          1 MOL1         0.0948
      20    C7      20.087558   19.474937   25.058958 C.3        1 MOL1         0.1162
      21    H14     20.436539   19.868027   24.101356 H          1 MOL1         0.0910
      22    C8      21.211691   19.660819   26.090025 C.3        1 MOL1        -0.2491
      23    H15     21.472538   20.721332   26.193334 H          1 MOL1         0.0959
      24    H16     20.912330   19.284422   27.076257 H          1 MOL1         0.0959
      25    H17     22.117251   19.124580   25.779947 H          1 MOL1         0.0959
      26    N1      18.882365   20.288066   25.446615 N.4        1 MOL1        -0.5987
      27    H18     18.130563   20.196578   24.758672 H          1 MOL1         0.3605
      28    H19     19.111500   21.283190   25.523733 H          1 MOL1         0.3605
      29    H20     18.508972   19.989572   26.351692 H          1 MOL1         0.3605
@<TRIPOS>BOND
    1     1     2    1
    2     1     3    1
    3     1     4    1
    4     1     5    1
    5     5     6    1
    6     5     7    1
    7     5     8    1
    8     8     9    1
    9     8    10    1
   10     8    11    1
   11    11    12    1
   12    11    13    1
   13    11    14    1
   14    14    15    1
   15    14    16    1
   16    14    17    1
   17    17    18    1
   18    17    19    1
   19    17    20    1
   20    20    21    1
   21    20    22    1
   22    22    23    1
   23    22    24    1
   24    22    25    1
   25    20    26    1
   26    26    27    1
   27    26    28    1
   28    26    29    1
@<TRIPOS>SUBSTRUCTURE
       1 MOL1            1 RESIDUE      1      MOL     
@<SCITEGIC>MOL_PROPERTY
VM2 Rank
SciTegic.value.IntegerValue
135

@<SCITEGIC>MOL_PROPERTY
Conf_Id
SciTegic.value.IntegerValue
1353

@<SCITEGIC>MOL_PROPERTY
Probability
SciTegic.value.DoubleValue
0.01

@<SCITEGIC>MOL_PROPERTY
Sum Probability
SciTegic.value.DoubleValue
99.80

@<SCITEGIC>MOL_PROPERTY
Delta G
SciTegic.value.DoubleValue
4.231

@<SCITEGIC>MOL_PROPERTY
G
SciTegic.value.DoubleValue
37.933

@<SCITEGIC>MOL_PROPERTY
E
SciTegic.value.DoubleValue
-0.486

@<SCITEGIC>MOL_PROPERTY
-TS
SciTegic.value.DoubleValue
38.419

@<SCITEGIC>MOL_PROPERTY
U+W
SciTegic.value.DoubleValue
-24.631

@<SCITEGIC>MOL_PROPERTY
U
SciTegic.value.DoubleValue
28.071

@<SCITEGIC>MOL_PROPERTY
W
SciTegic.value.DoubleValue
-52.702

@<SCITEGIC>MOL_PROPERTY
W(PB)
SciTegic.value.DoubleValue
-55.094

@<SCITEGIC>MOL_PROPERTY
W(SA)
SciTegic.value.DoubleValue
2.392

@<SCITEGIC>MOL_PROPERTY
Valence
SciTegic.value.DoubleValue
6.291

@<SCITEGIC>MOL_PROPERTY
Coulomb
SciTegic.value.DoubleValue
21.485

@<SCITEGIC>MOL_PROPERTY
VdW
SciTegic.value.DoubleValue
0.295

@<SCITEGIC>MOL_PROPERTY
VdW6
SciTegic.value.DoubleValue
-11.564

@<SCITEGIC>MOL_PROPERTY
VdW12
SciTegic.value.DoubleValue
11.859

@<SCITEGIC>MOL_PROPERTY
Bond
SciTegic.value.DoubleValue
0.313

@<SCITEGIC>MOL_PROPERTY
Angle
SciTegic.value.DoubleValue
2.279

@<SCITEGIC>MOL_PROPERTY
Pdih
SciTegic.value.DoubleValue
3.699

@<SCITEGIC>MOL_PROPERTY
Idih
SciTegic.value.DoubleValue
0.000

@<SCITEGIC>MOL_PROPERTY
Tether
SciTegic.value.DoubleValue
0.000

@<TRIPOS>MOLECULE
guest-s15_vm2.mol2 : vm2 ligand conformer 136
          29          28           1
SMALL
USER_CHARGES
 
@<TRIPOS>ATOM
       1    C1      19.378799   20.700239   20.000798 C.3        1 MOL1        -0.2426
       2    H1      18.284444   20.657383   19.924710 H          1 MOL1         0.0959
       3    H2      19.673039   21.757096   20.039275 H          1 MOL1         0.0959
       4    H3      19.802591   20.265826   19.085976 H          1 MOL1         0.0959
       5    C2      19.876948   19.950100   21.254155 C.3        1 MOL1        -0.1410
       6    H4      19.461666   20.437239   22.145990 H          1 MOL1         0.0948
       7    H5      20.970821   20.033034   21.317584 H          1 MOL1         0.0948
       8    C3      19.465545   18.460449   21.228003 C.3        1 MOL1        -0.1435
       9    H6      18.369539   18.384582   21.242474 H          1 MOL1         0.0948
      10    H7      19.789331   18.018010   20.275809 H          1 MOL1         0.0948
      11    C4      20.055546   17.611709   22.383819 C.3        1 MOL1        -0.1435
      12    H8      21.152093   17.592965   22.317442 H          1 MOL1         0.0948
      13    H9      19.732564   16.572989   22.228357 H          1 MOL1         0.0948
      14    C5      19.607996   18.049835   23.802643 C.3        1 MOL1        -0.1435
      15    H10     18.620335   18.525987   23.748931 H          1 MOL1         0.0948
      16    H11     19.477737   17.145349   24.411394 H          1 MOL1         0.0948
      17    C6      20.635776   18.977377   24.508203 C.3        1 MOL1        -0.1500
      18    H12     20.876038   19.832108   23.866396 H          1 MOL1         0.0948
      19    H13     21.579539   18.431647   24.639006 H          1 MOL1         0.0948
      20    C7      20.183592   19.518619   25.884876 C.3        1 MOL1         0.1162
      21    H14     20.987631   20.157398   26.263348 H          1 MOL1         0.0910
      22    C8      19.964808   18.390758   26.908243 C.3        1 MOL1        -0.2491
      23    H15     19.105570   17.763396   26.642755 H          1 MOL1         0.0959
      24    H16     20.851920   17.748946   26.976670 H          1 MOL1         0.0959
      25    H17     19.778913   18.808529   27.905289 H          1 MOL1         0.0959
      26    N1      18.966988   20.396913   25.783260 N.4        1 MOL1        -0.5987
      27    H18     19.121329   21.179698   25.141522 H          1 MOL1         0.3605
      28    H19     18.715013   20.792384   26.693655 H          1 MOL1         0.3605
      29    H20     18.158026   19.871825   25.442148 H          1 MOL1         0.3605
@<TRIPOS>BOND
    1     1     2    1
    2     1     3    1
    3     1     4    1
    4     1     5    1
    5     5     6    1
    6     5     7    1
    7     5     8    1
    8     8     9    1
    9     8    10    1
   10     8    11    1
   11    11    12    1
   12    11    13    1
   13    11    14    1
   14    14    15    1
   15    14    16    1
   16    14    17    1
   17    17    18    1
   18    17    19    1
   19    17    20    1
   20    20    21    1
   21    20    22    1
   22    22    23    1
   23    22    24    1
   24    22    25    1
   25    20    26    1
   26    26    27    1
   27    26    28    1
   28    26    29    1
@<TRIPOS>SUBSTRUCTURE
       1 MOL1            1 RESIDUE      1      MOL     
@<SCITEGIC>MOL_PROPERTY
VM2 Rank
SciTegic.value.IntegerValue
136

@<SCITEGIC>MOL_PROPERTY
Conf_Id
SciTegic.value.IntegerValue
877

@<SCITEGIC>MOL_PROPERTY
Probability
SciTegic.value.DoubleValue
0.01

@<SCITEGIC>MOL_PROPERTY
Sum Probability
SciTegic.value.DoubleValue
99.80

@<SCITEGIC>MOL_PROPERTY
Delta G
SciTegic.value.DoubleValue
4.238

@<SCITEGIC>MOL_PROPERTY
G
SciTegic.value.DoubleValue
37.940

@<SCITEGIC>MOL_PROPERTY
E
SciTegic.value.DoubleValue
-0.005

@<SCITEGIC>MOL_PROPERTY
-TS
SciTegic.value.DoubleValue
37.945

@<SCITEGIC>MOL_PROPERTY
U+W
SciTegic.value.DoubleValue
-24.149

@<SCITEGIC>MOL_PROPERTY
U
SciTegic.value.DoubleValue
28.636

@<SCITEGIC>MOL_PROPERTY
W
SciTegic.value.DoubleValue
-52.785

@<SCITEGIC>MOL_PROPERTY
W(PB)
SciTegic.value.DoubleValue
-55.211

@<SCITEGIC>MOL_PROPERTY
W(SA)
SciTegic.value.DoubleValue
2.426

@<SCITEGIC>MOL_PROPERTY
Valence
SciTegic.value.DoubleValue
6.737

@<SCITEGIC>MOL_PROPERTY
Coulomb
SciTegic.value.DoubleValue
20.766

@<SCITEGIC>MOL_PROPERTY
VdW
SciTegic.value.DoubleValue
1.133

@<SCITEGIC>MOL_PROPERTY
VdW6
SciTegic.value.DoubleValue
-10.382

@<SCITEGIC>MOL_PROPERTY
VdW12
SciTegic.value.DoubleValue
11.516

@<SCITEGIC>MOL_PROPERTY
Bond
SciTegic.value.DoubleValue
0.321

@<SCITEGIC>MOL_PROPERTY
Angle
SciTegic.value.DoubleValue
1.947

@<SCITEGIC>MOL_PROPERTY
Pdih
SciTegic.value.DoubleValue
4.469

@<SCITEGIC>MOL_PROPERTY
Idih
SciTegic.value.DoubleValue
0.000

@<SCITEGIC>MOL_PROPERTY
Tether
SciTegic.value.DoubleValue
0.000

@<TRIPOS>MOLECULE
guest-s15_vm2.mol2 : vm2 ligand conformer 137
          29          28           1
SMALL
USER_CHARGES
 
@<TRIPOS>ATOM
       1    C1      18.668643   19.222620   20.114395 C.3        1 MOL1        -0.2426
       2    H1      18.563423   18.130311   20.139289 H          1 MOL1         0.0959
       3    H2      18.097144   19.648512   20.948327 H          1 MOL1         0.0959
       4    H3      18.210143   19.583214   19.184556 H          1 MOL1         0.0959
       5    C2      20.153655   19.640694   20.181100 C.3        1 MOL1        -0.1410
       6    H4      20.222337   20.737105   20.210323 H          1 MOL1         0.0948
       7    H5      20.649390   19.329494   19.250987 H          1 MOL1         0.0948
       8    C3      20.932779   19.039735   21.378739 C.3        1 MOL1        -0.1435
       9    H6      20.955462   17.943876   21.303265 H          1 MOL1         0.0948
      10    H7      21.978674   19.364283   21.288473 H          1 MOL1         0.0948
      11    C4      20.410768   19.473213   22.773244 C.3        1 MOL1        -0.1435
      12    H8      19.939761   20.463571   22.706964 H          1 MOL1         0.0948
      13    H9      21.275698   19.590608   23.439584 H          1 MOL1         0.0948
      14    C5      19.433267   18.450461   23.407103 C.3        1 MOL1        -0.1435
      15    H10     18.611860   18.237282   22.712977 H          1 MOL1         0.0948
      16    H11     19.948195   17.492614   23.558202 H          1 MOL1         0.0948
      17    C6      18.822490   18.940998   24.745112 C.3        1 MOL1        -0.1500
      18    H12     18.135891   18.173891   25.127045 H          1 MOL1         0.0948
      19    H13     18.205885   19.825894   24.539357 H          1 MOL1         0.0948
      20    C7      19.850733   19.298354   25.844165 C.3        1 MOL1         0.1162
      21    H14     20.526594   20.062772   25.449653 H          1 MOL1         0.0910
      22    C8      20.688580   18.079815   26.270433 C.3        1 MOL1        -0.2491
      23    H15     20.048132   17.262251   26.624055 H          1 MOL1         0.0959
      24    H16     21.296945   17.704985   25.439124 H          1 MOL1         0.0959
      25    H17     21.376768   18.348422   27.081307 H          1 MOL1         0.0959
      26    N1      19.175085   19.910110   27.039709 N.4        1 MOL1        -0.5987
      27    H18     18.521762   19.254078   27.476191 H          1 MOL1         0.3605
      28    H19     18.645256   20.748822   26.785360 H          1 MOL1         0.3605
      29    H20     19.855452   20.184495   27.754195 H          1 MOL1         0.3605
@<TRIPOS>BOND
    1     1     2    1
    2     1     3    1
    3     1     4    1
    4     1     5    1
    5     5     6    1
    6     5     7    1
    7     5     8    1
    8     8     9    1
    9     8    10    1
   10     8    11    1
   11    11    12    1
   12    11    13    1
   13    11    14    1
   14    14    15    1
   15    14    16    1
   16    14    17    1
   17    17    18    1
   18    17    19    1
   19    17    20    1
   20    20    21    1
   21    20    22    1
   22    22    23    1
   23    22    24    1
   24    22    25    1
   25    20    26    1
   26    26    27    1
   27    26    28    1
   28    26    29    1
@<TRIPOS>SUBSTRUCTURE
       1 MOL1            1 RESIDUE      1      MOL     
@<SCITEGIC>MOL_PROPERTY
VM2 Rank
SciTegic.value.IntegerValue
137

@<SCITEGIC>MOL_PROPERTY
Conf_Id
SciTegic.value.IntegerValue
1280

@<SCITEGIC>MOL_PROPERTY
Probability
SciTegic.value.DoubleValue
0.01

@<SCITEGIC>MOL_PROPERTY
Sum Probability
SciTegic.value.DoubleValue
99.81

@<SCITEGIC>MOL_PROPERTY
Delta G
SciTegic.value.DoubleValue
4.257

@<SCITEGIC>MOL_PROPERTY
G
SciTegic.value.DoubleValue
37.959

@<SCITEGIC>MOL_PROPERTY
E
SciTegic.value.DoubleValue
-0.103

@<SCITEGIC>MOL_PROPERTY
-TS
SciTegic.value.DoubleValue
38.061

@<SCITEGIC>MOL_PROPERTY
U+W
SciTegic.value.DoubleValue
-24.247

@<SCITEGIC>MOL_PROPERTY
U
SciTegic.value.DoubleValue
28.141

@<SCITEGIC>MOL_PROPERTY
W
SciTegic.value.DoubleValue
-52.388

@<SCITEGIC>MOL_PROPERTY
W(PB)
SciTegic.value.DoubleValue
-54.810

@<SCITEGIC>MOL_PROPERTY
W(SA)
SciTegic.value.DoubleValue
2.422

@<SCITEGIC>MOL_PROPERTY
Valence
SciTegic.value.DoubleValue
6.970

@<SCITEGIC>MOL_PROPERTY
Coulomb
SciTegic.value.DoubleValue
20.047

@<SCITEGIC>MOL_PROPERTY
VdW
SciTegic.value.DoubleValue
1.125

@<SCITEGIC>MOL_PROPERTY
VdW6
SciTegic.value.DoubleValue
-10.616

@<SCITEGIC>MOL_PROPERTY
VdW12
SciTegic.value.DoubleValue
11.740

@<SCITEGIC>MOL_PROPERTY
Bond
SciTegic.value.DoubleValue
0.316

@<SCITEGIC>MOL_PROPERTY
Angle
SciTegic.value.DoubleValue
2.133

@<SCITEGIC>MOL_PROPERTY
Pdih
SciTegic.value.DoubleValue
4.521

@<SCITEGIC>MOL_PROPERTY
Idih
SciTegic.value.DoubleValue
0.000

@<SCITEGIC>MOL_PROPERTY
Tether
SciTegic.value.DoubleValue
0.000

@<TRIPOS>MOLECULE
guest-s15_vm2.mol2 : vm2 ligand conformer 138
          29          28           1
SMALL
USER_CHARGES
 
@<TRIPOS>ATOM
       1    C1      18.651687   20.379052   20.824893 C.3        1 MOL1        -0.2426
       2    H1      18.125571   20.902050   20.015869 H          1 MOL1         0.0959
       3    H2      17.913719   20.124522   21.596551 H          1 MOL1         0.0959
       4    H3      19.377089   21.082645   21.251159 H          1 MOL1         0.0959
       5    C2      19.351012   19.113468   20.283293 C.3        1 MOL1        -0.1410
       6    H4      20.134781   19.406182   19.570772 H          1 MOL1         0.0948
       7    H5      18.620695   18.527492   19.707984 H          1 MOL1         0.0948
       8    C3      19.957590   18.200600   21.379242 C.3        1 MOL1        -0.1435
       9    H6      19.160125   17.821937   22.029998 H          1 MOL1         0.0948
      10    H7      20.370703   17.315146   20.876743 H          1 MOL1         0.0948
      11    C4      21.095415   18.852961   22.211456 C.3        1 MOL1        -0.1435
      12    H8      21.625550   19.587383   21.589707 H          1 MOL1         0.0948
      13    H9      21.841042   18.083607   22.454951 H          1 MOL1         0.0948
      14    C5      20.642011   19.526184   23.533406 C.3        1 MOL1        -0.1435
      15    H10     21.487754   20.102282   23.933679 H          1 MOL1         0.0948
      16    H11     19.845282   20.250895   23.333653 H          1 MOL1         0.0948
      17    C6      20.180415   18.511530   24.611405 C.3        1 MOL1        -0.1500
      18    H12     20.964655   17.754742   24.745628 H          1 MOL1         0.0948
      19    H13     19.283517   17.977028   24.275425 H          1 MOL1         0.0948
      20    C7      19.894136   19.176890   25.974826 C.3        1 MOL1         0.1162
      21    H14     20.791417   19.720283   26.286648 H          1 MOL1         0.0910
      22    C8      19.582926   18.109575   27.036097 C.3        1 MOL1        -0.2491
      23    H15     18.686259   17.535474   26.770897 H          1 MOL1         0.0959
      24    H16     20.419709   17.407625   27.140074 H          1 MOL1         0.0959
      25    H17     19.414451   18.573645   28.015715 H          1 MOL1         0.0959
      26    N1      18.780809   20.185740   25.899382 N.4        1 MOL1        -0.5987
      27    H18     18.993944   20.927279   25.226862 H          1 MOL1         0.3605
      28    H19     18.618459   20.631781   26.806779 H          1 MOL1         0.3605
      29    H20     17.901447   19.749222   25.610176 H          1 MOL1         0.3605
@<TRIPOS>BOND
    1     1     2    1
    2     1     3    1
    3     1     4    1
    4     1     5    1
    5     5     6    1
    6     5     7    1
    7     5     8    1
    8     8     9    1
    9     8    10    1
   10     8    11    1
   11    11    12    1
   12    11    13    1
   13    11    14    1
   14    14    15    1
   15    14    16    1
   16    14    17    1
   17    17    18    1
   18    17    19    1
   19    17    20    1
   20    20    21    1
   21    20    22    1
   22    22    23    1
   23    22    24    1
   24    22    25    1
   25    20    26    1
   26    26    27    1
   27    26    28    1
   28    26    29    1
@<TRIPOS>SUBSTRUCTURE
       1 MOL1            1 RESIDUE      1      MOL     
@<SCITEGIC>MOL_PROPERTY
VM2 Rank
SciTegic.value.IntegerValue
138

@<SCITEGIC>MOL_PROPERTY
Conf_Id
SciTegic.value.IntegerValue
904

@<SCITEGIC>MOL_PROPERTY
Probability
SciTegic.value.DoubleValue
0.01

@<SCITEGIC>MOL_PROPERTY
Sum Probability
SciTegic.value.DoubleValue
99.82

@<SCITEGIC>MOL_PROPERTY
Delta G
SciTegic.value.DoubleValue
4.273

@<SCITEGIC>MOL_PROPERTY
G
SciTegic.value.DoubleValue
37.976

@<SCITEGIC>MOL_PROPERTY
E
SciTegic.value.DoubleValue
0.244

@<SCITEGIC>MOL_PROPERTY
-TS
SciTegic.value.DoubleValue
37.731

@<SCITEGIC>MOL_PROPERTY
U+W
SciTegic.value.DoubleValue
-23.900

@<SCITEGIC>MOL_PROPERTY
U
SciTegic.value.DoubleValue
28.595

@<SCITEGIC>MOL_PROPERTY
W
SciTegic.value.DoubleValue
-52.495

@<SCITEGIC>MOL_PROPERTY
W(PB)
SciTegic.value.DoubleValue
-54.944

@<SCITEGIC>MOL_PROPERTY
W(SA)
SciTegic.value.DoubleValue
2.449

@<SCITEGIC>MOL_PROPERTY
Valence
SciTegic.value.DoubleValue
6.844

@<SCITEGIC>MOL_PROPERTY
Coulomb
SciTegic.value.DoubleValue
20.557

@<SCITEGIC>MOL_PROPERTY
VdW
SciTegic.value.DoubleValue
1.194

@<SCITEGIC>MOL_PROPERTY
VdW6
SciTegic.value.DoubleValue
-10.197

@<SCITEGIC>MOL_PROPERTY
VdW12
SciTegic.value.DoubleValue
11.391

@<SCITEGIC>MOL_PROPERTY
Bond
SciTegic.value.DoubleValue
0.333

@<SCITEGIC>MOL_PROPERTY
Angle
SciTegic.value.DoubleValue
1.970

@<SCITEGIC>MOL_PROPERTY
Pdih
SciTegic.value.DoubleValue
4.541

@<SCITEGIC>MOL_PROPERTY
Idih
SciTegic.value.DoubleValue
0.000

@<SCITEGIC>MOL_PROPERTY
Tether
SciTegic.value.DoubleValue
0.000

@<TRIPOS>MOLECULE
guest-s15_vm2.mol2 : vm2 ligand conformer 139
          29          28           1
SMALL
USER_CHARGES
 
@<TRIPOS>ATOM
       1    C1      19.807949   19.587841   19.574926 C.3        1 MOL1        -0.2426
       2    H1      19.731571   18.493691   19.556135 H          1 MOL1         0.0959
       3    H2      18.799869   20.006010   19.456939 H          1 MOL1         0.0959
       4    H3      20.401355   19.891313   18.702746 H          1 MOL1         0.0959
       5    C2      20.468784   20.089475   20.878938 C.3        1 MOL1        -0.1410
       6    H4      20.639889   21.171718   20.793685 H          1 MOL1         0.0948
       7    H5      21.460615   19.629742   20.991401 H          1 MOL1         0.0948
       8    C3      19.620619   19.820407   22.145441 C.3        1 MOL1        -0.1435
       9    H6      20.106270   20.324627   22.987363 H          1 MOL1         0.0948
      10    H7      18.635264   20.292336   22.029848 H          1 MOL1         0.0948
      11    C4      19.442218   18.311853   22.456237 C.3        1 MOL1        -0.1435
      12    H8      20.420332   17.813971   22.504391 H          1 MOL1         0.0948
      13    H9      18.905919   17.846650   21.618934 H          1 MOL1         0.0948
      14    C5      18.634628   18.024682   23.749202 C.3        1 MOL1        -0.1435
      15    H10     17.846638   18.777220   23.885254 H          1 MOL1         0.0948
      16    H11     18.104602   17.072510   23.608082 H          1 MOL1         0.0948
      17    C6      19.494138   17.882984   25.034575 C.3        1 MOL1        -0.1500
      18    H12     20.222864   17.075595   24.883021 H          1 MOL1         0.0948
      19    H13     18.845398   17.553694   25.857147 H          1 MOL1         0.0948
      20    C7      20.243061   19.160324   25.469918 C.3        1 MOL1         0.1162
      21    H14     20.900048   19.470481   24.652970 H          1 MOL1         0.0910
      22    C8      21.118590   18.873853   26.700029 C.3        1 MOL1        -0.2491
      23    H15     21.682345   19.768465   26.991975 H          1 MOL1         0.0959
      24    H16     20.509673   18.558861   27.556724 H          1 MOL1         0.0959
      25    H17     21.843725   18.078938   26.485469 H          1 MOL1         0.0959
      26    N1      19.306013   20.304582   25.744734 N.4        1 MOL1        -0.5987
      27    H18     18.733758   20.520150   24.923975 H          1 MOL1         0.3605
      28    H19     19.816602   21.154724   26.000148 H          1 MOL1         0.3605
      29    H20     18.669493   20.085825   26.515848 H          1 MOL1         0.3605
@<TRIPOS>BOND
    1     1     2    1
    2     1     3    1
    3     1     4    1
    4     1     5    1
    5     5     6    1
    6     5     7    1
    7     5     8    1
    8     8     9    1
    9     8    10    1
   10     8    11    1
   11    11    12    1
   12    11    13    1
   13    11    14    1
   14    14    15    1
   15    14    16    1
   16    14    17    1
   17    17    18    1
   18    17    19    1
   19    17    20    1
   20    20    21    1
   21    20    22    1
   22    22    23    1
   23    22    24    1
   24    22    25    1
   25    20    26    1
   26    26    27    1
   27    26    28    1
   28    26    29    1
@<TRIPOS>SUBSTRUCTURE
       1 MOL1            1 RESIDUE      1      MOL     
@<SCITEGIC>MOL_PROPERTY
VM2 Rank
SciTegic.value.IntegerValue
139

@<SCITEGIC>MOL_PROPERTY
Conf_Id
SciTegic.value.IntegerValue
969

@<SCITEGIC>MOL_PROPERTY
Probability
SciTegic.value.DoubleValue
0.01

@<SCITEGIC>MOL_PROPERTY
Sum Probability
SciTegic.value.DoubleValue
99.83

@<SCITEGIC>MOL_PROPERTY
Delta G
SciTegic.value.DoubleValue
4.322

@<SCITEGIC>MOL_PROPERTY
G
SciTegic.value.DoubleValue
38.024

@<SCITEGIC>MOL_PROPERTY
E
SciTegic.value.DoubleValue
0.063

@<SCITEGIC>MOL_PROPERTY
-TS
SciTegic.value.DoubleValue
37.961

@<SCITEGIC>MOL_PROPERTY
U+W
SciTegic.value.DoubleValue
-24.081

@<SCITEGIC>MOL_PROPERTY
U
SciTegic.value.DoubleValue
28.340

@<SCITEGIC>MOL_PROPERTY
W
SciTegic.value.DoubleValue
-52.421

@<SCITEGIC>MOL_PROPERTY
W(PB)
SciTegic.value.DoubleValue
-54.864

@<SCITEGIC>MOL_PROPERTY
W(SA)
SciTegic.value.DoubleValue
2.443

@<SCITEGIC>MOL_PROPERTY
Valence
SciTegic.value.DoubleValue
6.427

@<SCITEGIC>MOL_PROPERTY
Coulomb
SciTegic.value.DoubleValue
21.044

@<SCITEGIC>MOL_PROPERTY
VdW
SciTegic.value.DoubleValue
0.869

@<SCITEGIC>MOL_PROPERTY
VdW6
SciTegic.value.DoubleValue
-10.613

@<SCITEGIC>MOL_PROPERTY
VdW12
SciTegic.value.DoubleValue
11.481

@<SCITEGIC>MOL_PROPERTY
Bond
SciTegic.value.DoubleValue
0.315

@<SCITEGIC>MOL_PROPERTY
Angle
SciTegic.value.DoubleValue
2.103

@<SCITEGIC>MOL_PROPERTY
Pdih
SciTegic.value.DoubleValue
4.009

@<SCITEGIC>MOL_PROPERTY
Idih
SciTegic.value.DoubleValue
0.000

@<SCITEGIC>MOL_PROPERTY
Tether
SciTegic.value.DoubleValue
0.000

@<TRIPOS>MOLECULE
guest-s15_vm2.mol2 : vm2 ligand conformer 140
          29          28           1
SMALL
USER_CHARGES
 
@<TRIPOS>ATOM
       1    C1      18.479940   18.318336   20.815680 C.3        1 MOL1        -0.2426
       2    H1      17.688147   19.044097   20.589251 H          1 MOL1         0.0959
       3    H2      18.341344   17.452661   20.155202 H          1 MOL1         0.0959
       4    H3      18.344507   17.971255   21.847275 H          1 MOL1         0.0959
       5    C2      19.879201   18.939923   20.606231 C.3        1 MOL1        -0.1410
       6    H4      20.012054   19.158944   19.537592 H          1 MOL1         0.0948
       7    H5      20.653528   18.203787   20.860494 H          1 MOL1         0.0948
       8    C3      20.099420   20.247905   21.408181 C.3        1 MOL1        -0.1435
       9    H6      21.096279   20.644563   21.171399 H          1 MOL1         0.0948
      10    H7      19.384269   21.004631   21.057440 H          1 MOL1         0.0948
      11    C4      19.964187   20.109215   22.946210 C.3        1 MOL1        -0.1435
      12    H8      18.935502   19.820734   23.190257 H          1 MOL1         0.0948
      13    H9      20.129337   21.097099   23.397601 H          1 MOL1         0.0948
      14    C5      20.963127   19.096550   23.559350 C.3        1 MOL1        -0.1435
      15    H10     20.713664   18.078818   23.232893 H          1 MOL1         0.0948
      16    H11     21.963208   19.302998   23.154138 H          1 MOL1         0.0948
      17    C6      21.060211   19.140637   25.110332 C.3        1 MOL1        -0.1500
      18    H12     21.426079   20.127316   25.423144 H          1 MOL1         0.0948
      19    H13     21.840462   18.431168   25.415875 H          1 MOL1         0.0948
      20    C7      19.779402   18.800681   25.914483 C.3        1 MOL1         0.1162
      21    H14     20.086431   18.671789   26.956984 H          1 MOL1         0.0910
      22    C8      19.132690   17.480516   25.460595 C.3        1 MOL1        -0.2491
      23    H15     18.320351   17.196985   26.140894 H          1 MOL1         0.0959
      24    H16     18.711976   17.561726   24.451428 H          1 MOL1         0.0959
      25    H17     19.868309   16.666634   25.462730 H          1 MOL1         0.0959
      26    N1      18.777822   19.922237   25.932938 N.4        1 MOL1        -0.5987
      27    H18     19.187971   20.783643   26.305062 H          1 MOL1         0.3605
      28    H19     17.969488   19.691157   26.517709 H          1 MOL1         0.3605
      29    H20     18.431903   20.125941   24.993069 H          1 MOL1         0.3605
@<TRIPOS>BOND
    1     1     2    1
    2     1     3    1
    3     1     4    1
    4     1     5    1
    5     5     6    1
    6     5     7    1
    7     5     8    1
    8     8     9    1
    9     8    10    1
   10     8    11    1
   11    11    12    1
   12    11    13    1
   13    11    14    1
   14    14    15    1
   15    14    16    1
   16    14    17    1
   17    17    18    1
   18    17    19    1
   19    17    20    1
   20    20    21    1
   21    20    22    1
   22    22    23    1
   23    22    24    1
   24    22    25    1
   25    20    26    1
   26    26    27    1
   27    26    28    1
   28    26    29    1
@<TRIPOS>SUBSTRUCTURE
       1 MOL1            1 RESIDUE      1      MOL     
@<SCITEGIC>MOL_PROPERTY
VM2 Rank
SciTegic.value.IntegerValue
140

@<SCITEGIC>MOL_PROPERTY
Conf_Id
SciTegic.value.IntegerValue
676

@<SCITEGIC>MOL_PROPERTY
Probability
SciTegic.value.DoubleValue
0.01

@<SCITEGIC>MOL_PROPERTY
Sum Probability
SciTegic.value.DoubleValue
99.83

@<SCITEGIC>MOL_PROPERTY
Delta G
SciTegic.value.DoubleValue
4.333

@<SCITEGIC>MOL_PROPERTY
G
SciTegic.value.DoubleValue
38.035

@<SCITEGIC>MOL_PROPERTY
E
SciTegic.value.DoubleValue
-0.462

@<SCITEGIC>MOL_PROPERTY
-TS
SciTegic.value.DoubleValue
38.497

@<SCITEGIC>MOL_PROPERTY
U+W
SciTegic.value.DoubleValue
-24.607

@<SCITEGIC>MOL_PROPERTY
U
SciTegic.value.DoubleValue
28.222

@<SCITEGIC>MOL_PROPERTY
W
SciTegic.value.DoubleValue
-52.828

@<SCITEGIC>MOL_PROPERTY
W(PB)
SciTegic.value.DoubleValue
-55.186

@<SCITEGIC>MOL_PROPERTY
W(SA)
SciTegic.value.DoubleValue
2.358

@<SCITEGIC>MOL_PROPERTY
Valence
SciTegic.value.DoubleValue
5.955

@<SCITEGIC>MOL_PROPERTY
Coulomb
SciTegic.value.DoubleValue
21.478

@<SCITEGIC>MOL_PROPERTY
VdW
SciTegic.value.DoubleValue
0.789

@<SCITEGIC>MOL_PROPERTY
VdW6
SciTegic.value.DoubleValue
-11.978

@<SCITEGIC>MOL_PROPERTY
VdW12
SciTegic.value.DoubleValue
12.767

@<SCITEGIC>MOL_PROPERTY
Bond
SciTegic.value.DoubleValue
0.372

@<SCITEGIC>MOL_PROPERTY
Angle
SciTegic.value.DoubleValue
2.690

@<SCITEGIC>MOL_PROPERTY
Pdih
SciTegic.value.DoubleValue
2.893

@<SCITEGIC>MOL_PROPERTY
Idih
SciTegic.value.DoubleValue
0.000

@<SCITEGIC>MOL_PROPERTY
Tether
SciTegic.value.DoubleValue
0.000

@<TRIPOS>MOLECULE
guest-s15_vm2.mol2 : vm2 ligand conformer 141
          29          28           1
SMALL
USER_CHARGES
 
@<TRIPOS>ATOM
       1    C1      20.306358   19.752056   19.662696 C.3        1 MOL1        -0.2426
       2    H1      21.317039   20.094175   19.920540 H          1 MOL1         0.0959
       3    H2      20.339131   18.666518   19.509703 H          1 MOL1         0.0959
       4    H3      20.031650   20.210793   18.704038 H          1 MOL1         0.0959
       5    C2      19.290173   20.144232   20.759474 C.3        1 MOL1        -0.1410
       6    H4      18.293809   19.762297   20.496560 H          1 MOL1         0.0948
       7    H5      19.203279   21.239574   20.781120 H          1 MOL1         0.0948
       8    C3      19.684841   19.652286   22.173086 C.3        1 MOL1        -0.1435
       9    H6      20.692005   20.014855   22.420414 H          1 MOL1         0.0948
      10    H7      18.994699   20.114203   22.889933 H          1 MOL1         0.0948
      11    C4      19.623130   18.112740   22.330771 C.3        1 MOL1        -0.1435
      12    H8      20.219821   17.639167   21.541099 H          1 MOL1         0.0948
      13    H9      18.589772   17.772842   22.177018 H          1 MOL1         0.0948
      14    C5      20.143837   17.583451   23.692413 C.3        1 MOL1        -0.1435
      15    H10     20.082460   16.486831   23.661984 H          1 MOL1         0.0948
      16    H11     21.211654   17.811623   23.795853 H          1 MOL1         0.0948
      17    C6      19.346273   18.070213   24.933439 C.3        1 MOL1        -0.1500
      18    H12     19.423474   17.312044   25.724090 H          1 MOL1         0.0948
      19    H13     18.281304   18.117546   24.670564 H          1 MOL1         0.0948
      20    C7      19.798650   19.430840   25.517231 C.3        1 MOL1         0.1162
      21    H14     19.878038   20.157097   24.705323 H          1 MOL1         0.0910
      22    C8      21.168681   19.332952   26.212613 C.3        1 MOL1        -0.2491
      23    H15     21.151313   18.591666   27.021243 H          1 MOL1         0.0959
      24    H16     21.958795   19.051215   25.507788 H          1 MOL1         0.0959
      25    H17     21.450784   20.300388   26.646001 H          1 MOL1         0.0959
      26    N1      18.774056   19.977231   26.472277 N.4        1 MOL1        -0.5987
      27    H18     18.642875   19.355609   27.274895 H          1 MOL1         0.3605
      28    H19     17.862027   20.093991   26.021337 H          1 MOL1         0.3605
      29    H20     19.053243   20.892332   26.837451 H          1 MOL1         0.3605
@<TRIPOS>BOND
    1     1     2    1
    2     1     3    1
    3     1     4    1
    4     1     5    1
    5     5     6    1
    6     5     7    1
    7     5     8    1
    8     8     9    1
    9     8    10    1
   10     8    11    1
   11    11    12    1
   12    11    13    1
   13    11    14    1
   14    14    15    1
   15    14    16    1
   16    14    17    1
   17    17    18    1
   18    17    19    1
   19    17    20    1
   20    20    21    1
   21    20    22    1
   22    22    23    1
   23    22    24    1
   24    22    25    1
   25    20    26    1
   26    26    27    1
   27    26    28    1
   28    26    29    1
@<TRIPOS>SUBSTRUCTURE
       1 MOL1            1 RESIDUE      1      MOL     
@<SCITEGIC>MOL_PROPERTY
VM2 Rank
SciTegic.value.IntegerValue
141

@<SCITEGIC>MOL_PROPERTY
Conf_Id
SciTegic.value.IntegerValue
343

@<SCITEGIC>MOL_PROPERTY
Probability
SciTegic.value.DoubleValue
0.01

@<SCITEGIC>MOL_PROPERTY
Sum Probability
SciTegic.value.DoubleValue
99.84

@<SCITEGIC>MOL_PROPERTY
Delta G
SciTegic.value.DoubleValue
4.336

@<SCITEGIC>MOL_PROPERTY
G
SciTegic.value.DoubleValue
38.038

@<SCITEGIC>MOL_PROPERTY
E
SciTegic.value.DoubleValue
0.298

@<SCITEGIC>MOL_PROPERTY
-TS
SciTegic.value.DoubleValue
37.740

@<SCITEGIC>MOL_PROPERTY
U+W
SciTegic.value.DoubleValue
-23.846

@<SCITEGIC>MOL_PROPERTY
U
SciTegic.value.DoubleValue
28.801

@<SCITEGIC>MOL_PROPERTY
W
SciTegic.value.DoubleValue
-52.647

@<SCITEGIC>MOL_PROPERTY
W(PB)
SciTegic.value.DoubleValue
-55.112

@<SCITEGIC>MOL_PROPERTY
W(SA)
SciTegic.value.DoubleValue
2.464

@<SCITEGIC>MOL_PROPERTY
Valence
SciTegic.value.DoubleValue
7.007

@<SCITEGIC>MOL_PROPERTY
Coulomb
SciTegic.value.DoubleValue
20.617

@<SCITEGIC>MOL_PROPERTY
VdW
SciTegic.value.DoubleValue
1.177

@<SCITEGIC>MOL_PROPERTY
VdW6
SciTegic.value.DoubleValue
-10.509

@<SCITEGIC>MOL_PROPERTY
VdW12
SciTegic.value.DoubleValue
11.686

@<SCITEGIC>MOL_PROPERTY
Bond
SciTegic.value.DoubleValue
0.329

@<SCITEGIC>MOL_PROPERTY
Angle
SciTegic.value.DoubleValue
2.380

@<SCITEGIC>MOL_PROPERTY
Pdih
SciTegic.value.DoubleValue
4.298

@<SCITEGIC>MOL_PROPERTY
Idih
SciTegic.value.DoubleValue
0.000

@<SCITEGIC>MOL_PROPERTY
Tether
SciTegic.value.DoubleValue
0.000

@<TRIPOS>MOLECULE
guest-s15_vm2.mol2 : vm2 ligand conformer 142
          29          28           1
SMALL
USER_CHARGES
 
@<TRIPOS>ATOM
       1    C1      18.701086   18.753325   20.042180 C.3        1 MOL1        -0.2426
       2    H1      18.697889   18.114652   19.149477 H          1 MOL1         0.0959
       3    H2      18.371742   18.138457   20.889100 H          1 MOL1         0.0959
       4    H3      17.963386   19.551358   19.887643 H          1 MOL1         0.0959
       5    C2      20.110531   19.339067   20.283587 C.3        1 MOL1        -0.1410
       6    H4      20.447713   19.838104   19.364397 H          1 MOL1         0.0948
       7    H5      20.825309   18.524404   20.459312 H          1 MOL1         0.0948
       8    C3      20.163870   20.363288   21.446293 C.3        1 MOL1        -0.1435
       9    H6      21.193243   20.734738   21.544178 H          1 MOL1         0.0948
      10    H7      19.555252   21.236077   21.172435 H          1 MOL1         0.0948
      11    C4      19.682389   19.840226   22.824919 C.3        1 MOL1        -0.1435
      12    H8      18.626693   19.544603   22.764450 H          1 MOL1         0.0948
      13    H9      19.732897   20.681825   23.525546 H          1 MOL1         0.0948
      14    C5      20.531354   18.666359   23.374547 C.3        1 MOL1        -0.1435
      15    H10     20.572928   17.866956   22.624147 H          1 MOL1         0.0948
      16    H11     21.567110   19.001971   23.521817 H          1 MOL1         0.0948
      17    C6      19.999991   18.037579   24.689727 C.3        1 MOL1        -0.1500
      18    H12     20.629333   17.163445   24.904048 H          1 MOL1         0.0948
      19    H13     18.985753   17.644964   24.538777 H          1 MOL1         0.0948
      20    C7      20.024793   18.977616   25.918363 C.3        1 MOL1         0.1162
      21    H14     20.930629   19.589494   25.867353 H          1 MOL1         0.0910
      22    C8      20.069588   18.158861   27.219182 C.3        1 MOL1        -0.2491
      23    H15     20.101967   18.820213   28.093858 H          1 MOL1         0.0959
      24    H16     19.187900   17.512208   27.311447 H          1 MOL1         0.0959
      25    H17     20.964166   17.524426   27.251220 H          1 MOL1         0.0959
      26    N1      18.852398   19.919679   25.955201 N.4        1 MOL1        -0.5987
      27    H18     18.914048   20.562008   26.750424 H          1 MOL1         0.3605
      28    H19     17.969332   19.409563   26.041903 H          1 MOL1         0.3605
      29    H20     18.798974   20.484764   25.104747 H          1 MOL1         0.3605
@<TRIPOS>BOND
    1     1     2    1
    2     1     3    1
    3     1     4    1
    4     1     5    1
    5     5     6    1
    6     5     7    1
    7     5     8    1
    8     8     9    1
    9     8    10    1
   10     8    11    1
   11    11    12    1
   12    11    13    1
   13    11    14    1
   14    14    15    1
   15    14    16    1
   16    14    17    1
   17    17    18    1
   18    17    19    1
   19    17    20    1
   20    20    21    1
   21    20    22    1
   22    22    23    1
   23    22    24    1
   24    22    25    1
   25    20    26    1
   26    26    27    1
   27    26    28    1
   28    26    29    1
@<TRIPOS>SUBSTRUCTURE
       1 MOL1            1 RESIDUE      1      MOL     
@<SCITEGIC>MOL_PROPERTY
VM2 Rank
SciTegic.value.IntegerValue
142

@<SCITEGIC>MOL_PROPERTY
Conf_Id
SciTegic.value.IntegerValue
645

@<SCITEGIC>MOL_PROPERTY
Probability
SciTegic.value.DoubleValue
0.01

@<SCITEGIC>MOL_PROPERTY
Sum Probability
SciTegic.value.DoubleValue
99.85

@<SCITEGIC>MOL_PROPERTY
Delta G
SciTegic.value.DoubleValue
4.368

@<SCITEGIC>MOL_PROPERTY
G
SciTegic.value.DoubleValue
38.070

@<SCITEGIC>MOL_PROPERTY
E
SciTegic.value.DoubleValue
0.333

@<SCITEGIC>MOL_PROPERTY
-TS
SciTegic.value.DoubleValue
37.737

@<SCITEGIC>MOL_PROPERTY
U+W
SciTegic.value.DoubleValue
-23.811

@<SCITEGIC>MOL_PROPERTY
U
SciTegic.value.DoubleValue
28.429

@<SCITEGIC>MOL_PROPERTY
W
SciTegic.value.DoubleValue
-52.240

@<SCITEGIC>MOL_PROPERTY
W(PB)
SciTegic.value.DoubleValue
-54.684

@<SCITEGIC>MOL_PROPERTY
W(SA)
SciTegic.value.DoubleValue
2.444

@<SCITEGIC>MOL_PROPERTY
Valence
SciTegic.value.DoubleValue
6.078

@<SCITEGIC>MOL_PROPERTY
Coulomb
SciTegic.value.DoubleValue
21.131

@<SCITEGIC>MOL_PROPERTY
VdW
SciTegic.value.DoubleValue
1.220

@<SCITEGIC>MOL_PROPERTY
VdW6
SciTegic.value.DoubleValue
-10.541

@<SCITEGIC>MOL_PROPERTY
VdW12
SciTegic.value.DoubleValue
11.761

@<SCITEGIC>MOL_PROPERTY
Bond
SciTegic.value.DoubleValue
0.334

@<SCITEGIC>MOL_PROPERTY
Angle
SciTegic.value.DoubleValue
2.388

@<SCITEGIC>MOL_PROPERTY
Pdih
SciTegic.value.DoubleValue
3.355

@<SCITEGIC>MOL_PROPERTY
Idih
SciTegic.value.DoubleValue
0.000

@<SCITEGIC>MOL_PROPERTY
Tether
SciTegic.value.DoubleValue
0.000

@<TRIPOS>MOLECULE
guest-s15_vm2.mol2 : vm2 ligand conformer 143
          29          28           1
SMALL
USER_CHARGES
 
@<TRIPOS>ATOM
       1    C1      19.508368   18.171695   19.931578 C.3        1 MOL1        -0.2426
       2    H1      20.460787   17.744339   19.591985 H          1 MOL1         0.0959
       3    H2      19.153121   17.572483   20.777182 H          1 MOL1         0.0959
       4    H3      18.783123   18.058849   19.115384 H          1 MOL1         0.0959
       5    C2      19.675532   19.663264   20.304324 C.3        1 MOL1        -0.1410
       6    H4      18.703540   20.102815   20.568100 H          1 MOL1         0.0948
       7    H5      20.016287   20.200005   19.407853 H          1 MOL1         0.0948
       8    C3      20.701481   19.900234   21.442306 C.3        1 MOL1        -0.1435
       9    H6      21.462876   19.108139   21.438726 H          1 MOL1         0.0948
      10    H7      21.243136   20.831308   21.225315 H          1 MOL1         0.0948
      11    C4      20.085000   20.039357   22.858185 C.3        1 MOL1        -0.1435
      12    H8      19.406273   20.903125   22.876763 H          1 MOL1         0.0948
      13    H9      20.899634   20.274575   23.555250 H          1 MOL1         0.0948
      14    C5      19.328648   18.780684   23.349667 C.3        1 MOL1        -0.1435
      15    H10     18.466364   18.600906   22.695166 H          1 MOL1         0.0948
      16    H11     19.973625   17.896938   23.259004 H          1 MOL1         0.0948
      17    C6      18.799952   18.910458   24.801901 C.3        1 MOL1        -0.1500
      18    H12     18.243670   17.999508   25.059744 H          1 MOL1         0.0948
      19    H13     18.070876   19.730853   24.833185 H          1 MOL1         0.0948
      20    C7      19.880636   19.166538   25.879078 C.3        1 MOL1         0.1162
      21    H14     20.415273   20.085496   25.622016 H          1 MOL1         0.0910
      22    C8      20.900369   18.016872   25.961715 C.3        1 MOL1        -0.2491
      23    H15     21.623382   18.198423   26.766426 H          1 MOL1         0.0959
      24    H16     20.403311   17.059134   26.159957 H          1 MOL1         0.0959
      25    H17     21.469506   17.922889   25.029502 H          1 MOL1         0.0959
      26    N1      19.256014   19.406898   27.225246 N.4        1 MOL1        -0.5987
      27    H18     18.604171   20.196502   27.202938 H          1 MOL1         0.3605
      28    H19     19.964474   19.616573   27.934328 H          1 MOL1         0.3605
      29    H20     18.734982   18.586855   27.547389 H          1 MOL1         0.3605
@<TRIPOS>BOND
    1     1     2    1
    2     1     3    1
    3     1     4    1
    4     1     5    1
    5     5     6    1
    6     5     7    1
    7     5     8    1
    8     8     9    1
    9     8    10    1
   10     8    11    1
   11    11    12    1
   12    11    13    1
   13    11    14    1
   14    14    15    1
   15    14    16    1
   16    14    17    1
   17    17    18    1
   18    17    19    1
   19    17    20    1
   20    20    21    1
   21    20    22    1
   22    22    23    1
   23    22    24    1
   24    22    25    1
   25    20    26    1
   26    26    27    1
   27    26    28    1
   28    26    29    1
@<TRIPOS>SUBSTRUCTURE
       1 MOL1            1 RESIDUE      1      MOL     
@<SCITEGIC>MOL_PROPERTY
VM2 Rank
SciTegic.value.IntegerValue
143

@<SCITEGIC>MOL_PROPERTY
Conf_Id
SciTegic.value.IntegerValue
144

@<SCITEGIC>MOL_PROPERTY
Probability
SciTegic.value.DoubleValue
0.01

@<SCITEGIC>MOL_PROPERTY
Sum Probability
SciTegic.value.DoubleValue
99.85

@<SCITEGIC>MOL_PROPERTY
Delta G
SciTegic.value.DoubleValue
4.394

@<SCITEGIC>MOL_PROPERTY
G
SciTegic.value.DoubleValue
38.096

@<SCITEGIC>MOL_PROPERTY
E
SciTegic.value.DoubleValue
0.103

@<SCITEGIC>MOL_PROPERTY
-TS
SciTegic.value.DoubleValue
37.994

@<SCITEGIC>MOL_PROPERTY
U+W
SciTegic.value.DoubleValue
-24.042

@<SCITEGIC>MOL_PROPERTY
U
SciTegic.value.DoubleValue
28.220

@<SCITEGIC>MOL_PROPERTY
W
SciTegic.value.DoubleValue
-52.262

@<SCITEGIC>MOL_PROPERTY
W(PB)
SciTegic.value.DoubleValue
-54.724

@<SCITEGIC>MOL_PROPERTY
W(SA)
SciTegic.value.DoubleValue
2.462

@<SCITEGIC>MOL_PROPERTY
Valence
SciTegic.value.DoubleValue
7.040

@<SCITEGIC>MOL_PROPERTY
Coulomb
SciTegic.value.DoubleValue
19.984

@<SCITEGIC>MOL_PROPERTY
VdW
SciTegic.value.DoubleValue
1.197

@<SCITEGIC>MOL_PROPERTY
VdW6
SciTegic.value.DoubleValue
-10.566

@<SCITEGIC>MOL_PROPERTY
VdW12
SciTegic.value.DoubleValue
11.763

@<SCITEGIC>MOL_PROPERTY
Bond
SciTegic.value.DoubleValue
0.320

@<SCITEGIC>MOL_PROPERTY
Angle
SciTegic.value.DoubleValue
2.280

@<SCITEGIC>MOL_PROPERTY
Pdih
SciTegic.value.DoubleValue
4.439

@<SCITEGIC>MOL_PROPERTY
Idih
SciTegic.value.DoubleValue
0.000

@<SCITEGIC>MOL_PROPERTY
Tether
SciTegic.value.DoubleValue
0.000

@<TRIPOS>MOLECULE
guest-s15_vm2.mol2 : vm2 ligand conformer 144
          29          28           1
SMALL
USER_CHARGES
 
@<TRIPOS>ATOM
       1    C1      20.838892   20.464824   20.640911 C.3        1 MOL1        -0.2426
       2    H1      21.148779   20.890306   19.677663 H          1 MOL1         0.0959
       3    H2      20.156502   21.181916   21.113570 H          1 MOL1         0.0959
       4    H3      21.733574   20.373600   21.270222 H          1 MOL1         0.0959
       5    C2      20.163877   19.090288   20.431900 C.3        1 MOL1        -0.1410
       6    H4      20.844745   18.445478   19.858875 H          1 MOL1         0.0948
       7    H5      19.262297   19.210338   19.815113 H          1 MOL1         0.0948
       8    C3      19.801691   18.377280   21.756609 C.3        1 MOL1        -0.1435
       9    H6      19.446997   17.364238   21.522183 H          1 MOL1         0.0948
      10    H7      20.711197   18.252660   22.357624 H          1 MOL1         0.0948
      11    C4      18.709476   19.115399   22.571780 C.3        1 MOL1        -0.1435
      12    H8      17.834208   19.270723   21.926173 H          1 MOL1         0.0948
      13    H9      19.048684   20.116987   22.861167 H          1 MOL1         0.0948
      14    C5      18.253043   18.335422   23.829586 C.3        1 MOL1        -0.1435
      15    H10     17.404997   18.865923   24.284290 H          1 MOL1         0.0948
      16    H11     17.859267   17.358878   23.515721 H          1 MOL1         0.0948
      17    C6      19.338627   18.109607   24.915798 C.3        1 MOL1        -0.1500
      18    H12     20.175513   17.522822   24.516540 H          1 MOL1         0.0948
      19    H13     18.886530   17.476472   25.690653 H          1 MOL1         0.0948
      20    C7      19.849984   19.413967   25.575852 C.3        1 MOL1         0.1162
      21    H14     19.096707   20.192967   25.423517 H          1 MOL1         0.0910
      22    C8      21.182213   19.887560   24.966584 C.3        1 MOL1        -0.2491
      23    H15     21.089199   20.083579   23.893838 H          1 MOL1         0.0959
      24    H16     21.513270   20.819480   25.441113 H          1 MOL1         0.0959
      25    H17     21.970555   19.137621   25.107298 H          1 MOL1         0.0959
      26    N1      19.998197   19.261655   27.064979 N.4        1 MOL1        -0.5987
      27    H18     20.689383   18.544228   27.300398 H          1 MOL1         0.3605
      28    H19     19.113297   18.994491   27.506086 H          1 MOL1         0.3605
      29    H20     20.304280   20.136018   27.501457 H          1 MOL1         0.3605
@<TRIPOS>BOND
    1     1     2    1
    2     1     3    1
    3     1     4    1
    4     1     5    1
    5     5     6    1
    6     5     7    1
    7     5     8    1
    8     8     9    1
    9     8    10    1
   10     8    11    1
   11    11    12    1
   12    11    13    1
   13    11    14    1
   14    14    15    1
   15    14    16    1
   16    14    17    1
   17    17    18    1
   18    17    19    1
   19    17    20    1
   20    20    21    1
   21    20    22    1
   22    22    23    1
   23    22    24    1
   24    22    25    1
   25    20    26    1
   26    26    27    1
   27    26    28    1
   28    26    29    1
@<TRIPOS>SUBSTRUCTURE
       1 MOL1            1 RESIDUE      1      MOL     
@<SCITEGIC>MOL_PROPERTY
VM2 Rank
SciTegic.value.IntegerValue
144

@<SCITEGIC>MOL_PROPERTY
Conf_Id
SciTegic.value.IntegerValue
1677

@<SCITEGIC>MOL_PROPERTY
Probability
SciTegic.value.DoubleValue
0.01

@<SCITEGIC>MOL_PROPERTY
Sum Probability
SciTegic.value.DoubleValue
99.86

@<SCITEGIC>MOL_PROPERTY
Delta G
SciTegic.value.DoubleValue
4.416

@<SCITEGIC>MOL_PROPERTY
G
SciTegic.value.DoubleValue
38.118

@<SCITEGIC>MOL_PROPERTY
E
SciTegic.value.DoubleValue
-0.119

@<SCITEGIC>MOL_PROPERTY
-TS
SciTegic.value.DoubleValue
38.236

@<SCITEGIC>MOL_PROPERTY
U+W
SciTegic.value.DoubleValue
-24.263

@<SCITEGIC>MOL_PROPERTY
U
SciTegic.value.DoubleValue
28.334

@<SCITEGIC>MOL_PROPERTY
W
SciTegic.value.DoubleValue
-52.597

@<SCITEGIC>MOL_PROPERTY
W(PB)
SciTegic.value.DoubleValue
-54.973

@<SCITEGIC>MOL_PROPERTY
W(SA)
SciTegic.value.DoubleValue
2.376

@<SCITEGIC>MOL_PROPERTY
Valence
SciTegic.value.DoubleValue
7.422

@<SCITEGIC>MOL_PROPERTY
Coulomb
SciTegic.value.DoubleValue
20.098

@<SCITEGIC>MOL_PROPERTY
VdW
SciTegic.value.DoubleValue
0.814

@<SCITEGIC>MOL_PROPERTY
VdW6
SciTegic.value.DoubleValue
-11.202

@<SCITEGIC>MOL_PROPERTY
VdW12
SciTegic.value.DoubleValue
12.016

@<SCITEGIC>MOL_PROPERTY
Bond
SciTegic.value.DoubleValue
0.311

@<SCITEGIC>MOL_PROPERTY
Angle
SciTegic.value.DoubleValue
2.207

@<SCITEGIC>MOL_PROPERTY
Pdih
SciTegic.value.DoubleValue
4.904

@<SCITEGIC>MOL_PROPERTY
Idih
SciTegic.value.DoubleValue
0.000

@<SCITEGIC>MOL_PROPERTY
Tether
SciTegic.value.DoubleValue
0.000

@<TRIPOS>MOLECULE
guest-s15_vm2.mol2 : vm2 ligand conformer 145
          29          28           1
SMALL
USER_CHARGES
 
@<TRIPOS>ATOM
       1    C1      19.843496   17.714525   20.651849 C.3        1 MOL1        -0.2426
       2    H1      19.832285   17.060548   19.770353 H          1 MOL1         0.0959
       3    H2      20.866306   17.711183   21.047778 H          1 MOL1         0.0959
       4    H3      19.174190   17.277099   21.403944 H          1 MOL1         0.0959
       5    C2      19.395958   19.142017   20.269743 C.3        1 MOL1        -0.1410
       6    H4      18.453427   19.076017   19.708500 H          1 MOL1         0.0948
       7    H5      20.129842   19.582344   19.580409 H          1 MOL1         0.0948
       8    C3      19.181215   20.089551   21.477466 C.3        1 MOL1        -0.1435
       9    H6      18.812452   21.045883   21.081685 H          1 MOL1         0.0948
      10    H7      18.373350   19.705340   22.111878 H          1 MOL1         0.0948
      11    C4      20.458381   20.378899   22.312997 C.3        1 MOL1        -0.1435
      12    H8      20.416197   21.415645   22.674278 H          1 MOL1         0.0948
      13    H9      21.339384   20.333258   21.658226 H          1 MOL1         0.0948
      14    C5      20.673721   19.447360   23.534859 C.3        1 MOL1        -0.1435
      15    H10     20.663875   18.400168   23.214708 H          1 MOL1         0.0948
      16    H11     21.678215   19.635567   23.938307 H          1 MOL1         0.0948
      17    C6      19.635983   19.668119   24.666338 C.3        1 MOL1        -0.1500
      18    H12     18.634247   19.377368   24.327184 H          1 MOL1         0.0948
      19    H13     19.589114   20.741157   24.893856 H          1 MOL1         0.0948
      20    C7      19.971617   18.906649   25.968807 C.3        1 MOL1         0.1162
      21    H14     20.987466   19.177240   26.272832 H          1 MOL1         0.0910
      22    C8      19.909365   17.380303   25.779446 C.3        1 MOL1        -0.2491
      23    H15     18.924082   17.065702   25.413441 H          1 MOL1         0.0959
      24    H16     20.667096   17.035488   25.066453 H          1 MOL1         0.0959
      25    H17     20.099837   16.865198   26.729034 H          1 MOL1         0.0959
      26    N1      19.066265   19.328578   27.092496 N.4        1 MOL1        -0.5987
      27    H18     19.310726   18.855547   27.967240 H          1 MOL1         0.3605
      28    H19     18.088138   19.106716   26.888196 H          1 MOL1         0.3605
      29    H20     19.123981   20.336449   27.264960 H          1 MOL1         0.3605
@<TRIPOS>BOND
    1     1     2    1
    2     1     3    1
    3     1     4    1
    4     1     5    1
    5     5     6    1
    6     5     7    1
    7     5     8    1
    8     8     9    1
    9     8    10    1
   10     8    11    1
   11    11    12    1
   12    11    13    1
   13    11    14    1
   14    14    15    1
   15    14    16    1
   16    14    17    1
   17    17    18    1
   18    17    19    1
   19    17    20    1
   20    20    21    1
   21    20    22    1
   22    22    23    1
   23    22    24    1
   24    22    25    1
   25    20    26    1
   26    26    27    1
   27    26    28    1
   28    26    29    1
@<TRIPOS>SUBSTRUCTURE
       1 MOL1            1 RESIDUE      1      MOL     
@<SCITEGIC>MOL_PROPERTY
VM2 Rank
SciTegic.value.IntegerValue
145

@<SCITEGIC>MOL_PROPERTY
Conf_Id
SciTegic.value.IntegerValue
1373

@<SCITEGIC>MOL_PROPERTY
Probability
SciTegic.value.DoubleValue
0.01

@<SCITEGIC>MOL_PROPERTY
Sum Probability
SciTegic.value.DoubleValue
99.87

@<SCITEGIC>MOL_PROPERTY
Delta G
SciTegic.value.DoubleValue
4.433

@<SCITEGIC>MOL_PROPERTY
G
SciTegic.value.DoubleValue
38.135

@<SCITEGIC>MOL_PROPERTY
E
SciTegic.value.DoubleValue
0.418

@<SCITEGIC>MOL_PROPERTY
-TS
SciTegic.value.DoubleValue
37.717

@<SCITEGIC>MOL_PROPERTY
U+W
SciTegic.value.DoubleValue
-23.726

@<SCITEGIC>MOL_PROPERTY
U
SciTegic.value.DoubleValue
28.594

@<SCITEGIC>MOL_PROPERTY
W
SciTegic.value.DoubleValue
-52.320

@<SCITEGIC>MOL_PROPERTY
W(PB)
SciTegic.value.DoubleValue
-54.753

@<SCITEGIC>MOL_PROPERTY
W(SA)
SciTegic.value.DoubleValue
2.433

@<SCITEGIC>MOL_PROPERTY
Valence
SciTegic.value.DoubleValue
7.358

@<SCITEGIC>MOL_PROPERTY
Coulomb
SciTegic.value.DoubleValue
19.931

@<SCITEGIC>MOL_PROPERTY
VdW
SciTegic.value.DoubleValue
1.305

@<SCITEGIC>MOL_PROPERTY
VdW6
SciTegic.value.DoubleValue
-10.397

@<SCITEGIC>MOL_PROPERTY
VdW12
SciTegic.value.DoubleValue
11.702

@<SCITEGIC>MOL_PROPERTY
Bond
SciTegic.value.DoubleValue
0.347

@<SCITEGIC>MOL_PROPERTY
Angle
SciTegic.value.DoubleValue
2.257

@<SCITEGIC>MOL_PROPERTY
Pdih
SciTegic.value.DoubleValue
4.753

@<SCITEGIC>MOL_PROPERTY
Idih
SciTegic.value.DoubleValue
0.000

@<SCITEGIC>MOL_PROPERTY
Tether
SciTegic.value.DoubleValue
0.000

@<TRIPOS>MOLECULE
guest-s15_vm2.mol2 : vm2 ligand conformer 146
          29          28           1
SMALL
USER_CHARGES
 
@<TRIPOS>ATOM
       1    C1      18.053642   19.532374   21.493418 C.3        1 MOL1        -0.2426
       2    H1      17.603059   18.533100   21.550817 H          1 MOL1         0.0959
       3    H2      18.207000   19.895993   22.514133 H          1 MOL1         0.0959
       4    H3      17.325292   20.198600   21.013309 H          1 MOL1         0.0959
       5    C2      19.369851   19.500762   20.682656 C.3        1 MOL1        -0.1410
       6    H4      19.800146   20.509566   20.615139 H          1 MOL1         0.0948
       7    H5      19.121709   19.209350   19.652439 H          1 MOL1         0.0948
       8    C3      20.421494   18.501886   21.231824 C.3        1 MOL1        -0.1435
       9    H6      19.927012   17.628720   21.677148 H          1 MOL1         0.0948
      10    H7      20.985653   18.107410   20.375439 H          1 MOL1         0.0948
      11    C4      21.455844   19.112967   22.215585 C.3        1 MOL1        -0.1435
      12    H8      21.991382   19.925884   21.706220 H          1 MOL1         0.0948
      13    H9      22.216249   18.352057   22.439055 H          1 MOL1         0.0948
      14    C5      20.889564   19.652591   23.552091 C.3        1 MOL1        -0.1435
      15    H10     21.721038   20.078718   24.130405 H          1 MOL1         0.0948
      16    H11     20.207097   20.486638   23.350889 H          1 MOL1         0.0948
      17    C6      20.194930   18.563080   24.408677 C.3        1 MOL1        -0.1500
      18    H12     20.888184   17.721573   24.539128 H          1 MOL1         0.0948
      19    H13     19.317682   18.166012   23.883419 H          1 MOL1         0.0948
      20    C7      19.767976   19.076741   25.800314 C.3        1 MOL1         0.1162
      21    H14     20.651842   19.482678   26.301912 H          1 MOL1         0.0910
      22    C8      19.217957   17.920939   26.651012 C.3        1 MOL1        -0.2491
      23    H15     18.325591   17.478647   26.190587 H          1 MOL1         0.0959
      24    H16     19.969853   17.130443   26.767253 H          1 MOL1         0.0959
      25    H17     18.946755   18.272088   27.654274 H          1 MOL1         0.0959
      26    N1      18.764741   20.194659   25.718423 N.4        1 MOL1        -0.5987
      27    H18     19.132881   20.987995   25.186714 H          1 MOL1         0.3605
      28    H19     18.514287   20.539644   26.649571 H          1 MOL1         0.3605
      29    H20     17.901416   19.887968   25.262572 H          1 MOL1         0.3605
@<TRIPOS>BOND
    1     1     2    1
    2     1     3    1
    3     1     4    1
    4     1     5    1
    5     5     6    1
    6     5     7    1
    7     5     8    1
    8     8     9    1
    9     8    10    1
   10     8    11    1
   11    11    12    1
   12    11    13    1
   13    11    14    1
   14    14    15    1
   15    14    16    1
   16    14    17    1
   17    17    18    1
   18    17    19    1
   19    17    20    1
   20    20    21    1
   21    20    22    1
   22    22    23    1
   23    22    24    1
   24    22    25    1
   25    20    26    1
   26    26    27    1
   27    26    28    1
   28    26    29    1
@<TRIPOS>SUBSTRUCTURE
       1 MOL1            1 RESIDUE      1      MOL     
@<SCITEGIC>MOL_PROPERTY
VM2 Rank
SciTegic.value.IntegerValue
146

@<SCITEGIC>MOL_PROPERTY
Conf_Id
SciTegic.value.IntegerValue
332

@<SCITEGIC>MOL_PROPERTY
Probability
SciTegic.value.DoubleValue
0.01

@<SCITEGIC>MOL_PROPERTY
Sum Probability
SciTegic.value.DoubleValue
99.87

@<SCITEGIC>MOL_PROPERTY
Delta G
SciTegic.value.DoubleValue
4.509

@<SCITEGIC>MOL_PROPERTY
G
SciTegic.value.DoubleValue
38.211

@<SCITEGIC>MOL_PROPERTY
E
SciTegic.value.DoubleValue
-0.041

@<SCITEGIC>MOL_PROPERTY
-TS
SciTegic.value.DoubleValue
38.252

@<SCITEGIC>MOL_PROPERTY
U+W
SciTegic.value.DoubleValue
-24.185

@<SCITEGIC>MOL_PROPERTY
U
SciTegic.value.DoubleValue
28.510

@<SCITEGIC>MOL_PROPERTY
W
SciTegic.value.DoubleValue
-52.695

@<SCITEGIC>MOL_PROPERTY
W(PB)
SciTegic.value.DoubleValue
-55.107

@<SCITEGIC>MOL_PROPERTY
W(SA)
SciTegic.value.DoubleValue
2.412

@<SCITEGIC>MOL_PROPERTY
Valence
SciTegic.value.DoubleValue
6.729

@<SCITEGIC>MOL_PROPERTY
Coulomb
SciTegic.value.DoubleValue
21.118

@<SCITEGIC>MOL_PROPERTY
VdW
SciTegic.value.DoubleValue
0.663

@<SCITEGIC>MOL_PROPERTY
VdW6
SciTegic.value.DoubleValue
-11.042

@<SCITEGIC>MOL_PROPERTY
VdW12
SciTegic.value.DoubleValue
11.705

@<SCITEGIC>MOL_PROPERTY
Bond
SciTegic.value.DoubleValue
0.323

@<SCITEGIC>MOL_PROPERTY
Angle
SciTegic.value.DoubleValue
2.297

@<SCITEGIC>MOL_PROPERTY
Pdih
SciTegic.value.DoubleValue
4.110

@<SCITEGIC>MOL_PROPERTY
Idih
SciTegic.value.DoubleValue
0.000

@<SCITEGIC>MOL_PROPERTY
Tether
SciTegic.value.DoubleValue
0.000

@<TRIPOS>MOLECULE
guest-s15_vm2.mol2 : vm2 ligand conformer 147
          29          28           1
SMALL
USER_CHARGES
 
@<TRIPOS>ATOM
       1    C1      19.675834   18.069664   19.962206 C.3        1 MOL1        -0.2426
       2    H1      20.686648   18.300569   19.601702 H          1 MOL1         0.0959
       3    H2      19.757421   17.321404   20.760295 H          1 MOL1         0.0959
       4    H3      19.120940   17.609664   19.134312 H          1 MOL1         0.0959
       5    C2      18.955763   19.346261   20.452388 C.3        1 MOL1        -0.1410
       6    H4      17.959868   19.084227   20.836069 H          1 MOL1         0.0948
       7    H5      18.789102   20.011014   19.593275 H          1 MOL1         0.0948
       8    C3      19.746314   20.121427   21.533883 C.3        1 MOL1        -0.1435
       9    H6      20.729790   20.405749   21.134919 H          1 MOL1         0.0948
      10    H7      19.216352   21.059805   21.748157 H          1 MOL1         0.0948
      11    C4      19.925807   19.329576   22.851096 C.3        1 MOL1        -0.1435
      12    H8      20.527874   18.430321   22.666285 H          1 MOL1         0.0948
      13    H9      18.939767   18.999252   23.198483 H          1 MOL1         0.0948
      14    C5      20.609522   20.184842   23.942987 C.3        1 MOL1        -0.1435
      15    H10     21.512670   20.640705   23.514162 H          1 MOL1         0.0948
      16    H11     19.956799   21.024369   24.217334 H          1 MOL1         0.0948
      17    C6      21.036714   19.402942   25.217737 C.3        1 MOL1        -0.1500
      18    H12     21.551576   20.113119   25.877908 H          1 MOL1         0.0948
      19    H13     21.795427   18.654576   24.953321 H          1 MOL1         0.0948
      20    C7      19.915834   18.731664   26.053174 C.3        1 MOL1         0.1162
      21    H14     20.298884   18.641206   27.074358 H          1 MOL1         0.0910
      22    C8      19.599060   17.300168   25.581949 C.3        1 MOL1        -0.2491
      23    H15     18.897205   16.818249   26.273545 H          1 MOL1         0.0959
      24    H16     19.150201   17.276139   24.584673 H          1 MOL1         0.0959
      25    H17     20.509344   16.688386   25.559676 H          1 MOL1         0.0959
      26    N1      18.671152   19.569455   26.158581 N.4        1 MOL1        -0.5987
      27    H18     18.248367   19.716694   25.238733 H          1 MOL1         0.3605
      28    H19     18.874711   20.491073   26.555890 H          1 MOL1         0.3605
      29    H20     17.969075   19.124954   26.757039 H          1 MOL1         0.3605
@<TRIPOS>BOND
    1     1     2    1
    2     1     3    1
    3     1     4    1
    4     1     5    1
    5     5     6    1
    6     5     7    1
    7     5     8    1
    8     8     9    1
    9     8    10    1
   10     8    11    1
   11    11    12    1
   12    11    13    1
   13    11    14    1
   14    14    15    1
   15    14    16    1
   16    14    17    1
   17    17    18    1
   18    17    19    1
   19    17    20    1
   20    20    21    1
   21    20    22    1
   22    22    23    1
   23    22    24    1
   24    22    25    1
   25    20    26    1
   26    26    27    1
   27    26    28    1
   28    26    29    1
@<TRIPOS>SUBSTRUCTURE
       1 MOL1            1 RESIDUE      1      MOL     
@<SCITEGIC>MOL_PROPERTY
VM2 Rank
SciTegic.value.IntegerValue
147

@<SCITEGIC>MOL_PROPERTY
Conf_Id
SciTegic.value.IntegerValue
1007

@<SCITEGIC>MOL_PROPERTY
Probability
SciTegic.value.DoubleValue
0.01

@<SCITEGIC>MOL_PROPERTY
Sum Probability
SciTegic.value.DoubleValue
99.88

@<SCITEGIC>MOL_PROPERTY
Delta G
SciTegic.value.DoubleValue
4.520

@<SCITEGIC>MOL_PROPERTY
G
SciTegic.value.DoubleValue
38.222

@<SCITEGIC>MOL_PROPERTY
E
SciTegic.value.DoubleValue
0.214

@<SCITEGIC>MOL_PROPERTY
-TS
SciTegic.value.DoubleValue
38.008

@<SCITEGIC>MOL_PROPERTY
U+W
SciTegic.value.DoubleValue
-23.931

@<SCITEGIC>MOL_PROPERTY
U
SciTegic.value.DoubleValue
28.480

@<SCITEGIC>MOL_PROPERTY
W
SciTegic.value.DoubleValue
-52.410

@<SCITEGIC>MOL_PROPERTY
W(PB)
SciTegic.value.DoubleValue
-54.831

@<SCITEGIC>MOL_PROPERTY
W(SA)
SciTegic.value.DoubleValue
2.421

@<SCITEGIC>MOL_PROPERTY
Valence
SciTegic.value.DoubleValue
6.763

@<SCITEGIC>MOL_PROPERTY
Coulomb
SciTegic.value.DoubleValue
20.530

@<SCITEGIC>MOL_PROPERTY
VdW
SciTegic.value.DoubleValue
1.187

@<SCITEGIC>MOL_PROPERTY
VdW6
SciTegic.value.DoubleValue
-10.594

@<SCITEGIC>MOL_PROPERTY
VdW12
SciTegic.value.DoubleValue
11.781

@<SCITEGIC>MOL_PROPERTY
Bond
SciTegic.value.DoubleValue
0.333

@<SCITEGIC>MOL_PROPERTY
Angle
SciTegic.value.DoubleValue
2.588

@<SCITEGIC>MOL_PROPERTY
Pdih
SciTegic.value.DoubleValue
3.843

@<SCITEGIC>MOL_PROPERTY
Idih
SciTegic.value.DoubleValue
0.000

@<SCITEGIC>MOL_PROPERTY
Tether
SciTegic.value.DoubleValue
0.000

@<TRIPOS>MOLECULE
guest-s15_vm2.mol2 : vm2 ligand conformer 148
          29          28           1
SMALL
USER_CHARGES
 
@<TRIPOS>ATOM
       1    C1      18.966448   17.924594   20.731342 C.3        1 MOL1        -0.2426
       2    H1      18.107230   18.332462   21.277650 H          1 MOL1         0.0959
       3    H2      18.573372   17.376477   19.865377 H          1 MOL1         0.0959
       4    H3      19.484055   17.204730   21.378507 H          1 MOL1         0.0959
       5    C2      19.921415   19.047225   20.270880 C.3        1 MOL1        -0.1410
       6    H4      19.358285   19.789178   19.687744 H          1 MOL1         0.0948
       7    H5      20.662284   18.617889   19.582048 H          1 MOL1         0.0948
       8    C3      20.676759   19.755245   21.424377 C.3        1 MOL1        -0.1435
       9    H6      21.320571   19.034448   21.942821 H          1 MOL1         0.0948
      10    H7      21.360443   20.485396   20.969805 H          1 MOL1         0.0948
      11    C4      19.764846   20.512885   22.428039 C.3        1 MOL1        -0.1435
      12    H8      18.862858   20.861848   21.906861 H          1 MOL1         0.0948
      13    H9      20.282061   21.423952   22.759073 H          1 MOL1         0.0948
      14    C5      19.354051   19.701950   23.684962 C.3        1 MOL1        -0.1435
      15    H10     18.557233   20.255104   24.198852 H          1 MOL1         0.0948
      16    H11     18.918014   18.742866   23.385699 H          1 MOL1         0.0948
      17    C6      20.530740   19.468072   24.672287 C.3        1 MOL1        -0.1500
      18    H12     20.989252   20.433789   24.921867 H          1 MOL1         0.0948
      19    H13     21.316805   18.878669   24.185279 H          1 MOL1         0.0948
      20    C7      20.140461   18.758200   25.990208 C.3        1 MOL1         0.1162
      21    H14     21.047520   18.679628   26.597517 H          1 MOL1         0.0910
      22    C8      19.619674   17.331131   25.745577 C.3        1 MOL1        -0.2491
      23    H15     19.482705   16.804563   26.698017 H          1 MOL1         0.0959
      24    H16     18.655399   17.334862   25.223686 H          1 MOL1         0.0959
      25    H17     20.333442   16.753091   25.145575 H          1 MOL1         0.0959
      26    N1      19.161606   19.556698   26.806329 N.4        1 MOL1        -0.5987
      27    H18     19.520013   20.493996   27.010549 H          1 MOL1         0.3605
      28    H19     18.963653   19.102477   27.702496 H          1 MOL1         0.3605
      29    H20     18.271379   19.667060   26.314648 H          1 MOL1         0.3605
@<TRIPOS>BOND
    1     1     2    1
    2     1     3    1
    3     1     4    1
    4     1     5    1
    5     5     6    1
    6     5     7    1
    7     5     8    1
    8     8     9    1
    9     8    10    1
   10     8    11    1
   11    11    12    1
   12    11    13    1
   13    11    14    1
   14    14    15    1
   15    14    16    1
   16    14    17    1
   17    17    18    1
   18    17    19    1
   19    17    20    1
   20    20    21    1
   21    20    22    1
   22    22    23    1
   23    22    24    1
   24    22    25    1
   25    20    26    1
   26    26    27    1
   27    26    28    1
   28    26    29    1
@<TRIPOS>SUBSTRUCTURE
       1 MOL1            1 RESIDUE      1      MOL     
@<SCITEGIC>MOL_PROPERTY
VM2 Rank
SciTegic.value.IntegerValue
148

@<SCITEGIC>MOL_PROPERTY
Conf_Id
SciTegic.value.IntegerValue
297

@<SCITEGIC>MOL_PROPERTY
Probability
SciTegic.value.DoubleValue
0.01

@<SCITEGIC>MOL_PROPERTY
Sum Probability
SciTegic.value.DoubleValue
99.88

@<SCITEGIC>MOL_PROPERTY
Delta G
SciTegic.value.DoubleValue
4.528

@<SCITEGIC>MOL_PROPERTY
G
SciTegic.value.DoubleValue
38.230

@<SCITEGIC>MOL_PROPERTY
E
SciTegic.value.DoubleValue
0.342

@<SCITEGIC>MOL_PROPERTY
-TS
SciTegic.value.DoubleValue
37.887

@<SCITEGIC>MOL_PROPERTY
U+W
SciTegic.value.DoubleValue
-23.802

@<SCITEGIC>MOL_PROPERTY
U
SciTegic.value.DoubleValue
28.700

@<SCITEGIC>MOL_PROPERTY
W
SciTegic.value.DoubleValue
-52.502

@<SCITEGIC>MOL_PROPERTY
W(PB)
SciTegic.value.DoubleValue
-54.903

@<SCITEGIC>MOL_PROPERTY
W(SA)
SciTegic.value.DoubleValue
2.401

@<SCITEGIC>MOL_PROPERTY
Valence
SciTegic.value.DoubleValue
7.368

@<SCITEGIC>MOL_PROPERTY
Coulomb
SciTegic.value.DoubleValue
20.019

@<SCITEGIC>MOL_PROPERTY
VdW
SciTegic.value.DoubleValue
1.314

@<SCITEGIC>MOL_PROPERTY
VdW6
SciTegic.value.DoubleValue
-10.862

@<SCITEGIC>MOL_PROPERTY
VdW12
SciTegic.value.DoubleValue
12.175

@<SCITEGIC>MOL_PROPERTY
Bond
SciTegic.value.DoubleValue
0.376

@<SCITEGIC>MOL_PROPERTY
Angle
SciTegic.value.DoubleValue
2.260

@<SCITEGIC>MOL_PROPERTY
Pdih
SciTegic.value.DoubleValue
4.731

@<SCITEGIC>MOL_PROPERTY
Idih
SciTegic.value.DoubleValue
0.000

@<SCITEGIC>MOL_PROPERTY
Tether
SciTegic.value.DoubleValue
0.000

@<TRIPOS>MOLECULE
guest-s15_vm2.mol2 : vm2 ligand conformer 149
          29          28           1
SMALL
USER_CHARGES
 
@<TRIPOS>ATOM
       1    C1      20.314664   20.973537   20.877377 C.3        1 MOL1        -0.2426
       2    H1      19.867510   21.668363   21.600189 H          1 MOL1         0.0959
       3    H2      21.311992   21.352091   20.618477 H          1 MOL1         0.0959
       4    H3      19.702308   20.986690   19.966307 H          1 MOL1         0.0959
       5    C2      20.407855   19.548931   21.462742 C.3        1 MOL1        -0.1410
       6    H4      21.059134   19.568809   22.345224 H          1 MOL1         0.0948
       7    H5      20.888288   18.884271   20.731309 H          1 MOL1         0.0948
       8    C3      19.012202   18.992658   21.831089 C.3        1 MOL1        -0.1435
       9    H6      18.509667   19.659018   22.542994 H          1 MOL1         0.0948
      10    H7      18.383816   18.997360   20.929798 H          1 MOL1         0.0948
      11    C4      19.047719   17.547739   22.388657 C.3        1 MOL1        -0.1435
      12    H8      19.453529   16.883064   21.613575 H          1 MOL1         0.0948
      13    H9      18.015036   17.211673   22.555343 H          1 MOL1         0.0948
      14    C5      19.859355   17.334355   23.695391 C.3        1 MOL1        -0.1435
      15    H10     19.809676   16.263180   23.934751 H          1 MOL1         0.0948
      16    H11     20.922902   17.538272   23.524723 H          1 MOL1         0.0948
      17    C6      19.325978   18.116296   24.927423 C.3        1 MOL1        -0.1500
      18    H12     19.596707   17.568616   25.839916 H          1 MOL1         0.0948
      19    H13     18.228545   18.114769   24.895146 H          1 MOL1         0.0948
      20    C7      19.838117   19.570516   25.060987 C.3        1 MOL1         0.1162
      21    H14     19.727129   20.074890   24.098595 H          1 MOL1         0.0910
      22    C8      21.322032   19.621714   25.467839 C.3        1 MOL1        -0.2491
      23    H15     21.962885   19.143693   24.718832 H          1 MOL1         0.0959
      24    H16     21.658246   20.661044   25.568220 H          1 MOL1         0.0959
      25    H17     21.487075   19.117992   26.428418 H          1 MOL1         0.0959
      26    N1      19.008078   20.350253   26.042495 N.4        1 MOL1        -0.5987
      27    H18     18.020847   20.368982   25.770888 H          1 MOL1         0.3605
      28    H19     19.324278   21.321822   26.111319 H          1 MOL1         0.3605
      29    H20     19.061133   19.944956   26.980960 H          1 MOL1         0.3605
@<TRIPOS>BOND
    1     1     2    1
    2     1     3    1
    3     1     4    1
    4     1     5    1
    5     5     6    1
    6     5     7    1
    7     5     8    1
    8     8     9    1
    9     8    10    1
   10     8    11    1
   11    11    12    1
   12    11    13    1
   13    11    14    1
   14    14    15    1
   15    14    16    1
   16    14    17    1
   17    17    18    1
   18    17    19    1
   19    17    20    1
   20    20    21    1
   21    20    22    1
   22    22    23    1
   23    22    24    1
   24    22    25    1
   25    20    26    1
   26    26    27    1
   27    26    28    1
   28    26    29    1
@<TRIPOS>SUBSTRUCTURE
       1 MOL1            1 RESIDUE      1      MOL     
@<SCITEGIC>MOL_PROPERTY
VM2 Rank
SciTegic.value.IntegerValue
149

@<SCITEGIC>MOL_PROPERTY
Conf_Id
SciTegic.value.IntegerValue
1348

@<SCITEGIC>MOL_PROPERTY
Probability
SciTegic.value.DoubleValue
0.01

@<SCITEGIC>MOL_PROPERTY
Sum Probability
SciTegic.value.DoubleValue
99.89

@<SCITEGIC>MOL_PROPERTY
Delta G
SciTegic.value.DoubleValue
4.529

@<SCITEGIC>MOL_PROPERTY
G
SciTegic.value.DoubleValue
38.231

@<SCITEGIC>MOL_PROPERTY
E
SciTegic.value.DoubleValue
-0.345

@<SCITEGIC>MOL_PROPERTY
-TS
SciTegic.value.DoubleValue
38.575

@<SCITEGIC>MOL_PROPERTY
U+W
SciTegic.value.DoubleValue
-24.489

@<SCITEGIC>MOL_PROPERTY
U
SciTegic.value.DoubleValue
28.285

@<SCITEGIC>MOL_PROPERTY
W
SciTegic.value.DoubleValue
-52.774

@<SCITEGIC>MOL_PROPERTY
W(PB)
SciTegic.value.DoubleValue
-55.159

@<SCITEGIC>MOL_PROPERTY
W(SA)
SciTegic.value.DoubleValue
2.385

@<SCITEGIC>MOL_PROPERTY
Valence
SciTegic.value.DoubleValue
6.918

@<SCITEGIC>MOL_PROPERTY
Coulomb
SciTegic.value.DoubleValue
20.924

@<SCITEGIC>MOL_PROPERTY
VdW
SciTegic.value.DoubleValue
0.442

@<SCITEGIC>MOL_PROPERTY
VdW6
SciTegic.value.DoubleValue
-11.731

@<SCITEGIC>MOL_PROPERTY
VdW12
SciTegic.value.DoubleValue
12.173

@<SCITEGIC>MOL_PROPERTY
Bond
SciTegic.value.DoubleValue
0.331

@<SCITEGIC>MOL_PROPERTY
Angle
SciTegic.value.DoubleValue
2.608

@<SCITEGIC>MOL_PROPERTY
Pdih
SciTegic.value.DoubleValue
3.979

@<SCITEGIC>MOL_PROPERTY
Idih
SciTegic.value.DoubleValue
0.000

@<SCITEGIC>MOL_PROPERTY
Tether
SciTegic.value.DoubleValue
0.000

@<TRIPOS>MOLECULE
guest-s15_vm2.mol2 : vm2 ligand conformer 150
          29          28           1
SMALL
USER_CHARGES
 
@<TRIPOS>ATOM
       1    C1      20.925506   20.060067   20.677644 C.3        1 MOL1        -0.2426
       2    H1      22.008509   20.086655   20.501108 H          1 MOL1         0.0959
       3    H2      20.428541   20.424310   19.769207 H          1 MOL1         0.0959
       4    H3      20.704284   20.761643   21.490765 H          1 MOL1         0.0959
       5    C2      20.467418   18.623858   21.019423 C.3        1 MOL1        -0.1410
       6    H4      20.988056   18.259406   21.914004 H          1 MOL1         0.0948
       7    H5      20.776602   17.955664   20.203643 H          1 MOL1         0.0948
       8    C3      18.935326   18.497249   21.202081 C.3        1 MOL1        -0.1435
       9    H6      18.445623   18.794632   20.264608 H          1 MOL1         0.0948
      10    H7      18.683546   17.437396   21.344817 H          1 MOL1         0.0948
      11    C4      18.317361   19.319960   22.364827 C.3        1 MOL1        -0.1435
      12    H8      17.228424   19.182121   22.314798 H          1 MOL1         0.0948
      13    H9      18.479185   20.394768   22.209931 H          1 MOL1         0.0948
      14    C5      18.783855   18.894208   23.782008 C.3        1 MOL1        -0.1435
      15    H10     17.929913   18.998479   24.464127 H          1 MOL1         0.0948
      16    H11     19.042400   17.827497   23.778233 H          1 MOL1         0.0948
      17    C6      19.960581   19.748122   24.330117 C.3        1 MOL1        -0.1500
      18    H12     19.669270   20.806488   24.320751 H          1 MOL1         0.0948
      19    H13     20.826586   19.671513   23.664374 H          1 MOL1         0.0948
      20    C7      20.417063   19.382047   25.761995 C.3        1 MOL1         0.1162
      21    H14     21.212508   20.081300   26.037798 H          1 MOL1         0.0910
      22    C8      21.002270   17.960940   25.835349 C.3        1 MOL1        -0.2491
      23    H15     20.235032   17.196473   25.665124 H          1 MOL1         0.0959
      24    H16     21.794063   17.826188   25.088028 H          1 MOL1         0.0959
      25    H17     21.442916   17.778513   26.823139 H          1 MOL1         0.0959
      26    N1      19.326619   19.569549   26.780555 N.4        1 MOL1        -0.5987
      27    H18     18.961703   20.526277   26.767961 H          1 MOL1         0.3605
      28    H19     19.664528   19.382888   27.729013 H          1 MOL1         0.3605
      29    H20     18.541833   18.937484   26.604135 H          1 MOL1         0.3605
@<TRIPOS>BOND
    1     1     2    1
    2     1     3    1
    3     1     4    1
    4     1     5    1
    5     5     6    1
    6     5     7    1
    7     5     8    1
    8     8     9    1
    9     8    10    1
   10     8    11    1
   11    11    12    1
   12    11    13    1
   13    11    14    1
   14    14    15    1
   15    14    16    1
   16    14    17    1
   17    17    18    1
   18    17    19    1
   19    17    20    1
   20    20    21    1
   21    20    22    1
   22    22    23    1
   23    22    24    1
   24    22    25    1
   25    20    26    1
   26    26    27    1
   27    26    28    1
   28    26    29    1
@<TRIPOS>SUBSTRUCTURE
       1 MOL1            1 RESIDUE      1      MOL     
@<SCITEGIC>MOL_PROPERTY
VM2 Rank
SciTegic.value.IntegerValue
150

@<SCITEGIC>MOL_PROPERTY
Conf_Id
SciTegic.value.IntegerValue
639

@<SCITEGIC>MOL_PROPERTY
Probability
SciTegic.value.DoubleValue
0.01

@<SCITEGIC>MOL_PROPERTY
Sum Probability
SciTegic.value.DoubleValue
99.89

@<SCITEGIC>MOL_PROPERTY
Delta G
SciTegic.value.DoubleValue
4.549

@<SCITEGIC>MOL_PROPERTY
G
SciTegic.value.DoubleValue
38.251

@<SCITEGIC>MOL_PROPERTY
E
SciTegic.value.DoubleValue
-0.084

@<SCITEGIC>MOL_PROPERTY
-TS
SciTegic.value.DoubleValue
38.335

@<SCITEGIC>MOL_PROPERTY
U+W
SciTegic.value.DoubleValue
-24.228

@<SCITEGIC>MOL_PROPERTY
U
SciTegic.value.DoubleValue
28.401

@<SCITEGIC>MOL_PROPERTY
W
SciTegic.value.DoubleValue
-52.629

@<SCITEGIC>MOL_PROPERTY
W(PB)
SciTegic.value.DoubleValue
-55.018

@<SCITEGIC>MOL_PROPERTY
W(SA)
SciTegic.value.DoubleValue
2.388

@<SCITEGIC>MOL_PROPERTY
Valence
SciTegic.value.DoubleValue
7.299

@<SCITEGIC>MOL_PROPERTY
Coulomb
SciTegic.value.DoubleValue
20.102

@<SCITEGIC>MOL_PROPERTY
VdW
SciTegic.value.DoubleValue
1.000

@<SCITEGIC>MOL_PROPERTY
VdW6
SciTegic.value.DoubleValue
-11.395

@<SCITEGIC>MOL_PROPERTY
VdW12
SciTegic.value.DoubleValue
12.395

@<SCITEGIC>MOL_PROPERTY
Bond
SciTegic.value.DoubleValue
0.366

@<SCITEGIC>MOL_PROPERTY
Angle
SciTegic.value.DoubleValue
2.503

@<SCITEGIC>MOL_PROPERTY
Pdih
SciTegic.value.DoubleValue
4.430

@<SCITEGIC>MOL_PROPERTY
Idih
SciTegic.value.DoubleValue
0.000

@<SCITEGIC>MOL_PROPERTY
Tether
SciTegic.value.DoubleValue
0.000

@<TRIPOS>MOLECULE
guest-s15_vm2.mol2 : vm2 ligand conformer 151
          29          28           1
SMALL
USER_CHARGES
 
@<TRIPOS>ATOM
       1    C1      21.141812   18.215827   21.246727 C.3        1 MOL1        -0.2426
       2    H1      21.464374   17.337183   20.673348 H          1 MOL1         0.0959
       3    H2      21.966025   18.940668   21.236653 H          1 MOL1         0.0959
       4    H3      20.985168   17.892666   22.280629 H          1 MOL1         0.0959
       5    C2      19.862244   18.822987   20.626549 C.3        1 MOL1        -0.1410
       6    H4      19.050943   18.081920   20.625094 H          1 MOL1         0.0948
       7    H5      20.073053   19.041337   19.570271 H          1 MOL1         0.0948
       8    C3      19.393906   20.133436   21.311084 C.3        1 MOL1        -0.1435
       9    H6      20.256124   20.706112   21.676761 H          1 MOL1         0.0948
      10    H7      18.934839   20.766644   20.539343 H          1 MOL1         0.0948
      11    C4      18.337157   19.946407   22.433406 C.3        1 MOL1        -0.1435
      12    H8      17.454462   19.449511   22.007940 H          1 MOL1         0.0948
      13    H9      17.991531   20.938304   22.755597 H          1 MOL1         0.0948
      14    C5      18.797770   19.154707   23.682336 C.3        1 MOL1        -0.1435
      15    H10     17.939458   19.069286   24.361283 H          1 MOL1         0.0948
      16    H11     19.051944   18.128977   23.391324 H          1 MOL1         0.0948
      17    C6      19.979852   19.827419   24.432823 C.3        1 MOL1        -0.1500
      18    H12     19.713872   20.867756   24.660964 H          1 MOL1         0.0948
      19    H13     20.857390   19.878229   23.776981 H          1 MOL1         0.0948
      20    C7      20.395883   19.129292   25.748971 C.3        1 MOL1         0.1162
      21    H14     21.204948   19.720553   26.188928 H          1 MOL1         0.0910
      22    C8      20.937624   17.710207   25.504333 C.3        1 MOL1        -0.2491
      23    H15     20.156234   17.035180   25.135677 H          1 MOL1         0.0959
      24    H16     21.753957   17.725679   24.771780 H          1 MOL1         0.0959
      25    H17     21.335099   17.286055   26.434546 H          1 MOL1         0.0959
      26    N1      19.289753   19.115718   26.767771 N.4        1 MOL1        -0.5987
      27    H18     18.952455   20.061674   26.967882 H          1 MOL1         0.3605
      28    H19     19.602063   18.707892   27.653610 H          1 MOL1         0.3605
      29    H20     18.491301   18.566031   26.441073 H          1 MOL1         0.3605
@<TRIPOS>BOND
    1     1     2    1
    2     1     3    1
    3     1     4    1
    4     1     5    1
    5     5     6    1
    6     5     7    1
    7     5     8    1
    8     8     9    1
    9     8    10    1
   10     8    11    1
   11    11    12    1
   12    11    13    1
   13    11    14    1
   14    14    15    1
   15    14    16    1
   16    14    17    1
   17    17    18    1
   18    17    19    1
   19    17    20    1
   20    20    21    1
   21    20    22    1
   22    22    23    1
   23    22    24    1
   24    22    25    1
   25    20    26    1
   26    26    27    1
   27    26    28    1
   28    26    29    1
@<TRIPOS>SUBSTRUCTURE
       1 MOL1            1 RESIDUE      1      MOL     
@<SCITEGIC>MOL_PROPERTY
VM2 Rank
SciTegic.value.IntegerValue
151

@<SCITEGIC>MOL_PROPERTY
Conf_Id
SciTegic.value.IntegerValue
636

@<SCITEGIC>MOL_PROPERTY
Probability
SciTegic.value.DoubleValue
0.00

@<SCITEGIC>MOL_PROPERTY
Sum Probability
SciTegic.value.DoubleValue
99.90

@<SCITEGIC>MOL_PROPERTY
Delta G
SciTegic.value.DoubleValue
4.558

@<SCITEGIC>MOL_PROPERTY
G
SciTegic.value.DoubleValue
38.260

@<SCITEGIC>MOL_PROPERTY
E
SciTegic.value.DoubleValue
-0.240

@<SCITEGIC>MOL_PROPERTY
-TS
SciTegic.value.DoubleValue
38.500

@<SCITEGIC>MOL_PROPERTY
U+W
SciTegic.value.DoubleValue
-24.384

@<SCITEGIC>MOL_PROPERTY
U
SciTegic.value.DoubleValue
28.256

@<SCITEGIC>MOL_PROPERTY
W
SciTegic.value.DoubleValue
-52.640

@<SCITEGIC>MOL_PROPERTY
W(PB)
SciTegic.value.DoubleValue
-54.996

@<SCITEGIC>MOL_PROPERTY
W(SA)
SciTegic.value.DoubleValue
2.355

@<SCITEGIC>MOL_PROPERTY
Valence
SciTegic.value.DoubleValue
7.264

@<SCITEGIC>MOL_PROPERTY
Coulomb
SciTegic.value.DoubleValue
20.223

@<SCITEGIC>MOL_PROPERTY
VdW
SciTegic.value.DoubleValue
0.769

@<SCITEGIC>MOL_PROPERTY
VdW6
SciTegic.value.DoubleValue
-11.791

@<SCITEGIC>MOL_PROPERTY
VdW12
SciTegic.value.DoubleValue
12.559

@<SCITEGIC>MOL_PROPERTY
Bond
SciTegic.value.DoubleValue
0.367

@<SCITEGIC>MOL_PROPERTY
Angle
SciTegic.value.DoubleValue
2.657

@<SCITEGIC>MOL_PROPERTY
Pdih
SciTegic.value.DoubleValue
4.240

@<SCITEGIC>MOL_PROPERTY
Idih
SciTegic.value.DoubleValue
0.000

@<SCITEGIC>MOL_PROPERTY
Tether
SciTegic.value.DoubleValue
0.000

@<TRIPOS>MOLECULE
guest-s15_vm2.mol2 : vm2 ligand conformer 152
          29          28           1
SMALL
USER_CHARGES
 
@<TRIPOS>ATOM
       1    C1      19.989772   18.151953   19.696919 C.3        1 MOL1        -0.2426
       2    H1      19.344987   17.815829   18.874551 H          1 MOL1         0.0959
       3    H2      20.769822   18.796908   19.271734 H          1 MOL1         0.0959
       4    H3      20.475274   17.266734   20.128074 H          1 MOL1         0.0959
       5    C2      19.165979   18.906581   20.761615 C.3        1 MOL1        -0.1410
       6    H4      18.374410   18.247322   21.144508 H          1 MOL1         0.0948
       7    H5      18.664906   19.765549   20.293707 H          1 MOL1         0.0948
       8    C3      20.050896   19.391701   21.930720 C.3        1 MOL1        -0.1435
       9    H6      20.556279   18.527531   22.379494 H          1 MOL1         0.0948
      10    H7      20.838278   20.053347   21.544272 H          1 MOL1         0.0948
      11    C4      19.224981   20.144317   23.001409 C.3        1 MOL1        -0.1435
      12    H8      18.427480   19.501056   23.390901 H          1 MOL1         0.0948
      13    H9      18.712727   20.988551   22.519520 H          1 MOL1         0.0948
      14    C5      20.081995   20.701661   24.165182 C.3        1 MOL1        -0.1435
      15    H10     20.789935   21.431285   23.748437 H          1 MOL1         0.0948
      16    H11     19.435269   21.282080   24.836506 H          1 MOL1         0.0948
      17    C6      20.894000   19.664279   24.996183 C.3        1 MOL1        -0.1500
      18    H12     21.483243   20.232151   25.727956 H          1 MOL1         0.0948
      19    H13     21.639036   19.168554   24.361247 H          1 MOL1         0.0948
      20    C7      20.092690   18.601467   25.792912 C.3        1 MOL1         0.1162
      21    H14     20.737584   18.279111   26.616256 H          1 MOL1         0.0910
      22    C8      19.782288   17.338910   24.968606 C.3        1 MOL1        -0.2491
      23    H15     19.349499   16.562494   25.611223 H          1 MOL1         0.0959
      24    H16     19.071147   17.531696   24.160098 H          1 MOL1         0.0959
      25    H17     20.698243   16.926577   24.527879 H          1 MOL1         0.0959
      26    N1      18.853400   19.155132   26.440454 N.4        1 MOL1        -0.5987
      27    H18     19.074370   19.942101   27.057241 H          1 MOL1         0.3605
      28    H19     18.376395   18.446344   27.004939 H          1 MOL1         0.3605
      29    H20     18.190492   19.490616   25.737261 H          1 MOL1         0.3605
@<TRIPOS>BOND
    1     1     2    1
    2     1     3    1
    3     1     4    1
    4     1     5    1
    5     5     6    1
    6     5     7    1
    7     5     8    1
    8     8     9    1
    9     8    10    1
   10     8    11    1
   11    11    12    1
   12    11    13    1
   13    11    14    1
   14    14    15    1
   15    14    16    1
   16    14    17    1
   17    17    18    1
   18    17    19    1
   19    17    20    1
   20    20    21    1
   21    20    22    1
   22    22    23    1
   23    22    24    1
   24    22    25    1
   25    20    26    1
   26    26    27    1
   27    26    28    1
   28    26    29    1
@<TRIPOS>SUBSTRUCTURE
       1 MOL1            1 RESIDUE      1      MOL     
@<SCITEGIC>MOL_PROPERTY
VM2 Rank
SciTegic.value.IntegerValue
152

@<SCITEGIC>MOL_PROPERTY
Conf_Id
SciTegic.value.IntegerValue
1665

@<SCITEGIC>MOL_PROPERTY
Probability
SciTegic.value.DoubleValue
0.00

@<SCITEGIC>MOL_PROPERTY
Sum Probability
SciTegic.value.DoubleValue
99.90

@<SCITEGIC>MOL_PROPERTY
Delta G
SciTegic.value.DoubleValue
4.613

@<SCITEGIC>MOL_PROPERTY
G
SciTegic.value.DoubleValue
38.316

@<SCITEGIC>MOL_PROPERTY
E
SciTegic.value.DoubleValue
-0.134

@<SCITEGIC>MOL_PROPERTY
-TS
SciTegic.value.DoubleValue
38.449

@<SCITEGIC>MOL_PROPERTY
U+W
SciTegic.value.DoubleValue
-24.278

@<SCITEGIC>MOL_PROPERTY
U
SciTegic.value.DoubleValue
28.206

@<SCITEGIC>MOL_PROPERTY
W
SciTegic.value.DoubleValue
-52.484

@<SCITEGIC>MOL_PROPERTY
W(PB)
SciTegic.value.DoubleValue
-54.876

@<SCITEGIC>MOL_PROPERTY
W(SA)
SciTegic.value.DoubleValue
2.392

@<SCITEGIC>MOL_PROPERTY
Valence
SciTegic.value.DoubleValue
6.867

@<SCITEGIC>MOL_PROPERTY
Coulomb
SciTegic.value.DoubleValue
20.599

@<SCITEGIC>MOL_PROPERTY
VdW
SciTegic.value.DoubleValue
0.740

@<SCITEGIC>MOL_PROPERTY
VdW6
SciTegic.value.DoubleValue
-11.268

@<SCITEGIC>MOL_PROPERTY
VdW12
SciTegic.value.DoubleValue
12.008

@<SCITEGIC>MOL_PROPERTY
Bond
SciTegic.value.DoubleValue
0.355

@<SCITEGIC>MOL_PROPERTY
Angle
SciTegic.value.DoubleValue
2.995

@<SCITEGIC>MOL_PROPERTY
Pdih
SciTegic.value.DoubleValue
3.517

@<SCITEGIC>MOL_PROPERTY
Idih
SciTegic.value.DoubleValue
0.000

@<SCITEGIC>MOL_PROPERTY
Tether
SciTegic.value.DoubleValue
0.000

@<TRIPOS>MOLECULE
guest-s15_vm2.mol2 : vm2 ligand conformer 153
          29          28           1
SMALL
USER_CHARGES
 
@<TRIPOS>ATOM
       1    C1      19.352969   18.265841   19.935402 C.3        1 MOL1        -0.2426
       2    H1      20.267900   17.735810   19.640598 H          1 MOL1         0.0959
       3    H2      18.892656   17.721273   20.769259 H          1 MOL1         0.0959
       4    H3      18.654328   18.227029   19.089690 H          1 MOL1         0.0959
       5    C2      19.659116   19.731451   20.317798 C.3        1 MOL1        -0.1410
       6    H4      18.734171   20.234159   20.629974 H          1 MOL1         0.0948
       7    H5      20.001921   20.266322   19.421120 H          1 MOL1         0.0948
       8    C3      20.743293   19.869166   21.417172 C.3        1 MOL1        -0.1435
       9    H6      21.693876   19.482479   21.024755 H          1 MOL1         0.0948
      10    H7      20.912685   20.936431   21.615573 H          1 MOL1         0.0948
      11    C4      20.432495   19.150413   22.755761 C.3        1 MOL1        -0.1435
      12    H8      21.292822   19.299722   23.420714 H          1 MOL1         0.0948
      13    H9      20.356443   18.067679   22.590483 H          1 MOL1         0.0948
      14    C5      19.150448   19.667627   23.454438 C.3        1 MOL1        -0.1435
      15    H10     19.246670   20.745590   23.643949 H          1 MOL1         0.0948
      16    H11     18.292037   19.547496   22.781210 H          1 MOL1         0.0948
      17    C6      18.818408   18.940056   24.781892 C.3        1 MOL1        -0.1500
      18    H12     18.634220   17.874485   24.590080 H          1 MOL1         0.0948
      19    H13     17.864675   19.342793   25.147831 H          1 MOL1         0.0948
      20    C7      19.898418   19.114472   25.877065 C.3        1 MOL1         0.1162
      21    H14     20.529061   19.965486   25.602123 H          1 MOL1         0.0910
      22    C8      20.785400   17.862373   26.002107 C.3        1 MOL1        -0.2491
      23    H15     21.585554   18.027337   26.734108 H          1 MOL1         0.0959
      24    H16     20.199344   16.994728   26.330144 H          1 MOL1         0.0959
      25    H17     21.257637   17.607516   25.046768 H          1 MOL1         0.0959
      26    N1      19.295453   19.454600   27.212366 N.4        1 MOL1        -0.5987
      27    H18     20.018435   19.599684   27.923013 H          1 MOL1         0.3605
      28    H19     18.683059   18.706038   27.547814 H          1 MOL1         0.3605
      29    H20     18.737562   20.312298   27.165776 H          1 MOL1         0.3605
@<TRIPOS>BOND
    1     1     2    1
    2     1     3    1
    3     1     4    1
    4     1     5    1
    5     5     6    1
    6     5     7    1
    7     5     8    1
    8     8     9    1
    9     8    10    1
   10     8    11    1
   11    11    12    1
   12    11    13    1
   13    11    14    1
   14    14    15    1
   15    14    16    1
   16    14    17    1
   17    17    18    1
   18    17    19    1
   19    17    20    1
   20    20    21    1
   21    20    22    1
   22    22    23    1
   23    22    24    1
   24    22    25    1
   25    20    26    1
   26    26    27    1
   27    26    28    1
   28    26    29    1
@<TRIPOS>SUBSTRUCTURE
       1 MOL1            1 RESIDUE      1      MOL     
@<SCITEGIC>MOL_PROPERTY
VM2 Rank
SciTegic.value.IntegerValue
153

@<SCITEGIC>MOL_PROPERTY
Conf_Id
SciTegic.value.IntegerValue
685

@<SCITEGIC>MOL_PROPERTY
Probability
SciTegic.value.DoubleValue
0.00

@<SCITEGIC>MOL_PROPERTY
Sum Probability
SciTegic.value.DoubleValue
99.91

@<SCITEGIC>MOL_PROPERTY
Delta G
SciTegic.value.DoubleValue
4.616

@<SCITEGIC>MOL_PROPERTY
G
SciTegic.value.DoubleValue
38.319

@<SCITEGIC>MOL_PROPERTY
E
SciTegic.value.DoubleValue
0.424

@<SCITEGIC>MOL_PROPERTY
-TS
SciTegic.value.DoubleValue
37.895

@<SCITEGIC>MOL_PROPERTY
U+W
SciTegic.value.DoubleValue
-23.721

@<SCITEGIC>MOL_PROPERTY
U
SciTegic.value.DoubleValue
28.495

@<SCITEGIC>MOL_PROPERTY
W
SciTegic.value.DoubleValue
-52.216

@<SCITEGIC>MOL_PROPERTY
W(PB)
SciTegic.value.DoubleValue
-54.650

@<SCITEGIC>MOL_PROPERTY
W(SA)
SciTegic.value.DoubleValue
2.435

@<SCITEGIC>MOL_PROPERTY
Valence
SciTegic.value.DoubleValue
7.352

@<SCITEGIC>MOL_PROPERTY
Coulomb
SciTegic.value.DoubleValue
19.852

@<SCITEGIC>MOL_PROPERTY
VdW
SciTegic.value.DoubleValue
1.291

@<SCITEGIC>MOL_PROPERTY
VdW6
SciTegic.value.DoubleValue
-10.551

@<SCITEGIC>MOL_PROPERTY
VdW12
SciTegic.value.DoubleValue
11.842

@<SCITEGIC>MOL_PROPERTY
Bond
SciTegic.value.DoubleValue
0.310

@<SCITEGIC>MOL_PROPERTY
Angle
SciTegic.value.DoubleValue
2.054

@<SCITEGIC>MOL_PROPERTY
Pdih
SciTegic.value.DoubleValue
4.989

@<SCITEGIC>MOL_PROPERTY
Idih
SciTegic.value.DoubleValue
0.000

@<SCITEGIC>MOL_PROPERTY
Tether
SciTegic.value.DoubleValue
0.000

@<TRIPOS>MOLECULE
guest-s15_vm2.mol2 : vm2 ligand conformer 154
          29          28           1
SMALL
USER_CHARGES
 
@<TRIPOS>ATOM
       1    C1      20.059399   17.896781   20.645344 C.3        1 MOL1        -0.2426
       2    H1      21.047344   17.549439   20.974180 H          1 MOL1         0.0959
       3    H2      19.307983   17.485857   21.327211 H          1 MOL1         0.0959
       4    H3      19.869547   17.467868   19.652949 H          1 MOL1         0.0959
       5    C2      20.006709   19.440575   20.582141 C.3        1 MOL1        -0.1410
       6    H4      19.014066   19.773841   20.249048 H          1 MOL1         0.0948
       7    H5      20.710809   19.767147   19.804039 H          1 MOL1         0.0948
       8    C3      20.392703   20.141691   21.910659 C.3        1 MOL1        -0.1435
       9    H6      21.171672   19.572620   22.434621 H          1 MOL1         0.0948
      10    H7      20.861079   21.101805   21.653594 H          1 MOL1         0.0948
      11    C4      19.203133   20.456815   22.857499 C.3        1 MOL1        -0.1435
      12    H8      18.464555   21.058393   22.310115 H          1 MOL1         0.0948
      13    H9      19.564858   21.107346   23.664760 H          1 MOL1         0.0948
      14    C5      18.482378   19.233087   23.480491 C.3        1 MOL1        -0.1435
      15    H10     17.673291   19.596130   24.128095 H          1 MOL1         0.0948
      16    H11     17.978519   18.664119   22.689544 H          1 MOL1         0.0948
      17    C6      19.400183   18.283405   24.296356 C.3        1 MOL1        -0.1500
      18    H12     20.112867   17.797491   23.618848 H          1 MOL1         0.0948
      19    H13     18.790184   17.475437   24.721406 H          1 MOL1         0.0948
      20    C7      20.182800   18.983465   25.429013 C.3        1 MOL1         0.1162
      21    H14     20.783486   19.784291   24.987610 H          1 MOL1         0.0910
      22    C8      21.135350   17.991325   26.114393 C.3        1 MOL1        -0.2491
      23    H15     21.841112   17.565477   25.390312 H          1 MOL1         0.0959
      24    H16     21.721090   18.491870   26.895239 H          1 MOL1         0.0959
      25    H17     20.581819   17.165464   26.578557 H          1 MOL1         0.0959
      26    N1      19.273347   19.628855   26.438103 N.4        1 MOL1        -0.5987
      27    H18     18.656564   20.315428   25.995472 H          1 MOL1         0.3605
      28    H19     19.805211   20.115105   27.165545 H          1 MOL1         0.3605
      29    H20     18.680728   18.935453   26.902188 H          1 MOL1         0.3605
@<TRIPOS>BOND
    1     1     2    1
    2     1     3    1
    3     1     4    1
    4     1     5    1
    5     5     6    1
    6     5     7    1
    7     5     8    1
    8     8     9    1
    9     8    10    1
   10     8    11    1
   11    11    12    1
   12    11    13    1
   13    11    14    1
   14    14    15    1
   15    14    16    1
   16    14    17    1
   17    17    18    1
   18    17    19    1
   19    17    20    1
   20    20    21    1
   21    20    22    1
   22    22    23    1
   23    22    24    1
   24    22    25    1
   25    20    26    1
   26    26    27    1
   27    26    28    1
   28    26    29    1
@<TRIPOS>SUBSTRUCTURE
       1 MOL1            1 RESIDUE      1      MOL     
@<SCITEGIC>MOL_PROPERTY
VM2 Rank
SciTegic.value.IntegerValue
154

@<SCITEGIC>MOL_PROPERTY
Conf_Id
SciTegic.value.IntegerValue
273

@<SCITEGIC>MOL_PROPERTY
Probability
SciTegic.value.DoubleValue
0.00

@<SCITEGIC>MOL_PROPERTY
Sum Probability
SciTegic.value.DoubleValue
99.91

@<SCITEGIC>MOL_PROPERTY
Delta G
SciTegic.value.DoubleValue
4.644

@<SCITEGIC>MOL_PROPERTY
G
SciTegic.value.DoubleValue
38.346

@<SCITEGIC>MOL_PROPERTY
E
SciTegic.value.DoubleValue
-0.138

@<SCITEGIC>MOL_PROPERTY
-TS
SciTegic.value.DoubleValue
38.484

@<SCITEGIC>MOL_PROPERTY
U+W
SciTegic.value.DoubleValue
-24.282

@<SCITEGIC>MOL_PROPERTY
U
SciTegic.value.DoubleValue
28.185

@<SCITEGIC>MOL_PROPERTY
W
SciTegic.value.DoubleValue
-52.467

@<SCITEGIC>MOL_PROPERTY
W(PB)
SciTegic.value.DoubleValue
-54.850

@<SCITEGIC>MOL_PROPERTY
W(SA)
SciTegic.value.DoubleValue
2.383

@<SCITEGIC>MOL_PROPERTY
Valence
SciTegic.value.DoubleValue
7.006

@<SCITEGIC>MOL_PROPERTY
Coulomb
SciTegic.value.DoubleValue
20.604

@<SCITEGIC>MOL_PROPERTY
VdW
SciTegic.value.DoubleValue
0.575

@<SCITEGIC>MOL_PROPERTY
VdW6
SciTegic.value.DoubleValue
-11.912

@<SCITEGIC>MOL_PROPERTY
VdW12
SciTegic.value.DoubleValue
12.486

@<SCITEGIC>MOL_PROPERTY
Bond
SciTegic.value.DoubleValue
0.358

@<SCITEGIC>MOL_PROPERTY
Angle
SciTegic.value.DoubleValue
2.606

@<SCITEGIC>MOL_PROPERTY
Pdih
SciTegic.value.DoubleValue
4.042

@<SCITEGIC>MOL_PROPERTY
Idih
SciTegic.value.DoubleValue
0.000

@<SCITEGIC>MOL_PROPERTY
Tether
SciTegic.value.DoubleValue
0.000

@<TRIPOS>MOLECULE
guest-s15_vm2.mol2 : vm2 ligand conformer 155
          29          28           1
SMALL
USER_CHARGES
 
@<TRIPOS>ATOM
       1    C1      18.195438   18.916362   20.405656 C.3        1 MOL1        -0.2426
       2    H1      17.753659   19.916852   20.499800 H          1 MOL1         0.0959
       3    H2      17.765477   18.442219   19.513886 H          1 MOL1         0.0959
       4    H3      17.889322   18.321058   21.274723 H          1 MOL1         0.0959
       5    C2      19.734232   18.997280   20.285594 C.3        1 MOL1        -0.1410
       6    H4      19.989592   19.489985   19.337024 H          1 MOL1         0.0948
       7    H5      20.154186   17.983351   20.228097 H          1 MOL1         0.0948
       8    C3      20.402839   19.775696   21.444317 C.3        1 MOL1        -0.1435
       9    H6      21.473863   19.878209   21.221514 H          1 MOL1         0.0948
      10    H7      19.996224   20.795661   21.483819 H          1 MOL1         0.0948
      11    C4      20.234852   19.092624   22.822622 C.3        1 MOL1        -0.1435
      12    H8      20.603996   18.059363   22.766785 H          1 MOL1         0.0948
      13    H9      19.168970   19.047395   23.070599 H          1 MOL1         0.0948
      14    C5      20.990922   19.855262   23.935349 C.3        1 MOL1        -0.1435
      15    H10     22.023917   20.026630   23.602459 H          1 MOL1         0.0948
      16    H11     20.551967   20.854019   24.061605 H          1 MOL1         0.0948
      17    C6      21.054275   19.123230   25.306132 C.3        1 MOL1        -0.1500
      18    H12     21.658922   19.744916   25.979311 H          1 MOL1         0.0948
      19    H13     21.616866   18.186607   25.197319 H          1 MOL1         0.0948
      20    C7      19.711151   18.840291   26.028035 C.3        1 MOL1         0.1162
      21    H14     19.940097   18.765195   27.095590 H          1 MOL1         0.0910
      22    C8      19.091506   17.489798   25.623156 C.3        1 MOL1        -0.2491
      23    H15     18.213908   17.272049   26.244093 H          1 MOL1         0.0959
      24    H16     18.770261   17.471491   24.577662 H          1 MOL1         0.0959
      25    H17     19.808982   16.673458   25.772186 H          1 MOL1         0.0959
      26    N1      18.720786   19.965457   25.903139 N.4        1 MOL1        -0.5987
      27    H18     19.108792   20.844384   26.257593 H          1 MOL1         0.3605
      28    H19     17.864850   19.772333   26.431109 H          1 MOL1         0.3605
      29    H20     18.457213   20.116380   24.926251 H          1 MOL1         0.3605
@<TRIPOS>BOND
    1     1     2    1
    2     1     3    1
    3     1     4    1
    4     1     5    1
    5     5     6    1
    6     5     7    1
    7     5     8    1
    8     8     9    1
    9     8    10    1
   10     8    11    1
   11    11    12    1
   12    11    13    1
   13    11    14    1
   14    14    15    1
   15    14    16    1
   16    14    17    1
   17    17    18    1
   18    17    19    1
   19    17    20    1
   20    20    21    1
   21    20    22    1
   22    22    23    1
   23    22    24    1
   24    22    25    1
   25    20    26    1
   26    26    27    1
   27    26    28    1
   28    26    29    1
@<TRIPOS>SUBSTRUCTURE
       1 MOL1            1 RESIDUE      1      MOL     
@<SCITEGIC>MOL_PROPERTY
VM2 Rank
SciTegic.value.IntegerValue
155

@<SCITEGIC>MOL_PROPERTY
Conf_Id
SciTegic.value.IntegerValue
669

@<SCITEGIC>MOL_PROPERTY
Probability
SciTegic.value.DoubleValue
0.00

@<SCITEGIC>MOL_PROPERTY
Sum Probability
SciTegic.value.DoubleValue
99.92

@<SCITEGIC>MOL_PROPERTY
Delta G
SciTegic.value.DoubleValue
4.644

@<SCITEGIC>MOL_PROPERTY
G
SciTegic.value.DoubleValue
38.347

@<SCITEGIC>MOL_PROPERTY
E
SciTegic.value.DoubleValue
0.337

@<SCITEGIC>MOL_PROPERTY
-TS
SciTegic.value.DoubleValue
38.009

@<SCITEGIC>MOL_PROPERTY
U+W
SciTegic.value.DoubleValue
-23.807

@<SCITEGIC>MOL_PROPERTY
U
SciTegic.value.DoubleValue
28.617

@<SCITEGIC>MOL_PROPERTY
W
SciTegic.value.DoubleValue
-52.424

@<SCITEGIC>MOL_PROPERTY
W(PB)
SciTegic.value.DoubleValue
-54.854

@<SCITEGIC>MOL_PROPERTY
W(SA)
SciTegic.value.DoubleValue
2.430

@<SCITEGIC>MOL_PROPERTY
Valence
SciTegic.value.DoubleValue
6.761

@<SCITEGIC>MOL_PROPERTY
Coulomb
SciTegic.value.DoubleValue
20.675

@<SCITEGIC>MOL_PROPERTY
VdW
SciTegic.value.DoubleValue
1.180

@<SCITEGIC>MOL_PROPERTY
VdW6
SciTegic.value.DoubleValue
-10.633

@<SCITEGIC>MOL_PROPERTY
VdW12
SciTegic.value.DoubleValue
11.813

@<SCITEGIC>MOL_PROPERTY
Bond
SciTegic.value.DoubleValue
0.337

@<SCITEGIC>MOL_PROPERTY
Angle
SciTegic.value.DoubleValue
2.591

@<SCITEGIC>MOL_PROPERTY
Pdih
SciTegic.value.DoubleValue
3.833

@<SCITEGIC>MOL_PROPERTY
Idih
SciTegic.value.DoubleValue
0.000

@<SCITEGIC>MOL_PROPERTY
Tether
SciTegic.value.DoubleValue
0.000

@<TRIPOS>MOLECULE
guest-s15_vm2.mol2 : vm2 ligand conformer 156
          29          28           1
SMALL
USER_CHARGES
 
@<TRIPOS>ATOM
       1    C1      20.319326   19.874959   19.850986 C.3        1 MOL1        -0.2426
       2    H1      20.115853   20.655672   19.106735 H          1 MOL1         0.0959
       3    H2      21.021709   20.291772   20.583513 H          1 MOL1         0.0959
       4    H3      20.813049   19.040335   19.336618 H          1 MOL1         0.0959
       5    C2      19.007117   19.413701   20.524311 C.3        1 MOL1        -0.1410
       6    H4      18.294524   19.115893   19.742562 H          1 MOL1         0.0948
       7    H5      18.541689   20.259385   21.047976 H          1 MOL1         0.0948
       8    C3      19.199282   18.221463   21.495909 C.3        1 MOL1        -0.1435
       9    H6      18.219484   17.934519   21.901757 H          1 MOL1         0.0948
      10    H7      19.553859   17.352461   20.924774 H          1 MOL1         0.0948
      11    C4      20.176553   18.474918   22.672674 C.3        1 MOL1        -0.1435
      12    H8      21.187689   18.655065   22.284471 H          1 MOL1         0.0948
      13    H9      20.245560   17.552678   23.261263 H          1 MOL1         0.0948
      14    C5      19.751503   19.654227   23.584735 C.3        1 MOL1        -0.1435
      15    H10     19.805581   20.581487   22.999251 H          1 MOL1         0.0948
      16    H11     18.700542   19.543994   23.881026 H          1 MOL1         0.0948
      17    C6      20.659407   19.824956   24.834652 C.3        1 MOL1        -0.1500
      18    H12     20.775294   20.898693   25.032573 H          1 MOL1         0.0948
      19    H13     21.671663   19.461443   24.613787 H          1 MOL1         0.0948
      20    C7      20.148879   19.165343   26.139796 C.3        1 MOL1         0.1162
      21    H14     20.894878   19.366324   26.914913 H          1 MOL1         0.0910
      22    C8      20.004638   17.639481   26.022311 C.3        1 MOL1        -0.2491
      23    H15     19.780752   17.199324   27.001723 H          1 MOL1         0.0959
      24    H16     19.192597   17.364045   25.338841 H          1 MOL1         0.0959
      25    H17     20.935534   17.186541   25.659502 H          1 MOL1         0.0959
      26    N1      18.869295   19.786952   26.628626 N.4        1 MOL1        -0.5987
      27    H18     18.970225   20.797049   26.763450 H          1 MOL1         0.3605
      28    H19     18.577573   19.386223   27.524680 H          1 MOL1         0.3605
      29    H20     18.106506   19.639651   25.963217 H          1 MOL1         0.3605
@<TRIPOS>BOND
    1     1     2    1
    2     1     3    1
    3     1     4    1
    4     1     5    1
    5     5     6    1
    6     5     7    1
    7     5     8    1
    8     8     9    1
    9     8    10    1
   10     8    11    1
   11    11    12    1
   12    11    13    1
   13    11    14    1
   14    14    15    1
   15    14    16    1
   16    14    17    1
   17    17    18    1
   18    17    19    1
   19    17    20    1
   20    20    21    1
   21    20    22    1
   22    22    23    1
   23    22    24    1
   24    22    25    1
   25    20    26    1
   26    26    27    1
   27    26    28    1
   28    26    29    1
@<TRIPOS>SUBSTRUCTURE
       1 MOL1            1 RESIDUE      1      MOL     
@<SCITEGIC>MOL_PROPERTY
VM2 Rank
SciTegic.value.IntegerValue
156

@<SCITEGIC>MOL_PROPERTY
Conf_Id
SciTegic.value.IntegerValue
337

@<SCITEGIC>MOL_PROPERTY
Probability
SciTegic.value.DoubleValue
0.00

@<SCITEGIC>MOL_PROPERTY
Sum Probability
SciTegic.value.DoubleValue
99.92

@<SCITEGIC>MOL_PROPERTY
Delta G
SciTegic.value.DoubleValue
4.655

@<SCITEGIC>MOL_PROPERTY
G
SciTegic.value.DoubleValue
38.358

@<SCITEGIC>MOL_PROPERTY
E
SciTegic.value.DoubleValue
0.137

@<SCITEGIC>MOL_PROPERTY
-TS
SciTegic.value.DoubleValue
38.220

@<SCITEGIC>MOL_PROPERTY
U+W
SciTegic.value.DoubleValue
-24.007

@<SCITEGIC>MOL_PROPERTY
U
SciTegic.value.DoubleValue
28.527

@<SCITEGIC>MOL_PROPERTY
W
SciTegic.value.DoubleValue
-52.534

@<SCITEGIC>MOL_PROPERTY
W(PB)
SciTegic.value.DoubleValue
-54.949

@<SCITEGIC>MOL_PROPERTY
W(SA)
SciTegic.value.DoubleValue
2.416

@<SCITEGIC>MOL_PROPERTY
Valence
SciTegic.value.DoubleValue
7.259

@<SCITEGIC>MOL_PROPERTY
Coulomb
SciTegic.value.DoubleValue
20.050

@<SCITEGIC>MOL_PROPERTY
VdW
SciTegic.value.DoubleValue
1.218

@<SCITEGIC>MOL_PROPERTY
VdW6
SciTegic.value.DoubleValue
-11.104

@<SCITEGIC>MOL_PROPERTY
VdW12
SciTegic.value.DoubleValue
12.322

@<SCITEGIC>MOL_PROPERTY
Bond
SciTegic.value.DoubleValue
0.363

@<SCITEGIC>MOL_PROPERTY
Angle
SciTegic.value.DoubleValue
2.392

@<SCITEGIC>MOL_PROPERTY
Pdih
SciTegic.value.DoubleValue
4.504

@<SCITEGIC>MOL_PROPERTY
Idih
SciTegic.value.DoubleValue
0.000

@<SCITEGIC>MOL_PROPERTY
Tether
SciTegic.value.DoubleValue
0.000

@<TRIPOS>MOLECULE
guest-s15_vm2.mol2 : vm2 ligand conformer 157
          29          28           1
SMALL
USER_CHARGES
 
@<TRIPOS>ATOM
       1    C1      18.157534   18.874433   20.969435 C.3        1 MOL1        -0.2426
       2    H1      18.270471   17.923393   20.433056 H          1 MOL1         0.0959
       3    H2      17.992692   18.653690   22.030870 H          1 MOL1         0.0959
       4    H3      17.253867   19.369048   20.590529 H          1 MOL1         0.0959
       5    C2      19.394753   19.777257   20.764979 C.3        1 MOL1        -0.1410
       6    H4      19.269044   20.711889   21.327529 H          1 MOL1         0.0948
       7    H5      19.447849   20.069207   19.706887 H          1 MOL1         0.0948
       8    C3      20.729547   19.092052   21.153869 C.3        1 MOL1        -0.1435
       9    H6      20.890738   18.229412   20.492838 H          1 MOL1         0.0948
      10    H7      21.556198   19.785977   20.948415 H          1 MOL1         0.0948
      11    C4      20.826090   18.614489   22.625884 C.3        1 MOL1        -0.1435
      12    H8      21.804317   18.134265   22.764751 H          1 MOL1         0.0948
      13    H9      20.081574   17.831450   22.806041 H          1 MOL1         0.0948
      14    C5      20.679265   19.763338   23.656983 C.3        1 MOL1        -0.1435
      15    H10     21.409741   20.542818   23.400204 H          1 MOL1         0.0948
      16    H11     19.692653   20.234372   23.571839 H          1 MOL1         0.0948
      17    C6      20.940480   19.321288   25.124359 C.3        1 MOL1        -0.1500
      18    H12     21.413156   20.158422   25.654706 H          1 MOL1         0.0948
      19    H13     21.682364   18.512292   25.145348 H          1 MOL1         0.0948
      20    C7      19.696913   18.899233   25.945831 C.3        1 MOL1         0.1162
      21    H14     20.052398   18.621910   26.943045 H          1 MOL1         0.0910
      22    C8      18.975088   17.675906   25.359131 C.3        1 MOL1        -0.2491
      23    H15     18.464303   17.922897   24.421637 H          1 MOL1         0.0959
      24    H16     19.681628   16.858589   25.168770 H          1 MOL1         0.0959
      25    H17     18.218844   17.305273   26.061854 H          1 MOL1         0.0959
      26    N1      18.736329   20.038004   26.153529 N.4        1 MOL1        -0.5987
      27    H18     19.194581   20.839154   26.597242 H          1 MOL1         0.3605
      28    H19     17.954054   19.761933   26.753929 H          1 MOL1         0.3605
      29    H20     18.343832   20.360048   25.265560 H          1 MOL1         0.3605
@<TRIPOS>BOND
    1     1     2    1
    2     1     3    1
    3     1     4    1
    4     1     5    1
    5     5     6    1
    6     5     7    1
    7     5     8    1
    8     8     9    1
    9     8    10    1
   10     8    11    1
   11    11    12    1
   12    11    13    1
   13    11    14    1
   14    14    15    1
   15    14    16    1
   16    14    17    1
   17    17    18    1
   18    17    19    1
   19    17    20    1
   20    20    21    1
   21    20    22    1
   22    22    23    1
   23    22    24    1
   24    22    25    1
   25    20    26    1
   26    26    27    1
   27    26    28    1
   28    26    29    1
@<TRIPOS>SUBSTRUCTURE
       1 MOL1            1 RESIDUE      1      MOL     
@<SCITEGIC>MOL_PROPERTY
VM2 Rank
SciTegic.value.IntegerValue
157

@<SCITEGIC>MOL_PROPERTY
Conf_Id
SciTegic.value.IntegerValue
163

@<SCITEGIC>MOL_PROPERTY
Probability
SciTegic.value.DoubleValue
0.00

@<SCITEGIC>MOL_PROPERTY
Sum Probability
SciTegic.value.DoubleValue
99.92

@<SCITEGIC>MOL_PROPERTY
Delta G
SciTegic.value.DoubleValue
4.673

@<SCITEGIC>MOL_PROPERTY
G
SciTegic.value.DoubleValue
38.375

@<SCITEGIC>MOL_PROPERTY
E
SciTegic.value.DoubleValue
0.080

@<SCITEGIC>MOL_PROPERTY
-TS
SciTegic.value.DoubleValue
38.296

@<SCITEGIC>MOL_PROPERTY
U+W
SciTegic.value.DoubleValue
-24.065

@<SCITEGIC>MOL_PROPERTY
U
SciTegic.value.DoubleValue
28.758

@<SCITEGIC>MOL_PROPERTY
W
SciTegic.value.DoubleValue
-52.823

@<SCITEGIC>MOL_PROPERTY
W(PB)
SciTegic.value.DoubleValue
-55.197

@<SCITEGIC>MOL_PROPERTY
W(SA)
SciTegic.value.DoubleValue
2.374

@<SCITEGIC>MOL_PROPERTY
Valence
SciTegic.value.DoubleValue
7.223

@<SCITEGIC>MOL_PROPERTY
Coulomb
SciTegic.value.DoubleValue
20.589

@<SCITEGIC>MOL_PROPERTY
VdW
SciTegic.value.DoubleValue
0.946

@<SCITEGIC>MOL_PROPERTY
VdW6
SciTegic.value.DoubleValue
-11.470

@<SCITEGIC>MOL_PROPERTY
VdW12
SciTegic.value.DoubleValue
12.416

@<SCITEGIC>MOL_PROPERTY
Bond
SciTegic.value.DoubleValue
0.373

@<SCITEGIC>MOL_PROPERTY
Angle
SciTegic.value.DoubleValue
2.546

@<SCITEGIC>MOL_PROPERTY
Pdih
SciTegic.value.DoubleValue
4.304

@<SCITEGIC>MOL_PROPERTY
Idih
SciTegic.value.DoubleValue
0.000

@<SCITEGIC>MOL_PROPERTY
Tether
SciTegic.value.DoubleValue
0.000

@<TRIPOS>MOLECULE
guest-s15_vm2.mol2 : vm2 ligand conformer 158
          29          28           1
SMALL
USER_CHARGES
 
@<TRIPOS>ATOM
       1    C1      18.462029   18.911227   19.956588 C.3        1 MOL1        -0.2426
       2    H1      18.235130   19.884472   19.502156 H          1 MOL1         0.0959
       3    H2      18.613488   18.187700   19.145066 H          1 MOL1         0.0959
       4    H3      17.585497   18.590853   20.534725 H          1 MOL1         0.0959
       5    C2      19.716042   18.995602   20.852147 C.3        1 MOL1        -0.1410
       6    H4      20.581550   19.287806   20.241322 H          1 MOL1         0.0948
       7    H5      19.933522   17.997966   21.256318 H          1 MOL1         0.0948
       8    C3      19.525435   20.007910   22.005678 C.3        1 MOL1        -0.1435
       9    H6      19.246500   20.982104   21.580878 H          1 MOL1         0.0948
      10    H7      18.678573   19.696448   22.629520 H          1 MOL1         0.0948
      11    C4      20.796197   20.198935   22.873985 C.3        1 MOL1        -0.1435
      12    H8      20.619728   20.986761   23.616030 H          1 MOL1         0.0948
      13    H9      21.599760   20.588264   22.233576 H          1 MOL1         0.0948
      14    C5      21.316800   18.918964   23.581475 C.3        1 MOL1        -0.1435
      15    H10     21.694993   18.225155   22.818895 H          1 MOL1         0.0948
      16    H11     22.192887   19.185738   24.188551 H          1 MOL1         0.0948
      17    C6      20.301997   18.156361   24.477188 C.3        1 MOL1        -0.1500
      18    H12     20.790277   17.222853   24.787110 H          1 MOL1         0.0948
      19    H13     19.423098   17.848478   23.896997 H          1 MOL1         0.0948
      20    C7      19.863991   18.918722   25.749979 C.3        1 MOL1         0.1162
      21    H14     20.747057   19.397777   26.183751 H          1 MOL1         0.0910
      22    C8      19.287883   17.941317   26.787628 C.3        1 MOL1        -0.2491
      23    H15     18.405374   17.420717   26.395023 H          1 MOL1         0.0959
      24    H16     20.032692   17.186732   27.069780 H          1 MOL1         0.0959
      25    H17     18.993405   18.473050   27.700878 H          1 MOL1         0.0959
      26    N1      18.865626   20.006963   25.469332 N.4        1 MOL1        -0.5987
      27    H18     19.219610   20.661037   24.767195 H          1 MOL1         0.3605
      28    H19     18.649140   20.543050   26.314671 H          1 MOL1         0.3605
      29    H20     17.985991   19.620408   25.117302 H          1 MOL1         0.3605
@<TRIPOS>BOND
    1     1     2    1
    2     1     3    1
    3     1     4    1
    4     1     5    1
    5     5     6    1
    6     5     7    1
    7     5     8    1
    8     8     9    1
    9     8    10    1
   10     8    11    1
   11    11    12    1
   12    11    13    1
   13    11    14    1
   14    14    15    1
   15    14    16    1
   16    14    17    1
   17    17    18    1
   18    17    19    1
   19    17    20    1
   20    20    21    1
   21    20    22    1
   22    22    23    1
   23    22    24    1
   24    22    25    1
   25    20    26    1
   26    26    27    1
   27    26    28    1
   28    26    29    1
@<TRIPOS>SUBSTRUCTURE
       1 MOL1            1 RESIDUE      1      MOL     
@<SCITEGIC>MOL_PROPERTY
VM2 Rank
SciTegic.value.IntegerValue
158

@<SCITEGIC>MOL_PROPERTY
Conf_Id
SciTegic.value.IntegerValue
1178

@<SCITEGIC>MOL_PROPERTY
Probability
SciTegic.value.DoubleValue
0.00

@<SCITEGIC>MOL_PROPERTY
Sum Probability
SciTegic.value.DoubleValue
99.93

@<SCITEGIC>MOL_PROPERTY
Delta G
SciTegic.value.DoubleValue
4.680

@<SCITEGIC>MOL_PROPERTY
G
SciTegic.value.DoubleValue
38.382

@<SCITEGIC>MOL_PROPERTY
E
SciTegic.value.DoubleValue
0.126

@<SCITEGIC>MOL_PROPERTY
-TS
SciTegic.value.DoubleValue
38.256

@<SCITEGIC>MOL_PROPERTY
U+W
SciTegic.value.DoubleValue
-24.018

@<SCITEGIC>MOL_PROPERTY
U
SciTegic.value.DoubleValue
28.175

@<SCITEGIC>MOL_PROPERTY
W
SciTegic.value.DoubleValue
-52.194

@<SCITEGIC>MOL_PROPERTY
W(PB)
SciTegic.value.DoubleValue
-54.623

@<SCITEGIC>MOL_PROPERTY
W(SA)
SciTegic.value.DoubleValue
2.430

@<SCITEGIC>MOL_PROPERTY
Valence
SciTegic.value.DoubleValue
5.874

@<SCITEGIC>MOL_PROPERTY
Coulomb
SciTegic.value.DoubleValue
21.577

@<SCITEGIC>MOL_PROPERTY
VdW
SciTegic.value.DoubleValue
0.724

@<SCITEGIC>MOL_PROPERTY
VdW6
SciTegic.value.DoubleValue
-11.266

@<SCITEGIC>MOL_PROPERTY
VdW12
SciTegic.value.DoubleValue
11.991

@<SCITEGIC>MOL_PROPERTY
Bond
SciTegic.value.DoubleValue
0.343

@<SCITEGIC>MOL_PROPERTY
Angle
SciTegic.value.DoubleValue
2.488

@<SCITEGIC>MOL_PROPERTY
Pdih
SciTegic.value.DoubleValue
3.043

@<SCITEGIC>MOL_PROPERTY
Idih
SciTegic.value.DoubleValue
0.000

@<SCITEGIC>MOL_PROPERTY
Tether
SciTegic.value.DoubleValue
0.000

@<TRIPOS>MOLECULE
guest-s15_vm2.mol2 : vm2 ligand conformer 159
          29          28           1
SMALL
USER_CHARGES
 
@<TRIPOS>ATOM
       1    C1      18.267940   19.642863   19.914896 C.3        1 MOL1        -0.2426
       2    H1      18.082617   20.404747   19.146635 H          1 MOL1         0.0959
       3    H2      18.422200   18.682151   19.406478 H          1 MOL1         0.0959
       4    H3      17.364618   19.561291   20.533410 H          1 MOL1         0.0959
       5    C2      19.495027   20.020138   20.771352 C.3        1 MOL1        -0.1410
       6    H4      19.324764   20.999643   21.239555 H          1 MOL1         0.0948
       7    H5      20.373991   20.128667   20.120514 H          1 MOL1         0.0948
       8    C3      19.779320   18.961502   21.859424 C.3        1 MOL1        -0.1435
       9    H6      18.888227   18.845620   22.488422 H          1 MOL1         0.0948
      10    H7      19.956480   17.987129   21.383451 H          1 MOL1         0.0948
      11    C4      21.006964   19.341078   22.722241 C.3        1 MOL1        -0.1435
      12    H8      20.862073   20.322894   23.188851 H          1 MOL1         0.0948
      13    H9      21.876291   19.459252   22.060500 H          1 MOL1         0.0948
      14    C5      21.363208   18.283105   23.797600 C.3        1 MOL1        -0.1435
      15    H10     21.647924   17.352259   23.287936 H          1 MOL1         0.0948
      16    H11     22.264372   18.616077   24.330895 H          1 MOL1         0.0948
      17    C6      20.261179   17.951256   24.841481 C.3        1 MOL1        -0.1500
      18    H12     20.659346   17.152197   25.480988 H          1 MOL1         0.0948
      19    H13     19.378090   17.521059   24.352551 H          1 MOL1         0.0948
      20    C7      19.846760   19.138597   25.742564 C.3        1 MOL1         0.1162
      21    H14     20.746896   19.705696   25.998764 H          1 MOL1         0.0910
      22    C8      19.211582   18.627759   27.046229 C.3        1 MOL1        -0.2491
      23    H15     18.310540   18.035462   26.843006 H          1 MOL1         0.0959
      24    H16     19.916183   17.998227   27.603897 H          1 MOL1         0.0959
      25    H17     18.930912   19.465764   27.696202 H          1 MOL1         0.0959
      26    N1      18.904020   20.089702   25.058212 N.4        1 MOL1        -0.5987
      27    H18     19.290191   20.417237   24.168998 H          1 MOL1         0.3605
      28    H19     18.713649   20.911195   25.639528 H          1 MOL1         0.3605
      29    H20     18.006245   19.640787   24.858565 H          1 MOL1         0.3605
@<TRIPOS>BOND
    1     1     2    1
    2     1     3    1
    3     1     4    1
    4     1     5    1
    5     5     6    1
    6     5     7    1
    7     5     8    1
    8     8     9    1
    9     8    10    1
   10     8    11    1
   11    11    12    1
   12    11    13    1
   13    11    14    1
   14    14    15    1
   15    14    16    1
   16    14    17    1
   17    17    18    1
   18    17    19    1
   19    17    20    1
   20    20    21    1
   21    20    22    1
   22    22    23    1
   23    22    24    1
   24    22    25    1
   25    20    26    1
   26    26    27    1
   27    26    28    1
   28    26    29    1
@<TRIPOS>SUBSTRUCTURE
       1 MOL1            1 RESIDUE      1      MOL     
@<SCITEGIC>MOL_PROPERTY
VM2 Rank
SciTegic.value.IntegerValue
159

@<SCITEGIC>MOL_PROPERTY
Conf_Id
SciTegic.value.IntegerValue
550

@<SCITEGIC>MOL_PROPERTY
Probability
SciTegic.value.DoubleValue
0.00

@<SCITEGIC>MOL_PROPERTY
Sum Probability
SciTegic.value.DoubleValue
99.93

@<SCITEGIC>MOL_PROPERTY
Delta G
SciTegic.value.DoubleValue
4.701

@<SCITEGIC>MOL_PROPERTY
G
SciTegic.value.DoubleValue
38.403

@<SCITEGIC>MOL_PROPERTY
E
SciTegic.value.DoubleValue
0.345

@<SCITEGIC>MOL_PROPERTY
-TS
SciTegic.value.DoubleValue
38.058

@<SCITEGIC>MOL_PROPERTY
U+W
SciTegic.value.DoubleValue
-23.800

@<SCITEGIC>MOL_PROPERTY
U
SciTegic.value.DoubleValue
27.762

@<SCITEGIC>MOL_PROPERTY
W
SciTegic.value.DoubleValue
-51.562

@<SCITEGIC>MOL_PROPERTY
W(PB)
SciTegic.value.DoubleValue
-54.039

@<SCITEGIC>MOL_PROPERTY
W(SA)
SciTegic.value.DoubleValue
2.477

@<SCITEGIC>MOL_PROPERTY
Valence
SciTegic.value.DoubleValue
5.446

@<SCITEGIC>MOL_PROPERTY
Coulomb
SciTegic.value.DoubleValue
21.561

@<SCITEGIC>MOL_PROPERTY
VdW
SciTegic.value.DoubleValue
0.755

@<SCITEGIC>MOL_PROPERTY
VdW6
SciTegic.value.DoubleValue
-10.491

@<SCITEGIC>MOL_PROPERTY
VdW12
SciTegic.value.DoubleValue
11.246

@<SCITEGIC>MOL_PROPERTY
Bond
SciTegic.value.DoubleValue
0.290

@<SCITEGIC>MOL_PROPERTY
Angle
SciTegic.value.DoubleValue
2.160

@<SCITEGIC>MOL_PROPERTY
Pdih
SciTegic.value.DoubleValue
2.996

@<SCITEGIC>MOL_PROPERTY
Idih
SciTegic.value.DoubleValue
0.000

@<SCITEGIC>MOL_PROPERTY
Tether
SciTegic.value.DoubleValue
0.000

@<TRIPOS>MOLECULE
guest-s15_vm2.mol2 : vm2 ligand conformer 160
          29          28           1
SMALL
USER_CHARGES
 
@<TRIPOS>ATOM
       1    C1      18.598910   18.922096   19.813390 C.3        1 MOL1        -0.2426
       2    H1      18.255193   19.681512   19.099143 H          1 MOL1         0.0959
       3    H2      19.058289   18.105308   19.241524 H          1 MOL1         0.0959
       4    H3      17.717263   18.523164   20.331808 H          1 MOL1         0.0959
       5    C2      19.602444   19.531198   20.815240 C.3        1 MOL1        -0.1410
       6    H4      19.120159   20.367645   21.338322 H          1 MOL1         0.0948
       7    H5      20.458278   19.948257   20.266427 H          1 MOL1         0.0948
       8    C3      20.098022   18.479972   21.835613 C.3        1 MOL1        -0.1435
       9    H6      19.244991   18.095656   22.408728 H          1 MOL1         0.0948
      10    H7      20.507683   17.619191   21.289418 H          1 MOL1         0.0948
      11    C4      21.193806   19.015216   22.794222 C.3        1 MOL1        -0.1435
      12    H8      22.064169   19.317606   22.195748 H          1 MOL1         0.0948
      13    H9      21.552375   18.197665   23.432242 H          1 MOL1         0.0948
      14    C5      20.768772   20.214677   23.680948 C.3        1 MOL1        -0.1435
      15    H10     21.627854   20.518020   24.295123 H          1 MOL1         0.0948
      16    H11     20.555654   21.077840   23.036783 H          1 MOL1         0.0948
      17    C6      19.550697   19.976074   24.613105 C.3        1 MOL1        -0.1500
      18    H12     18.663534   19.688003   24.035139 H          1 MOL1         0.0948
      19    H13     19.301078   20.947850   25.059149 H          1 MOL1         0.0948
      20    C7      19.814328   18.965226   25.756637 C.3        1 MOL1         0.1162
      21    H14     20.891085   18.938675   25.949885 H          1 MOL1         0.0910
      22    C8      19.338801   17.544503   25.402608 C.3        1 MOL1        -0.2491
      23    H15     19.862879   17.147838   24.527901 H          1 MOL1         0.0959
      24    H16     19.530125   16.856014   26.234884 H          1 MOL1         0.0959
      25    H17     18.262361   17.528222   25.191193 H          1 MOL1         0.0959
      26    N1      19.170220   19.407039   27.042236 N.4        1 MOL1        -0.5987
      27    H18     19.504606   20.330360   27.333161 H          1 MOL1         0.3605
      28    H19     19.373716   18.755198   27.805387 H          1 MOL1         0.3605
      29    H20     18.152178   19.462168   26.950584 H          1 MOL1         0.3605
@<TRIPOS>BOND
    1     1     2    1
    2     1     3    1
    3     1     4    1
    4     1     5    1
    5     5     6    1
    6     5     7    1
    7     5     8    1
    8     8     9    1
    9     8    10    1
   10     8    11    1
   11    11    12    1
   12    11    13    1
   13    11    14    1
   14    14    15    1
   15    14    16    1
   16    14    17    1
   17    17    18    1
   18    17    19    1
   19    17    20    1
   20    20    21    1
   21    20    22    1
   22    22    23    1
   23    22    24    1
   24    22    25    1
   25    20    26    1
   26    26    27    1
   27    26    28    1
   28    26    29    1
@<TRIPOS>SUBSTRUCTURE
       1 MOL1            1 RESIDUE      1      MOL     
@<SCITEGIC>MOL_PROPERTY
VM2 Rank
SciTegic.value.IntegerValue
160

@<SCITEGIC>MOL_PROPERTY
Conf_Id
SciTegic.value.IntegerValue
352

@<SCITEGIC>MOL_PROPERTY
Probability
SciTegic.value.DoubleValue
0.00

@<SCITEGIC>MOL_PROPERTY
Sum Probability
SciTegic.value.DoubleValue
99.94

@<SCITEGIC>MOL_PROPERTY
Delta G
SciTegic.value.DoubleValue
4.707

@<SCITEGIC>MOL_PROPERTY
G
SciTegic.value.DoubleValue
38.409

@<SCITEGIC>MOL_PROPERTY
E
SciTegic.value.DoubleValue
0.191

@<SCITEGIC>MOL_PROPERTY
-TS
SciTegic.value.DoubleValue
38.219

@<SCITEGIC>MOL_PROPERTY
U+W
SciTegic.value.DoubleValue
-23.954

@<SCITEGIC>MOL_PROPERTY
U
SciTegic.value.DoubleValue
28.474

@<SCITEGIC>MOL_PROPERTY
W
SciTegic.value.DoubleValue
-52.428

@<SCITEGIC>MOL_PROPERTY
W(PB)
SciTegic.value.DoubleValue
-54.845

@<SCITEGIC>MOL_PROPERTY
W(SA)
SciTegic.value.DoubleValue
2.418

@<SCITEGIC>MOL_PROPERTY
Valence
SciTegic.value.DoubleValue
7.438

@<SCITEGIC>MOL_PROPERTY
Coulomb
SciTegic.value.DoubleValue
20.128

@<SCITEGIC>MOL_PROPERTY
VdW
SciTegic.value.DoubleValue
0.908

@<SCITEGIC>MOL_PROPERTY
VdW6
SciTegic.value.DoubleValue
-11.079

@<SCITEGIC>MOL_PROPERTY
VdW12
SciTegic.value.DoubleValue
11.987

@<SCITEGIC>MOL_PROPERTY
Bond
SciTegic.value.DoubleValue
0.324

@<SCITEGIC>MOL_PROPERTY
Angle
SciTegic.value.DoubleValue
2.510

@<SCITEGIC>MOL_PROPERTY
Pdih
SciTegic.value.DoubleValue
4.604

@<SCITEGIC>MOL_PROPERTY
Idih
SciTegic.value.DoubleValue
0.000

@<SCITEGIC>MOL_PROPERTY
Tether
SciTegic.value.DoubleValue
0.000

@<TRIPOS>MOLECULE
guest-s15_vm2.mol2 : vm2 ligand conformer 161
          29          28           1
SMALL
USER_CHARGES
 
@<TRIPOS>ATOM
       1    C1      20.612339   20.443095   20.583097 C.3        1 MOL1        -0.2426
       2    H1      20.253989   21.184874   21.308521 H          1 MOL1         0.0959
       3    H2      21.470071   19.915091   21.017594 H          1 MOL1         0.0959
       4    H3      20.973696   20.984444   19.699238 H          1 MOL1         0.0959
       5    C2      19.488317   19.459414   20.191287 C.3        1 MOL1        -0.1410
       6    H4      19.891557   18.696380   19.510948 H          1 MOL1         0.0948
       7    H5      18.726071   20.005694   19.618341 H          1 MOL1         0.0948
       8    C3      18.798441   18.770611   21.396131 C.3        1 MOL1        -0.1435
       9    H6      18.308975   19.526220   22.022884 H          1 MOL1         0.0948
      10    H7      17.986630   18.145867   20.998837 H          1 MOL1         0.0948
      11    C4      19.733599   17.864115   22.242564 C.3        1 MOL1        -0.1435
      12    H8      20.534133   17.469865   21.601666 H          1 MOL1         0.0948
      13    H9      19.168569   16.984166   22.579719 H          1 MOL1         0.0948
      14    C5      20.357650   18.550220   23.485643 C.3        1 MOL1        -0.1435
      15    H10     21.178465   17.915320   23.843302 H          1 MOL1         0.0948
      16    H11     20.808956   19.510060   23.207298 H          1 MOL1         0.0948
      17    C6      19.340701   18.766087   24.637004 C.3        1 MOL1        -0.1500
      18    H12     18.954423   17.795258   24.974592 H          1 MOL1         0.0948
      19    H13     18.477694   19.325844   24.257513 H          1 MOL1         0.0948
      20    C7      19.922244   19.539765   25.842505 C.3        1 MOL1         0.1162
      21    H14     20.339335   20.482793   25.475961 H          1 MOL1         0.0910
      22    C8      21.040222   18.756061   26.553405 C.3        1 MOL1        -0.2491
      23    H15     20.687177   17.770371   26.881248 H          1 MOL1         0.0959
      24    H16     21.905796   18.610982   25.896879 H          1 MOL1         0.0959
      25    H17     21.392709   19.302104   27.437115 H          1 MOL1         0.0959
      26    N1      18.842488   19.906632   26.822365 N.4        1 MOL1        -0.5987
      27    H18     18.107925   20.467926   26.381683 H          1 MOL1         0.3605
      28    H19     19.216392   20.453483   27.603299 H          1 MOL1         0.3605
      29    H20     18.397994   19.073737   27.217942 H          1 MOL1         0.3605
@<TRIPOS>BOND
    1     1     2    1
    2     1     3    1
    3     1     4    1
    4     1     5    1
    5     5     6    1
    6     5     7    1
    7     5     8    1
    8     8     9    1
    9     8    10    1
   10     8    11    1
   11    11    12    1
   12    11    13    1
   13    11    14    1
   14    14    15    1
   15    14    16    1
   16    14    17    1
   17    17    18    1
   18    17    19    1
   19    17    20    1
   20    20    21    1
   21    20    22    1
   22    22    23    1
   23    22    24    1
   24    22    25    1
   25    20    26    1
   26    26    27    1
   27    26    28    1
   28    26    29    1
@<TRIPOS>SUBSTRUCTURE
       1 MOL1            1 RESIDUE      1      MOL     
@<SCITEGIC>MOL_PROPERTY
VM2 Rank
SciTegic.value.IntegerValue
161

@<SCITEGIC>MOL_PROPERTY
Conf_Id
SciTegic.value.IntegerValue
182

@<SCITEGIC>MOL_PROPERTY
Probability
SciTegic.value.DoubleValue
0.00

@<SCITEGIC>MOL_PROPERTY
Sum Probability
SciTegic.value.DoubleValue
99.94

@<SCITEGIC>MOL_PROPERTY
Delta G
SciTegic.value.DoubleValue
4.730

@<SCITEGIC>MOL_PROPERTY
G
SciTegic.value.DoubleValue
38.432

@<SCITEGIC>MOL_PROPERTY
E
SciTegic.value.DoubleValue
0.585

@<SCITEGIC>MOL_PROPERTY
-TS
SciTegic.value.DoubleValue
37.847

@<SCITEGIC>MOL_PROPERTY
U+W
SciTegic.value.DoubleValue
-23.559

@<SCITEGIC>MOL_PROPERTY
U
SciTegic.value.DoubleValue
28.875

@<SCITEGIC>MOL_PROPERTY
W
SciTegic.value.DoubleValue
-52.434

@<SCITEGIC>MOL_PROPERTY
W(PB)
SciTegic.value.DoubleValue
-54.885

@<SCITEGIC>MOL_PROPERTY
W(SA)
SciTegic.value.DoubleValue
2.450

@<SCITEGIC>MOL_PROPERTY
Valence
SciTegic.value.DoubleValue
7.510

@<SCITEGIC>MOL_PROPERTY
Coulomb
SciTegic.value.DoubleValue
19.951

@<SCITEGIC>MOL_PROPERTY
VdW
SciTegic.value.DoubleValue
1.414

@<SCITEGIC>MOL_PROPERTY
VdW6
SciTegic.value.DoubleValue
-10.241

@<SCITEGIC>MOL_PROPERTY
VdW12
SciTegic.value.DoubleValue
11.655

@<SCITEGIC>MOL_PROPERTY
Bond
SciTegic.value.DoubleValue
0.342

@<SCITEGIC>MOL_PROPERTY
Angle
SciTegic.value.DoubleValue
2.142

@<SCITEGIC>MOL_PROPERTY
Pdih
SciTegic.value.DoubleValue
5.026

@<SCITEGIC>MOL_PROPERTY
Idih
SciTegic.value.DoubleValue
0.000

@<SCITEGIC>MOL_PROPERTY
Tether
SciTegic.value.DoubleValue
0.000

@<TRIPOS>MOLECULE
guest-s15_vm2.mol2 : vm2 ligand conformer 162
          29          28           1
SMALL
USER_CHARGES
 
@<TRIPOS>ATOM
       1    C1      19.707199   20.894834   21.318053 C.3        1 MOL1        -0.2426
       2    H1      18.639418   21.138688   21.390351 H          1 MOL1         0.0959
       3    H2      20.121402   20.878045   22.331472 H          1 MOL1         0.0959
       4    H3      20.198995   21.712475   20.775440 H          1 MOL1         0.0959
       5    C2      19.919861   19.553527   20.578399 C.3        1 MOL1        -0.1410
       6    H4      20.992693   19.333795   20.488001 H          1 MOL1         0.0948
       7    H5      19.549276   19.674727   19.550869 H          1 MOL1         0.0948
       8    C3      19.177471   18.356472   21.227255 C.3        1 MOL1        -0.1435
       9    H6      18.240473   18.691010   21.690991 H          1 MOL1         0.0948
      10    H7      18.870786   17.676416   20.420556 H          1 MOL1         0.0948
      11    C4      20.024389   17.523204   22.227442 C.3        1 MOL1        -0.1435
      12    H8      20.889128   17.107034   21.692500 H          1 MOL1         0.0948
      13    H9      19.431359   16.656735   22.550984 H          1 MOL1         0.0948
      14    C5      20.536255   18.270241   23.484309 C.3        1 MOL1        -0.1435
      15    H10     21.162601   17.571680   24.053806 H          1 MOL1         0.0948
      16    H11     21.199590   19.091767   23.186459 H          1 MOL1         0.0948
      17    C6      19.398247   18.798257   24.396267 C.3        1 MOL1        -0.1500
      18    H12     18.785598   17.957025   24.746321 H          1 MOL1         0.0948
      19    H13     18.733427   19.440758   23.807214 H          1 MOL1         0.0948
      20    C7      19.902126   19.615464   25.607691 C.3        1 MOL1         0.1162
      21    H14     20.549625   20.415663   25.236187 H          1 MOL1         0.0910
      22    C8      20.709076   18.754646   26.596175 C.3        1 MOL1        -0.2491
      23    H15     21.003152   19.345814   27.472180 H          1 MOL1         0.0959
      24    H16     20.121648   17.896824   26.946560 H          1 MOL1         0.0959
      25    H17     21.630035   18.376944   26.137488 H          1 MOL1         0.0959
      26    N1      18.761377   20.289356   26.318409 N.4        1 MOL1        -0.5987
      27    H18     18.103761   19.605034   26.701837 H          1 MOL1         0.3605
      28    H19     18.235469   20.903818   25.690230 H          1 MOL1         0.3605
      29    H20     19.093985   20.863546   27.098399 H          1 MOL1         0.3605
@<TRIPOS>BOND
    1     1     2    1
    2     1     3    1
    3     1     4    1
    4     1     5    1
    5     5     6    1
    6     5     7    1
    7     5     8    1
    8     8     9    1
    9     8    10    1
   10     8    11    1
   11    11    12    1
   12    11    13    1
   13    11    14    1
   14    14    15    1
   15    14    16    1
   16    14    17    1
   17    17    18    1
   18    17    19    1
   19    17    20    1
   20    20    21    1
   21    20    22    1
   22    22    23    1
   23    22    24    1
   24    22    25    1
   25    20    26    1
   26    26    27    1
   27    26    28    1
   28    26    29    1
@<TRIPOS>SUBSTRUCTURE
       1 MOL1            1 RESIDUE      1      MOL     
@<SCITEGIC>MOL_PROPERTY
VM2 Rank
SciTegic.value.IntegerValue
162

@<SCITEGIC>MOL_PROPERTY
Conf_Id
SciTegic.value.IntegerValue
1005

@<SCITEGIC>MOL_PROPERTY
Probability
SciTegic.value.DoubleValue
0.00

@<SCITEGIC>MOL_PROPERTY
Sum Probability
SciTegic.value.DoubleValue
99.94

@<SCITEGIC>MOL_PROPERTY
Delta G
SciTegic.value.DoubleValue
4.741

@<SCITEGIC>MOL_PROPERTY
G
SciTegic.value.DoubleValue
38.443

@<SCITEGIC>MOL_PROPERTY
E
SciTegic.value.DoubleValue
0.215

@<SCITEGIC>MOL_PROPERTY
-TS
SciTegic.value.DoubleValue
38.228

@<SCITEGIC>MOL_PROPERTY
U+W
SciTegic.value.DoubleValue
-23.929

@<SCITEGIC>MOL_PROPERTY
U
SciTegic.value.DoubleValue
28.830

@<SCITEGIC>MOL_PROPERTY
W
SciTegic.value.DoubleValue
-52.759

@<SCITEGIC>MOL_PROPERTY
W(PB)
SciTegic.value.DoubleValue
-55.175

@<SCITEGIC>MOL_PROPERTY
W(SA)
SciTegic.value.DoubleValue
2.415

@<SCITEGIC>MOL_PROPERTY
Valence
SciTegic.value.DoubleValue
7.353

@<SCITEGIC>MOL_PROPERTY
Coulomb
SciTegic.value.DoubleValue
20.481

@<SCITEGIC>MOL_PROPERTY
VdW
SciTegic.value.DoubleValue
0.997

@<SCITEGIC>MOL_PROPERTY
VdW6
SciTegic.value.DoubleValue
-11.027

@<SCITEGIC>MOL_PROPERTY
VdW12
SciTegic.value.DoubleValue
12.024

@<SCITEGIC>MOL_PROPERTY
Bond
SciTegic.value.DoubleValue
0.342

@<SCITEGIC>MOL_PROPERTY
Angle
SciTegic.value.DoubleValue
2.651

@<SCITEGIC>MOL_PROPERTY
Pdih
SciTegic.value.DoubleValue
4.360

@<SCITEGIC>MOL_PROPERTY
Idih
SciTegic.value.DoubleValue
0.000

@<SCITEGIC>MOL_PROPERTY
Tether
SciTegic.value.DoubleValue
0.000

@<TRIPOS>MOLECULE
guest-s15_vm2.mol2 : vm2 ligand conformer 163
          29          28           1
SMALL
USER_CHARGES
 
@<TRIPOS>ATOM
       1    C1      18.738268   20.545363   21.039984 C.3        1 MOL1        -0.2426
       2    H1      18.825568   20.808354   22.100299 H          1 MOL1         0.0959
       3    H2      18.514761   21.469542   20.491466 H          1 MOL1         0.0959
       4    H3      17.885343   19.865781   20.914899 H          1 MOL1         0.0959
       5    C2      20.041498   19.907678   20.512062 C.3        1 MOL1        -0.1410
       6    H4      20.886888   20.577483   20.722696 H          1 MOL1         0.0948
       7    H5      19.977862   19.833862   19.417421 H          1 MOL1         0.0948
       8    C3      20.340325   18.497246   21.081131 C.3        1 MOL1        -0.1435
       9    H6      19.546936   17.796138   20.787948 H          1 MOL1         0.0948
      10    H7      21.253252   18.131432   20.591117 H          1 MOL1         0.0948
      11    C4      20.564929   18.447961   22.614890 C.3        1 MOL1        -0.1435
      12    H8      20.992741   19.399729   22.956043 H          1 MOL1         0.0948
      13    H9      21.321812   17.680509   22.828149 H          1 MOL1         0.0948
      14    C5      19.284116   18.094720   23.414243 C.3        1 MOL1        -0.1435
      15    H10     18.497937   18.836833   23.236326 H          1 MOL1         0.0948
      16    H11     18.884105   17.141535   23.042094 H          1 MOL1         0.0948
      17    C6      19.537497   17.953813   24.937082 C.3        1 MOL1        -0.1500
      18    H12     20.244097   17.129678   25.102820 H          1 MOL1         0.0948
      19    H13     18.601617   17.658341   25.429723 H          1 MOL1         0.0948
      20    C7      20.087840   19.231254   25.609832 C.3        1 MOL1         0.1162
      21    H14     21.029235   19.500242   25.121910 H          1 MOL1         0.0910
      22    C8      20.376900   18.970618   27.096483 C.3        1 MOL1        -0.2491
      23    H15     19.461398   18.701097   27.637895 H          1 MOL1         0.0959
      24    H16     21.097740   18.152089   27.215406 H          1 MOL1         0.0959
      25    H17     20.804653   19.862387   27.570988 H          1 MOL1         0.0959
      26    N1      19.164625   20.407347   25.448292 N.4        1 MOL1        -0.5987
      27    H18     19.555664   21.251541   25.876414 H          1 MOL1         0.3605
      28    H19     18.257750   20.231328   25.889143 H          1 MOL1         0.3605
      29    H20     18.995234   20.611207   24.459942 H          1 MOL1         0.3605
@<TRIPOS>BOND
    1     1     2    1
    2     1     3    1
    3     1     4    1
    4     1     5    1
    5     5     6    1
    6     5     7    1
    7     5     8    1
    8     8     9    1
    9     8    10    1
   10     8    11    1
   11    11    12    1
   12    11    13    1
   13    11    14    1
   14    14    15    1
   15    14    16    1
   16    14    17    1
   17    17    18    1
   18    17    19    1
   19    17    20    1
   20    20    21    1
   21    20    22    1
   22    22    23    1
   23    22    24    1
   24    22    25    1
   25    20    26    1
   26    26    27    1
   27    26    28    1
   28    26    29    1
@<TRIPOS>SUBSTRUCTURE
       1 MOL1            1 RESIDUE      1      MOL     
@<SCITEGIC>MOL_PROPERTY
VM2 Rank
SciTegic.value.IntegerValue
163

@<SCITEGIC>MOL_PROPERTY
Conf_Id
SciTegic.value.IntegerValue
328

@<SCITEGIC>MOL_PROPERTY
Probability
SciTegic.value.DoubleValue
0.00

@<SCITEGIC>MOL_PROPERTY
Sum Probability
SciTegic.value.DoubleValue
99.95

@<SCITEGIC>MOL_PROPERTY
Delta G
SciTegic.value.DoubleValue
4.754

@<SCITEGIC>MOL_PROPERTY
G
SciTegic.value.DoubleValue
38.456

@<SCITEGIC>MOL_PROPERTY
E
SciTegic.value.DoubleValue
0.590

@<SCITEGIC>MOL_PROPERTY
-TS
SciTegic.value.DoubleValue
37.866

@<SCITEGIC>MOL_PROPERTY
U+W
SciTegic.value.DoubleValue
-23.554

@<SCITEGIC>MOL_PROPERTY
U
SciTegic.value.DoubleValue
28.544

@<SCITEGIC>MOL_PROPERTY
W
SciTegic.value.DoubleValue
-52.099

@<SCITEGIC>MOL_PROPERTY
W(PB)
SciTegic.value.DoubleValue
-54.539

@<SCITEGIC>MOL_PROPERTY
W(SA)
SciTegic.value.DoubleValue
2.440

@<SCITEGIC>MOL_PROPERTY
Valence
SciTegic.value.DoubleValue
6.446

@<SCITEGIC>MOL_PROPERTY
Coulomb
SciTegic.value.DoubleValue
21.309

@<SCITEGIC>MOL_PROPERTY
VdW
SciTegic.value.DoubleValue
0.789

@<SCITEGIC>MOL_PROPERTY
VdW6
SciTegic.value.DoubleValue
-10.662

@<SCITEGIC>MOL_PROPERTY
VdW12
SciTegic.value.DoubleValue
11.451

@<SCITEGIC>MOL_PROPERTY
Bond
SciTegic.value.DoubleValue
0.309

@<SCITEGIC>MOL_PROPERTY
Angle
SciTegic.value.DoubleValue
1.905

@<SCITEGIC>MOL_PROPERTY
Pdih
SciTegic.value.DoubleValue
4.233

@<SCITEGIC>MOL_PROPERTY
Idih
SciTegic.value.DoubleValue
0.000

@<SCITEGIC>MOL_PROPERTY
Tether
SciTegic.value.DoubleValue
0.000

@<TRIPOS>MOLECULE
guest-s15_vm2.mol2 : vm2 ligand conformer 164
          29          28           1
SMALL
USER_CHARGES
 
@<TRIPOS>ATOM
       1    C1      19.069182   19.735333   19.382812 C.3        1 MOL1        -0.2426
       2    H1      20.061499   19.898889   18.942586 H          1 MOL1         0.0959
       3    H2      18.668451   18.794688   18.983033 H          1 MOL1         0.0959
       4    H3      18.413568   20.549836   19.048479 H          1 MOL1         0.0959
       5    C2      19.146320   19.695562   20.923688 C.3        1 MOL1        -0.1410
       6    H4      18.136318   19.560823   21.335115 H          1 MOL1         0.0948
       7    H5      19.512486   20.664907   21.287314 H          1 MOL1         0.0948
       8    C3      20.068801   18.556725   21.418657 C.3        1 MOL1        -0.1435
       9    H6      19.727696   17.606332   20.985411 H          1 MOL1         0.0948
      10    H7      21.089033   18.717170   21.043663 H          1 MOL1         0.0948
      11    C4      20.098450   18.411812   22.959776 C.3        1 MOL1        -0.1435
      12    H8      20.693711   17.524304   23.214925 H          1 MOL1         0.0948
      13    H9      19.078069   18.223068   23.314649 H          1 MOL1         0.0948
      14    C5      20.692584   19.646789   23.680385 C.3        1 MOL1        -0.1435
      15    H10     21.620342   19.936410   23.167970 H          1 MOL1         0.0948
      16    H11     20.015763   20.504417   23.576193 H          1 MOL1         0.0948
      17    C6      21.032092   19.426818   25.182028 C.3        1 MOL1        -0.1500
      18    H12     21.500385   20.349698   25.548447 H          1 MOL1         0.0948
      19    H13     21.807183   18.654745   25.275435 H          1 MOL1         0.0948
      20    C7      19.856221   19.099786   26.138831 C.3        1 MOL1         0.1162
      21    H14     20.173006   19.408631   27.139825 H          1 MOL1         0.0910
      22    C8      19.559901   17.591212   26.224966 C.3        1 MOL1        -0.2491
      23    H15     19.164279   17.187735   25.288334 H          1 MOL1         0.0959
      24    H16     20.467414   17.030644   26.481026 H          1 MOL1         0.0959
      25    H17     18.819785   17.393156   27.009922 H          1 MOL1         0.0959
      26    N1      18.612449   19.891963   25.842857 N.4        1 MOL1        -0.5987
      27    H18     18.795722   20.899018   25.873132 H          1 MOL1         0.3605
      28    H19     17.871282   19.693841   26.521168 H          1 MOL1         0.3605
      29    H20     18.249835   19.671726   24.911971 H          1 MOL1         0.3605
@<TRIPOS>BOND
    1     1     2    1
    2     1     3    1
    3     1     4    1
    4     1     5    1
    5     5     6    1
    6     5     7    1
    7     5     8    1
    8     8     9    1
    9     8    10    1
   10     8    11    1
   11    11    12    1
   12    11    13    1
   13    11    14    1
   14    14    15    1
   15    14    16    1
   16    14    17    1
   17    17    18    1
   18    17    19    1
   19    17    20    1
   20    20    21    1
   21    20    22    1
   22    22    23    1
   23    22    24    1
   24    22    25    1
   25    20    26    1
   26    26    27    1
   27    26    28    1
   28    26    29    1
@<TRIPOS>SUBSTRUCTURE
       1 MOL1            1 RESIDUE      1      MOL     
@<SCITEGIC>MOL_PROPERTY
VM2 Rank
SciTegic.value.IntegerValue
164

@<SCITEGIC>MOL_PROPERTY
Conf_Id
SciTegic.value.IntegerValue
342

@<SCITEGIC>MOL_PROPERTY
Probability
SciTegic.value.DoubleValue
0.00

@<SCITEGIC>MOL_PROPERTY
Sum Probability
SciTegic.value.DoubleValue
99.95

@<SCITEGIC>MOL_PROPERTY
Delta G
SciTegic.value.DoubleValue
4.780

@<SCITEGIC>MOL_PROPERTY
G
SciTegic.value.DoubleValue
38.483

@<SCITEGIC>MOL_PROPERTY
E
SciTegic.value.DoubleValue
0.470

@<SCITEGIC>MOL_PROPERTY
-TS
SciTegic.value.DoubleValue
38.013

@<SCITEGIC>MOL_PROPERTY
U+W
SciTegic.value.DoubleValue
-23.675

@<SCITEGIC>MOL_PROPERTY
U
SciTegic.value.DoubleValue
28.749

@<SCITEGIC>MOL_PROPERTY
W
SciTegic.value.DoubleValue
-52.424

@<SCITEGIC>MOL_PROPERTY
W(PB)
SciTegic.value.DoubleValue
-54.870

@<SCITEGIC>MOL_PROPERTY
W(SA)
SciTegic.value.DoubleValue
2.447

@<SCITEGIC>MOL_PROPERTY
Valence
SciTegic.value.DoubleValue
6.743

@<SCITEGIC>MOL_PROPERTY
Coulomb
SciTegic.value.DoubleValue
20.841

@<SCITEGIC>MOL_PROPERTY
VdW
SciTegic.value.DoubleValue
1.164

@<SCITEGIC>MOL_PROPERTY
VdW6
SciTegic.value.DoubleValue
-10.610

@<SCITEGIC>MOL_PROPERTY
VdW12
SciTegic.value.DoubleValue
11.774

@<SCITEGIC>MOL_PROPERTY
Bond
SciTegic.value.DoubleValue
0.335

@<SCITEGIC>MOL_PROPERTY
Angle
SciTegic.value.DoubleValue
2.546

@<SCITEGIC>MOL_PROPERTY
Pdih
SciTegic.value.DoubleValue
3.863

@<SCITEGIC>MOL_PROPERTY
Idih
SciTegic.value.DoubleValue
0.000

@<SCITEGIC>MOL_PROPERTY
Tether
SciTegic.value.DoubleValue
0.000

@<TRIPOS>MOLECULE
guest-s15_vm2.mol2 : vm2 ligand conformer 165
          29          28           1
SMALL
USER_CHARGES
 
@<TRIPOS>ATOM
       1    C1      19.200318   20.351779   20.497969 C.3        1 MOL1        -0.2426
       2    H1      18.913069   21.396323   20.321234 H          1 MOL1         0.0959
       3    H2      19.661468   19.969671   19.578043 H          1 MOL1         0.0959
       4    H3      18.280813   19.782929   20.683889 H          1 MOL1         0.0959
       5    C2      20.177227   20.253307   21.690922 C.3        1 MOL1        -0.1410
       6    H4      19.685658   20.626020   22.597345 H          1 MOL1         0.0948
       7    H5      21.026118   20.927050   21.509192 H          1 MOL1         0.0948
       8    C3      20.724036   18.821257   21.920331 C.3        1 MOL1        -0.1435
       9    H6      21.283543   18.514880   21.025831 H          1 MOL1         0.0948
      10    H7      21.463215   18.835736   22.730995 H          1 MOL1         0.0948
      11    C4      19.649361   17.742433   22.216232 C.3        1 MOL1        -0.1435
      12    H8      20.152659   16.773920   22.341257 H          1 MOL1         0.0948
      13    H9      19.010732   17.623094   21.331012 H          1 MOL1         0.0948
      14    C5      18.743004   17.996842   23.450679 C.3        1 MOL1        -0.1435
      15    H10     18.165424   18.920348   23.321356 H          1 MOL1         0.0948
      16    H11     17.996037   17.191449   23.474332 H          1 MOL1         0.0948
      17    C6      19.487754   17.986225   24.813515 C.3        1 MOL1        -0.1500
      18    H12     20.269453   17.215468   24.788576 H          1 MOL1         0.0948
      19    H13     18.785336   17.675003   25.598147 H          1 MOL1         0.0948
      20    C7      20.103015   19.343029   25.223857 C.3        1 MOL1         0.1162
      21    H14     20.723540   19.712225   24.404318 H          1 MOL1         0.0910
      22    C8      20.998193   19.171007   26.461019 C.3        1 MOL1        -0.2491
      23    H15     21.459612   20.125634   26.742403 H          1 MOL1         0.0959
      24    H16     20.422706   18.802929   27.319672 H          1 MOL1         0.0959
      25    H17     21.806993   18.457317   26.260429 H          1 MOL1         0.0959
      26    N1      19.053092   20.390122   25.479477 N.4        1 MOL1        -0.5987
      27    H18     18.442239   20.120814   26.255393 H          1 MOL1         0.3605
      28    H19     18.460545   20.535527   24.658035 H          1 MOL1         0.3605
      29    H20     19.474429   21.291672   25.721184 H          1 MOL1         0.3605
@<TRIPOS>BOND
    1     1     2    1
    2     1     3    1
    3     1     4    1
    4     1     5    1
    5     5     6    1
    6     5     7    1
    7     5     8    1
    8     8     9    1
    9     8    10    1
   10     8    11    1
   11    11    12    1
   12    11    13    1
   13    11    14    1
   14    14    15    1
   15    14    16    1
   16    14    17    1
   17    17    18    1
   18    17    19    1
   19    17    20    1
   20    20    21    1
   21    20    22    1
   22    22    23    1
   23    22    24    1
   24    22    25    1
   25    20    26    1
   26    26    27    1
   27    26    28    1
   28    26    29    1
@<TRIPOS>SUBSTRUCTURE
       1 MOL1            1 RESIDUE      1      MOL     
@<SCITEGIC>MOL_PROPERTY
VM2 Rank
SciTegic.value.IntegerValue
165

@<SCITEGIC>MOL_PROPERTY
Conf_Id
SciTegic.value.IntegerValue
984

@<SCITEGIC>MOL_PROPERTY
Probability
SciTegic.value.DoubleValue
0.00

@<SCITEGIC>MOL_PROPERTY
Sum Probability
SciTegic.value.DoubleValue
99.95

@<SCITEGIC>MOL_PROPERTY
Delta G
SciTegic.value.DoubleValue
4.785

@<SCITEGIC>MOL_PROPERTY
G
SciTegic.value.DoubleValue
38.487

@<SCITEGIC>MOL_PROPERTY
E
SciTegic.value.DoubleValue
-0.165

@<SCITEGIC>MOL_PROPERTY
-TS
SciTegic.value.DoubleValue
38.652

@<SCITEGIC>MOL_PROPERTY
U+W
SciTegic.value.DoubleValue
-24.309

@<SCITEGIC>MOL_PROPERTY
U
SciTegic.value.DoubleValue
28.628

@<SCITEGIC>MOL_PROPERTY
W
SciTegic.value.DoubleValue
-52.937

@<SCITEGIC>MOL_PROPERTY
W(PB)
SciTegic.value.DoubleValue
-55.336

@<SCITEGIC>MOL_PROPERTY
W(SA)
SciTegic.value.DoubleValue
2.399

@<SCITEGIC>MOL_PROPERTY
Valence
SciTegic.value.DoubleValue
6.751

@<SCITEGIC>MOL_PROPERTY
Coulomb
SciTegic.value.DoubleValue
21.512

@<SCITEGIC>MOL_PROPERTY
VdW
SciTegic.value.DoubleValue
0.364

@<SCITEGIC>MOL_PROPERTY
VdW6
SciTegic.value.DoubleValue
-12.196

@<SCITEGIC>MOL_PROPERTY
VdW12
SciTegic.value.DoubleValue
12.560

@<SCITEGIC>MOL_PROPERTY
Bond
SciTegic.value.DoubleValue
0.349

@<SCITEGIC>MOL_PROPERTY
Angle
SciTegic.value.DoubleValue
2.627

@<SCITEGIC>MOL_PROPERTY
Pdih
SciTegic.value.DoubleValue
3.776

@<SCITEGIC>MOL_PROPERTY
Idih
SciTegic.value.DoubleValue
0.000

@<SCITEGIC>MOL_PROPERTY
Tether
SciTegic.value.DoubleValue
0.000

@<TRIPOS>MOLECULE
guest-s15_vm2.mol2 : vm2 ligand conformer 166
          29          28           1
SMALL
USER_CHARGES
 
@<TRIPOS>ATOM
       1    C1      20.726769   19.284188   19.819527 C.3        1 MOL1        -0.2426
       2    H1      21.582878   19.834660   19.408471 H          1 MOL1         0.0959
       3    H2      21.098928   18.318613   20.182540 H          1 MOL1         0.0959
       4    H3      20.025879   19.093054   18.996603 H          1 MOL1         0.0959
       5    C2      20.051124   20.098953   20.946335 C.3        1 MOL1        -0.1410
       6    H4      19.780991   21.086663   20.547509 H          1 MOL1         0.0948
       7    H5      20.774987   20.282553   21.749446 H          1 MOL1         0.0948
       8    C3      18.770384   19.424764   21.502498 C.3        1 MOL1        -0.1435
       9    H6      18.204856   20.149266   22.104300 H          1 MOL1         0.0948
      10    H7      18.117542   19.176398   20.654362 H          1 MOL1         0.0948
      11    C4      19.018249   18.138462   22.336886 C.3        1 MOL1        -0.1435
      12    H8      19.931735   17.627567   22.008223 H          1 MOL1         0.0948
      13    H9      18.198966   17.436247   22.129818 H          1 MOL1         0.0948
      14    C5      19.064226   18.360467   23.870672 C.3        1 MOL1        -0.1435
      15    H10     18.101727   18.772188   24.202081 H          1 MOL1         0.0948
      16    H11     19.158651   17.376545   24.347276 H          1 MOL1         0.0948
      17    C6      20.221110   19.281665   24.341536 C.3        1 MOL1        -0.1500
      18    H12     20.069813   20.288113   23.933131 H          1 MOL1         0.0948
      19    H13     21.170037   18.918573   23.925342 H          1 MOL1         0.0948
      20    C7      20.366419   19.412771   25.876154 C.3        1 MOL1         0.1162
      21    H14     21.159951   20.142355   26.065279 H          1 MOL1         0.0910
      22    C8      20.789971   18.088466   26.535479 C.3        1 MOL1        -0.2491
      23    H15     19.997873   17.332813   26.477806 H          1 MOL1         0.0959
      24    H16     21.688495   17.682880   26.054119 H          1 MOL1         0.0959
      25    H17     21.023838   18.246500   27.595442 H          1 MOL1         0.0959
      26    N1      19.127748   19.966265   26.524914 N.4        1 MOL1        -0.5987
      27    H18     18.866781   20.871780   26.124265 H          1 MOL1         0.3605
      28    H19     19.261509   20.103098   27.530894 H          1 MOL1         0.3605
      29    H20     18.332446   19.334260   26.403683 H          1 MOL1         0.3605
@<TRIPOS>BOND
    1     1     2    1
    2     1     3    1
    3     1     4    1
    4     1     5    1
    5     5     6    1
    6     5     7    1
    7     5     8    1
    8     8     9    1
    9     8    10    1
   10     8    11    1
   11    11    12    1
   12    11    13    1
   13    11    14    1
   14    14    15    1
   15    14    16    1
   16    14    17    1
   17    17    18    1
   18    17    19    1
   19    17    20    1
   20    20    21    1
   21    20    22    1
   22    22    23    1
   23    22    24    1
   24    22    25    1
   25    20    26    1
   26    26    27    1
   27    26    28    1
   28    26    29    1
@<TRIPOS>SUBSTRUCTURE
       1 MOL1            1 RESIDUE      1      MOL     
@<SCITEGIC>MOL_PROPERTY
VM2 Rank
SciTegic.value.IntegerValue
166

@<SCITEGIC>MOL_PROPERTY
Conf_Id
SciTegic.value.IntegerValue
335

@<SCITEGIC>MOL_PROPERTY
Probability
SciTegic.value.DoubleValue
0.00

@<SCITEGIC>MOL_PROPERTY
Sum Probability
SciTegic.value.DoubleValue
99.96

@<SCITEGIC>MOL_PROPERTY
Delta G
SciTegic.value.DoubleValue
4.792

@<SCITEGIC>MOL_PROPERTY
G
SciTegic.value.DoubleValue
38.494

@<SCITEGIC>MOL_PROPERTY
E
SciTegic.value.DoubleValue
0.552

@<SCITEGIC>MOL_PROPERTY
-TS
SciTegic.value.DoubleValue
37.943

@<SCITEGIC>MOL_PROPERTY
U+W
SciTegic.value.DoubleValue
-23.593

@<SCITEGIC>MOL_PROPERTY
U
SciTegic.value.DoubleValue
28.997

@<SCITEGIC>MOL_PROPERTY
W
SciTegic.value.DoubleValue
-52.589

@<SCITEGIC>MOL_PROPERTY
W(PB)
SciTegic.value.DoubleValue
-55.020

@<SCITEGIC>MOL_PROPERTY
W(SA)
SciTegic.value.DoubleValue
2.431

@<SCITEGIC>MOL_PROPERTY
Valence
SciTegic.value.DoubleValue
7.517

@<SCITEGIC>MOL_PROPERTY
Coulomb
SciTegic.value.DoubleValue
20.090

@<SCITEGIC>MOL_PROPERTY
VdW
SciTegic.value.DoubleValue
1.390

@<SCITEGIC>MOL_PROPERTY
VdW6
SciTegic.value.DoubleValue
-10.733

@<SCITEGIC>MOL_PROPERTY
VdW12
SciTegic.value.DoubleValue
12.123

@<SCITEGIC>MOL_PROPERTY
Bond
SciTegic.value.DoubleValue
0.363

@<SCITEGIC>MOL_PROPERTY
Angle
SciTegic.value.DoubleValue
2.271

@<SCITEGIC>MOL_PROPERTY
Pdih
SciTegic.value.DoubleValue
4.883

@<SCITEGIC>MOL_PROPERTY
Idih
SciTegic.value.DoubleValue
0.000

@<SCITEGIC>MOL_PROPERTY
Tether
SciTegic.value.DoubleValue
0.000

@<TRIPOS>MOLECULE
guest-s15_vm2.mol2 : vm2 ligand conformer 167
          29          28           1
SMALL
USER_CHARGES
 
@<TRIPOS>ATOM
       1    C1      18.640973   18.912816   19.940167 C.3        1 MOL1        -0.2426
       2    H1      17.595639   19.089106   19.655370 H          1 MOL1         0.0959
       3    H2      19.255607   19.015827   19.036503 H          1 MOL1         0.0959
       4    H3      18.717777   17.875952   20.288987 H          1 MOL1         0.0959
       5    C2      19.081479   19.918318   21.028721 C.3        1 MOL1        -0.1410
       6    H4      18.444201   19.801484   21.913731 H          1 MOL1         0.0948
       7    H5      18.902526   20.936256   20.655373 H          1 MOL1         0.0948
       8    C3      20.579160   19.787573   21.408038 C.3        1 MOL1        -0.1435
       9    H6      21.171202   19.807983   20.482663 H          1 MOL1         0.0948
      10    H7      20.894138   20.673666   21.975969 H          1 MOL1         0.0948
      11    C4      20.939030   18.504458   22.205631 C.3        1 MOL1        -0.1435
      12    H8      21.926025   18.159635   21.867748 H          1 MOL1         0.0948
      13    H9      20.246070   17.687956   21.967364 H          1 MOL1         0.0948
      14    C5      21.013353   18.695825   23.742633 C.3        1 MOL1        -0.1435
      15    H10     21.351526   17.747697   24.179093 H          1 MOL1         0.0948
      16    H11     21.788350   19.437270   23.981142 H          1 MOL1         0.0948
      17    C6      19.673841   19.123924   24.394011 C.3        1 MOL1        -0.1500
      18    H12     18.882808   18.412455   24.122470 H          1 MOL1         0.0948
      19    H13     19.380763   20.097055   23.982212 H          1 MOL1         0.0948
      20    C7      19.744329   19.263419   25.932141 C.3        1 MOL1         0.1162
      21    H14     20.588922   19.913675   26.180016 H          1 MOL1         0.0910
      22    C8      19.948527   17.907583   26.632177 C.3        1 MOL1        -0.2491
      23    H15     19.158189   17.197192   26.359391 H          1 MOL1         0.0959
      24    H16     20.915516   17.463024   26.371275 H          1 MOL1         0.0959
      25    H17     19.933437   18.030085   27.722193 H          1 MOL1         0.0959
      26    N1      18.515308   19.942086   26.470480 N.4        1 MOL1        -0.5987
      27    H18     18.381842   20.867675   26.053009 H          1 MOL1         0.3605
      28    H19     18.573863   20.071261   27.484689 H          1 MOL1         0.3605
      29    H20     17.672036   19.393796   26.280684 H          1 MOL1         0.3605
@<TRIPOS>BOND
    1     1     2    1
    2     1     3    1
    3     1     4    1
    4     1     5    1
    5     5     6    1
    6     5     7    1
    7     5     8    1
    8     8     9    1
    9     8    10    1
   10     8    11    1
   11    11    12    1
   12    11    13    1
   13    11    14    1
   14    14    15    1
   15    14    16    1
   16    14    17    1
   17    17    18    1
   18    17    19    1
   19    17    20    1
   20    20    21    1
   21    20    22    1
   22    22    23    1
   23    22    24    1
   24    22    25    1
   25    20    26    1
   26    26    27    1
   27    26    28    1
   28    26    29    1
@<TRIPOS>SUBSTRUCTURE
       1 MOL1            1 RESIDUE      1      MOL     
@<SCITEGIC>MOL_PROPERTY
VM2 Rank
SciTegic.value.IntegerValue
167

@<SCITEGIC>MOL_PROPERTY
Conf_Id
SciTegic.value.IntegerValue
672

@<SCITEGIC>MOL_PROPERTY
Probability
SciTegic.value.DoubleValue
0.00

@<SCITEGIC>MOL_PROPERTY
Sum Probability
SciTegic.value.DoubleValue
99.96

@<SCITEGIC>MOL_PROPERTY
Delta G
SciTegic.value.DoubleValue
4.801

@<SCITEGIC>MOL_PROPERTY
G
SciTegic.value.DoubleValue
38.503

@<SCITEGIC>MOL_PROPERTY
E
SciTegic.value.DoubleValue
0.724

@<SCITEGIC>MOL_PROPERTY
-TS
SciTegic.value.DoubleValue
37.779

@<SCITEGIC>MOL_PROPERTY
U+W
SciTegic.value.DoubleValue
-23.421

@<SCITEGIC>MOL_PROPERTY
U
SciTegic.value.DoubleValue
29.177

@<SCITEGIC>MOL_PROPERTY
W
SciTegic.value.DoubleValue
-52.597

@<SCITEGIC>MOL_PROPERTY
W(PB)
SciTegic.value.DoubleValue
-55.058

@<SCITEGIC>MOL_PROPERTY
W(SA)
SciTegic.value.DoubleValue
2.460

@<SCITEGIC>MOL_PROPERTY
Valence
SciTegic.value.DoubleValue
7.592

@<SCITEGIC>MOL_PROPERTY
Coulomb
SciTegic.value.DoubleValue
20.152

@<SCITEGIC>MOL_PROPERTY
VdW
SciTegic.value.DoubleValue
1.432

@<SCITEGIC>MOL_PROPERTY
VdW6
SciTegic.value.DoubleValue
-10.245

@<SCITEGIC>MOL_PROPERTY
VdW12
SciTegic.value.DoubleValue
11.678

@<SCITEGIC>MOL_PROPERTY
Bond
SciTegic.value.DoubleValue
0.339

@<SCITEGIC>MOL_PROPERTY
Angle
SciTegic.value.DoubleValue
2.240

@<SCITEGIC>MOL_PROPERTY
Pdih
SciTegic.value.DoubleValue
5.013

@<SCITEGIC>MOL_PROPERTY
Idih
SciTegic.value.DoubleValue
0.000

@<SCITEGIC>MOL_PROPERTY
Tether
SciTegic.value.DoubleValue
0.000

@<TRIPOS>MOLECULE
guest-s15_vm2.mol2 : vm2 ligand conformer 168
          29          28           1
SMALL
USER_CHARGES
 
@<TRIPOS>ATOM
       1    C1      18.926332   20.391693   19.891298 C.3        1 MOL1        -0.2426
       2    H1      19.891498   20.573036   19.400569 H          1 MOL1         0.0959
       3    H2      18.171387   20.248247   19.107393 H          1 MOL1         0.0959
       4    H3      18.656471   21.292149   20.458350 H          1 MOL1         0.0959
       5    C2      18.996513   19.155697   20.812692 C.3        1 MOL1        -0.1410
       6    H4      19.233446   18.266411   20.211895 H          1 MOL1         0.0948
       7    H5      18.009225   18.980414   21.262286 H          1 MOL1         0.0948
       8    C3      20.054531   19.331183   21.924089 C.3        1 MOL1        -0.1435
       9    H6      21.039777   19.498420   21.467363 H          1 MOL1         0.0948
      10    H7      19.820544   20.232627   22.503336 H          1 MOL1         0.0948
      11    C4      20.122785   18.094285   22.851741 C.3        1 MOL1        -0.1435
      12    H8      20.352090   17.210560   22.240257 H          1 MOL1         0.0948
      13    H9      19.141481   17.894220   23.297943 H          1 MOL1         0.0948
      14    C5      21.202518   18.207266   23.957969 C.3        1 MOL1        -0.1435
      15    H10     21.236779   17.262858   24.517333 H          1 MOL1         0.0948
      16    H11     22.185252   18.290652   23.473849 H          1 MOL1         0.0948
      17    C6      21.051295   19.392861   24.956046 C.3        1 MOL1        -0.1500
      18    H12     21.170792   20.345164   24.424461 H          1 MOL1         0.0948
      19    H13     21.899652   19.347733   25.651525 H          1 MOL1         0.0948
      20    C7      19.757388   19.444543   25.808563 C.3        1 MOL1         0.1162
      21    H14     19.921570   20.193942   26.589014 H          1 MOL1         0.0910
      22    C8      19.464025   18.108390   26.512730 C.3        1 MOL1        -0.2491
      23    H15     19.194066   17.323362   25.796392 H          1 MOL1         0.0959
      24    H16     20.338195   17.769297   27.082273 H          1 MOL1         0.0959
      25    H17     18.630880   18.220458   27.217283 H          1 MOL1         0.0959
      26    N1      18.560613   19.930084   25.038872 N.4        1 MOL1        -0.5987
      27    H18     18.712143   20.872901   24.669386 H          1 MOL1         0.3605
      28    H19     17.724795   19.963375   25.629763 H          1 MOL1         0.3605
      29    H20     18.359535   19.316431   24.245977 H          1 MOL1         0.3605
@<TRIPOS>BOND
    1     1     2    1
    2     1     3    1
    3     1     4    1
    4     1     5    1
    5     5     6    1
    6     5     7    1
    7     5     8    1
    8     8     9    1
    9     8    10    1
   10     8    11    1
   11    11    12    1
   12    11    13    1
   13    11    14    1
   14    14    15    1
   15    14    16    1
   16    14    17    1
   17    17    18    1
   18    17    19    1
   19    17    20    1
   20    20    21    1
   21    20    22    1
   22    22    23    1
   23    22    24    1
   24    22    25    1
   25    20    26    1
   26    26    27    1
   27    26    28    1
   28    26    29    1
@<TRIPOS>SUBSTRUCTURE
       1 MOL1            1 RESIDUE      1      MOL     
@<SCITEGIC>MOL_PROPERTY
VM2 Rank
SciTegic.value.IntegerValue
168

@<SCITEGIC>MOL_PROPERTY
Conf_Id
SciTegic.value.IntegerValue
282

@<SCITEGIC>MOL_PROPERTY
Probability
SciTegic.value.DoubleValue
0.00

@<SCITEGIC>MOL_PROPERTY
Sum Probability
SciTegic.value.DoubleValue
99.96

@<SCITEGIC>MOL_PROPERTY
Delta G
SciTegic.value.DoubleValue
4.822

@<SCITEGIC>MOL_PROPERTY
G
SciTegic.value.DoubleValue
38.524

@<SCITEGIC>MOL_PROPERTY
E
SciTegic.value.DoubleValue
0.043

@<SCITEGIC>MOL_PROPERTY
-TS
SciTegic.value.DoubleValue
38.480

@<SCITEGIC>MOL_PROPERTY
U+W
SciTegic.value.DoubleValue
-24.101

@<SCITEGIC>MOL_PROPERTY
U
SciTegic.value.DoubleValue
28.029

@<SCITEGIC>MOL_PROPERTY
W
SciTegic.value.DoubleValue
-52.130

@<SCITEGIC>MOL_PROPERTY
W(PB)
SciTegic.value.DoubleValue
-54.543

@<SCITEGIC>MOL_PROPERTY
W(SA)
SciTegic.value.DoubleValue
2.413

@<SCITEGIC>MOL_PROPERTY
Valence
SciTegic.value.DoubleValue
5.578

@<SCITEGIC>MOL_PROPERTY
Coulomb
SciTegic.value.DoubleValue
21.811

@<SCITEGIC>MOL_PROPERTY
VdW
SciTegic.value.DoubleValue
0.640

@<SCITEGIC>MOL_PROPERTY
VdW6
SciTegic.value.DoubleValue
-11.462

@<SCITEGIC>MOL_PROPERTY
VdW12
SciTegic.value.DoubleValue
12.102

@<SCITEGIC>MOL_PROPERTY
Bond
SciTegic.value.DoubleValue
0.349

@<SCITEGIC>MOL_PROPERTY
Angle
SciTegic.value.DoubleValue
2.654

@<SCITEGIC>MOL_PROPERTY
Pdih
SciTegic.value.DoubleValue
2.574

@<SCITEGIC>MOL_PROPERTY
Idih
SciTegic.value.DoubleValue
0.000

@<SCITEGIC>MOL_PROPERTY
Tether
SciTegic.value.DoubleValue
0.000

@<TRIPOS>MOLECULE
guest-s15_vm2.mol2 : vm2 ligand conformer 169
          29          28           1
SMALL
USER_CHARGES
 
@<TRIPOS>ATOM
       1    C1      20.115357   18.701422   19.445163 C.3        1 MOL1        -0.2426
       2    H1      19.785921   18.137509   18.562897 H          1 MOL1         0.0959
       3    H2      20.464858   19.684516   19.103995 H          1 MOL1         0.0959
       4    H3      20.967610   18.164532   19.879682 H          1 MOL1         0.0959
       5    C2      18.957279   18.844348   20.458607 C.3        1 MOL1        -0.1410
       6    H4      18.648442   17.849834   20.809697 H          1 MOL1         0.0948
       7    H5      18.086587   19.271907   19.942034 H          1 MOL1         0.0948
       8    C3      19.304917   19.742344   21.670466 C.3        1 MOL1        -0.1435
       9    H6      19.595245   20.740211   21.314121 H          1 MOL1         0.0948
      10    H7      18.392952   19.882694   22.264205 H          1 MOL1         0.0948
      11    C4      20.429914   19.161011   22.564708 C.3        1 MOL1        -0.1435
      12    H8      21.353704   19.089101   21.976145 H          1 MOL1         0.0948
      13    H9      20.173312   18.136829   22.861149 H          1 MOL1         0.0948
      14    C5      20.724875   20.030843   23.814420 C.3        1 MOL1        -0.1435
      15    H10     21.698643   19.747965   24.237615 H          1 MOL1         0.0948
      16    H11     20.839928   21.074338   23.489971 H          1 MOL1         0.0948
      17    C6      19.640552   19.963539   24.925503 C.3        1 MOL1        -0.1500
      18    H12     18.657075   19.729583   24.500833 H          1 MOL1         0.0948
      19    H13     19.546455   20.967027   25.361060 H          1 MOL1         0.0948
      20    C7      19.959625   18.982747   26.079107 C.3        1 MOL1         0.1162
      21    H14     20.925566   19.264993   26.509055 H          1 MOL1         0.0910
      22    C8      20.051660   17.521506   25.608253 C.3        1 MOL1        -0.2491
      23    H15     20.201888   16.848622   26.461442 H          1 MOL1         0.0959
      24    H16     19.136411   17.213135   25.087801 H          1 MOL1         0.0959
      25    H17     20.902191   17.379077   24.931714 H          1 MOL1         0.0959
      26    N1      18.951823   19.108240   27.187774 N.4        1 MOL1        -0.5987
      27    H18     19.183450   18.495104   27.974586 H          1 MOL1         0.3605
      28    H19     18.012526   18.855121   26.869455 H          1 MOL1         0.3605
      29    H20     18.906958   20.065041   27.550233 H          1 MOL1         0.3605
@<TRIPOS>BOND
    1     1     2    1
    2     1     3    1
    3     1     4    1
    4     1     5    1
    5     5     6    1
    6     5     7    1
    7     5     8    1
    8     8     9    1
    9     8    10    1
   10     8    11    1
   11    11    12    1
   12    11    13    1
   13    11    14    1
   14    14    15    1
   15    14    16    1
   16    14    17    1
   17    17    18    1
   18    17    19    1
   19    17    20    1
   20    20    21    1
   21    20    22    1
   22    22    23    1
   23    22    24    1
   24    22    25    1
   25    20    26    1
   26    26    27    1
   27    26    28    1
   28    26    29    1
@<TRIPOS>SUBSTRUCTURE
       1 MOL1            1 RESIDUE      1      MOL     
@<SCITEGIC>MOL_PROPERTY
VM2 Rank
SciTegic.value.IntegerValue
169

@<SCITEGIC>MOL_PROPERTY
Conf_Id
SciTegic.value.IntegerValue
1324

@<SCITEGIC>MOL_PROPERTY
Probability
SciTegic.value.DoubleValue
0.00

@<SCITEGIC>MOL_PROPERTY
Sum Probability
SciTegic.value.DoubleValue
99.97

@<SCITEGIC>MOL_PROPERTY
Delta G
SciTegic.value.DoubleValue
4.841

@<SCITEGIC>MOL_PROPERTY
G
SciTegic.value.DoubleValue
38.543

@<SCITEGIC>MOL_PROPERTY
E
SciTegic.value.DoubleValue
0.671

@<SCITEGIC>MOL_PROPERTY
-TS
SciTegic.value.DoubleValue
37.872

@<SCITEGIC>MOL_PROPERTY
U+W
SciTegic.value.DoubleValue
-23.474

@<SCITEGIC>MOL_PROPERTY
U
SciTegic.value.DoubleValue
28.780

@<SCITEGIC>MOL_PROPERTY
W
SciTegic.value.DoubleValue
-52.254

@<SCITEGIC>MOL_PROPERTY
W(PB)
SciTegic.value.DoubleValue
-54.715

@<SCITEGIC>MOL_PROPERTY
W(SA)
SciTegic.value.DoubleValue
2.461

@<SCITEGIC>MOL_PROPERTY
Valence
SciTegic.value.DoubleValue
7.565

@<SCITEGIC>MOL_PROPERTY
Coulomb
SciTegic.value.DoubleValue
19.822

@<SCITEGIC>MOL_PROPERTY
VdW
SciTegic.value.DoubleValue
1.393

@<SCITEGIC>MOL_PROPERTY
VdW6
SciTegic.value.DoubleValue
-10.248

@<SCITEGIC>MOL_PROPERTY
VdW12
SciTegic.value.DoubleValue
11.641

@<SCITEGIC>MOL_PROPERTY
Bond
SciTegic.value.DoubleValue
0.340

@<SCITEGIC>MOL_PROPERTY
Angle
SciTegic.value.DoubleValue
2.097

@<SCITEGIC>MOL_PROPERTY
Pdih
SciTegic.value.DoubleValue
5.128

@<SCITEGIC>MOL_PROPERTY
Idih
SciTegic.value.DoubleValue
0.000

@<SCITEGIC>MOL_PROPERTY
Tether
SciTegic.value.DoubleValue
0.000

@<TRIPOS>MOLECULE
guest-s15_vm2.mol2 : vm2 ligand conformer 170
          29          28           1
SMALL
USER_CHARGES
 
@<TRIPOS>ATOM
       1    C1      19.042982   18.901142   19.535926 C.3        1 MOL1        -0.2426
       2    H1      18.954326   19.957155   19.249580 H          1 MOL1         0.0959
       3    H2      19.077732   18.305306   18.614683 H          1 MOL1         0.0959
       4    H3      18.134399   18.614089   20.079471 H          1 MOL1         0.0959
       5    C2      20.312568   18.659948   20.383664 C.3        1 MOL1        -0.1410
       6    H4      21.196075   18.839973   19.755361 H          1 MOL1         0.0948
       7    H5      20.360369   17.604429   20.685813 H          1 MOL1         0.0948
       8    C3      20.401203   19.566903   21.634882 C.3        1 MOL1        -0.1435
       9    H6      21.383888   19.413212   22.097781 H          1 MOL1         0.0948
      10    H7      20.369390   20.620493   21.325158 H          1 MOL1         0.0948
      11    C4      19.282111   19.294919   22.672763 C.3        1 MOL1        -0.1435
      12    H8      19.269359   18.229678   22.931515 H          1 MOL1         0.0948
      13    H9      18.309014   19.509906   22.212601 H          1 MOL1         0.0948
      14    C5      19.407316   20.165366   23.950561 C.3        1 MOL1        -0.1435
      15    H10     19.543934   21.210713   23.641007 H          1 MOL1         0.0948
      16    H11     18.454510   20.146866   24.494929 H          1 MOL1         0.0948
      17    C6      20.571546   19.769766   24.905372 C.3        1 MOL1        -0.1500
      18    H12     20.974015   20.687527   25.353780 H          1 MOL1         0.0948
      19    H13     21.405019   19.337862   24.339397 H          1 MOL1         0.0948
      20    C7      20.201474   18.811669   26.064660 C.3        1 MOL1         0.1162
      21    H14     21.118155   18.626571   26.633118 H          1 MOL1         0.0910
      22    C8      19.681870   17.451598   25.571703 C.3        1 MOL1        -0.2491
      23    H15     18.700997   17.546527   25.091010 H          1 MOL1         0.0959
      24    H16     20.380546   17.003914   24.854125 H          1 MOL1         0.0959
      25    H17     19.575976   16.754569   26.411961 H          1 MOL1         0.0959
      26    N1      19.234931   19.434690   27.034469 N.4        1 MOL1        -0.5987
      27    H18     19.596253   20.315851   27.410860 H          1 MOL1         0.3605
      28    H19     19.050978   18.815207   27.828825 H          1 MOL1         0.3605
      29    H20     18.337082   19.635836   26.587599 H          1 MOL1         0.3605
@<TRIPOS>BOND
    1     1     2    1
    2     1     3    1
    3     1     4    1
    4     1     5    1
    5     5     6    1
    6     5     7    1
    7     5     8    1
    8     8     9    1
    9     8    10    1
   10     8    11    1
   11    11    12    1
   12    11    13    1
   13    11    14    1
   14    14    15    1
   15    14    16    1
   16    14    17    1
   17    17    18    1
   18    17    19    1
   19    17    20    1
   20    20    21    1
   21    20    22    1
   22    22    23    1
   23    22    24    1
   24    22    25    1
   25    20    26    1
   26    26    27    1
   27    26    28    1
   28    26    29    1
@<TRIPOS>SUBSTRUCTURE
       1 MOL1            1 RESIDUE      1      MOL     
@<SCITEGIC>MOL_PROPERTY
VM2 Rank
SciTegic.value.IntegerValue
170

@<SCITEGIC>MOL_PROPERTY
Conf_Id
SciTegic.value.IntegerValue
1197

@<SCITEGIC>MOL_PROPERTY
Probability
SciTegic.value.DoubleValue
0.00

@<SCITEGIC>MOL_PROPERTY
Sum Probability
SciTegic.value.DoubleValue
99.97

@<SCITEGIC>MOL_PROPERTY
Delta G
SciTegic.value.DoubleValue
4.851

@<SCITEGIC>MOL_PROPERTY
G
SciTegic.value.DoubleValue
38.553

@<SCITEGIC>MOL_PROPERTY
E
SciTegic.value.DoubleValue
0.643

@<SCITEGIC>MOL_PROPERTY
-TS
SciTegic.value.DoubleValue
37.910

@<SCITEGIC>MOL_PROPERTY
U+W
SciTegic.value.DoubleValue
-23.502

@<SCITEGIC>MOL_PROPERTY
U
SciTegic.value.DoubleValue
28.852

@<SCITEGIC>MOL_PROPERTY
W
SciTegic.value.DoubleValue
-52.354

@<SCITEGIC>MOL_PROPERTY
W(PB)
SciTegic.value.DoubleValue
-54.783

@<SCITEGIC>MOL_PROPERTY
W(SA)
SciTegic.value.DoubleValue
2.429

@<SCITEGIC>MOL_PROPERTY
Valence
SciTegic.value.DoubleValue
7.578

@<SCITEGIC>MOL_PROPERTY
Coulomb
SciTegic.value.DoubleValue
19.889

@<SCITEGIC>MOL_PROPERTY
VdW
SciTegic.value.DoubleValue
1.385

@<SCITEGIC>MOL_PROPERTY
VdW6
SciTegic.value.DoubleValue
-10.700

@<SCITEGIC>MOL_PROPERTY
VdW12
SciTegic.value.DoubleValue
12.085

@<SCITEGIC>MOL_PROPERTY
Bond
SciTegic.value.DoubleValue
0.383

@<SCITEGIC>MOL_PROPERTY
Angle
SciTegic.value.DoubleValue
2.314

@<SCITEGIC>MOL_PROPERTY
Pdih
SciTegic.value.DoubleValue
4.882

@<SCITEGIC>MOL_PROPERTY
Idih
SciTegic.value.DoubleValue
0.000

@<SCITEGIC>MOL_PROPERTY
Tether
SciTegic.value.DoubleValue
0.000

@<TRIPOS>MOLECULE
guest-s15_vm2.mol2 : vm2 ligand conformer 171
          29          28           1
SMALL
USER_CHARGES
 
@<TRIPOS>ATOM
       1    C1      21.418862   19.520144   21.383932 C.3        1 MOL1        -0.2426
       2    H1      21.451548   20.498041   20.886413 H          1 MOL1         0.0959
       3    H2      21.441332   19.687533   22.466834 H          1 MOL1         0.0959
       4    H3      22.332630   18.975377   21.113752 H          1 MOL1         0.0959
       5    C2      20.166333   18.723041   20.954097 C.3        1 MOL1        -0.1410
       6    H4      20.149072   17.743417   21.447209 H          1 MOL1         0.0948
       7    H5      20.240699   18.509740   19.878662 H          1 MOL1         0.0948
       8    C3      18.838210   19.475982   21.211083 C.3        1 MOL1        -0.1435
       9    H6      18.836629   20.392778   20.605593 H          1 MOL1         0.0948
      10    H7      18.007783   18.867093   20.828103 H          1 MOL1         0.0948
      11    C4      18.540086   19.862578   22.685017 C.3        1 MOL1        -0.1435
      12    H8      17.610733   20.448652   22.678005 H          1 MOL1         0.0948
      13    H9      19.305035   20.550672   23.063595 H          1 MOL1         0.0948
      14    C5      18.326630   18.662488   23.649154 C.3        1 MOL1        -0.1435
      15    H10     17.579643   18.948892   24.401277 H          1 MOL1         0.0948
      16    H11     17.872267   17.827719   23.098219 H          1 MOL1         0.0948
      17    C6      19.598048   18.159862   24.386927 C.3        1 MOL1        -0.1500
      18    H12     20.319973   17.771751   23.660972 H          1 MOL1         0.0948
      19    H13     19.321995   17.304280   25.017379 H          1 MOL1         0.0948
      20    C7      20.292169   19.225969   25.264632 C.3        1 MOL1         0.1162
      21    H14     20.575550   20.069110   24.628720 H          1 MOL1         0.0910
      22    C8      21.572851   18.651153   25.889875 C.3        1 MOL1        -0.2491
      23    H15     21.347550   17.801707   26.546830 H          1 MOL1         0.0959
      24    H16     22.265700   18.307119   25.111782 H          1 MOL1         0.0959
      25    H17     22.091403   19.414143   26.483442 H          1 MOL1         0.0959
      26    N1      19.382810   19.774783   26.329282 N.4        1 MOL1        -0.5987
      27    H18     19.850195   20.495190   26.887026 H          1 MOL1         0.3605
      28    H19     19.075455   19.039902   26.971860 H          1 MOL1         0.3605
      29    H20     18.545258   20.197446   25.919669 H          1 MOL1         0.3605
@<TRIPOS>BOND
    1     1     2    1
    2     1     3    1
    3     1     4    1
    4     1     5    1
    5     5     6    1
    6     5     7    1
    7     5     8    1
    8     8     9    1
    9     8    10    1
   10     8    11    1
   11    11    12    1
   12    11    13    1
   13    11    14    1
   14    14    15    1
   15    14    16    1
   16    14    17    1
   17    17    18    1
   18    17    19    1
   19    17    20    1
   20    20    21    1
   21    20    22    1
   22    22    23    1
   23    22    24    1
   24    22    25    1
   25    20    26    1
   26    26    27    1
   27    26    28    1
   28    26    29    1
@<TRIPOS>SUBSTRUCTURE
       1 MOL1            1 RESIDUE      1      MOL     
@<SCITEGIC>MOL_PROPERTY
VM2 Rank
SciTegic.value.IntegerValue
171

@<SCITEGIC>MOL_PROPERTY
Conf_Id
SciTegic.value.IntegerValue
271

@<SCITEGIC>MOL_PROPERTY
Probability
SciTegic.value.DoubleValue
0.00

@<SCITEGIC>MOL_PROPERTY
Sum Probability
SciTegic.value.DoubleValue
99.97

@<SCITEGIC>MOL_PROPERTY
Delta G
SciTegic.value.DoubleValue
4.894

@<SCITEGIC>MOL_PROPERTY
G
SciTegic.value.DoubleValue
38.596

@<SCITEGIC>MOL_PROPERTY
E
SciTegic.value.DoubleValue
0.018

@<SCITEGIC>MOL_PROPERTY
-TS
SciTegic.value.DoubleValue
38.577

@<SCITEGIC>MOL_PROPERTY
U+W
SciTegic.value.DoubleValue
-24.126

@<SCITEGIC>MOL_PROPERTY
U
SciTegic.value.DoubleValue
28.539

@<SCITEGIC>MOL_PROPERTY
W
SciTegic.value.DoubleValue
-52.665

@<SCITEGIC>MOL_PROPERTY
W(PB)
SciTegic.value.DoubleValue
-55.022

@<SCITEGIC>MOL_PROPERTY
W(SA)
SciTegic.value.DoubleValue
2.357

@<SCITEGIC>MOL_PROPERTY
Valence
SciTegic.value.DoubleValue
7.210

@<SCITEGIC>MOL_PROPERTY
Coulomb
SciTegic.value.DoubleValue
20.792

@<SCITEGIC>MOL_PROPERTY
VdW
SciTegic.value.DoubleValue
0.537

@<SCITEGIC>MOL_PROPERTY
VdW6
SciTegic.value.DoubleValue
-12.023

@<SCITEGIC>MOL_PROPERTY
VdW12
SciTegic.value.DoubleValue
12.561

@<SCITEGIC>MOL_PROPERTY
Bond
SciTegic.value.DoubleValue
0.379

@<SCITEGIC>MOL_PROPERTY
Angle
SciTegic.value.DoubleValue
2.779

@<SCITEGIC>MOL_PROPERTY
Pdih
SciTegic.value.DoubleValue
4.051

@<SCITEGIC>MOL_PROPERTY
Idih
SciTegic.value.DoubleValue
0.000

@<SCITEGIC>MOL_PROPERTY
Tether
SciTegic.value.DoubleValue
0.000

@<TRIPOS>MOLECULE
guest-s15_vm2.mol2 : vm2 ligand conformer 172
          29          28           1
SMALL
USER_CHARGES
 
@<TRIPOS>ATOM
       1    C1      20.547789   20.444525   20.700146 C.3        1 MOL1        -0.2426
       2    H1      20.580451   21.537736   20.607454 H          1 MOL1         0.0959
       3    H2      21.314801   20.149767   21.426163 H          1 MOL1         0.0959
       4    H3      20.819149   20.017149   19.726176 H          1 MOL1         0.0959
       5    C2      19.138828   19.979498   21.133750 C.3        1 MOL1        -0.1410
       6    H4      18.407190   20.360287   20.407610 H          1 MOL1         0.0948
       7    H5      18.865840   20.433005   22.094866 H          1 MOL1         0.0948
       8    C3      18.998874   18.439535   21.208341 C.3        1 MOL1        -0.1435
       9    H6      17.949664   18.190162   21.418137 H          1 MOL1         0.0948
      10    H7      19.210015   18.020767   20.214785 H          1 MOL1         0.0948
      11    C4      19.901765   17.723268   22.248711 C.3        1 MOL1        -0.1435
      12    H8      20.963399   17.890086   22.023950 H          1 MOL1         0.0948
      13    H9      19.746198   16.642988   22.121834 H          1 MOL1         0.0948
      14    C5      19.593554   18.075338   23.727916 C.3        1 MOL1        -0.1435
      15    H10     18.534517   18.344961   23.831505 H          1 MOL1         0.0948
      16    H11     19.736273   17.165516   24.325484 H          1 MOL1         0.0948
      17    C6      20.507671   19.192369   24.302664 C.3        1 MOL1        -0.1500
      18    H12     20.438747   20.091481   23.681871 H          1 MOL1         0.0948
      19    H13     21.554669   18.867545   24.241396 H          1 MOL1         0.0948
      20    C7      20.199688   19.596008   25.763846 C.3        1 MOL1         0.1162
      21    H14     20.893292   20.398965   26.032029 H          1 MOL1         0.0910
      22    C8      20.429567   18.436009   26.748180 C.3        1 MOL1        -0.2491
      23    H15     19.699051   17.631044   26.604673 H          1 MOL1         0.0959
      24    H16     21.435111   18.014594   26.626321 H          1 MOL1         0.0959
      25    H17     20.339929   18.788311   27.783086 H          1 MOL1         0.0959
      26    N1      18.818264   20.169450   25.920447 N.4        1 MOL1        -0.5987
      27    H18     18.673382   20.973580   25.303346 H          1 MOL1         0.3605
      28    H19     18.651490   20.485471   26.880121 H          1 MOL1         0.3605
      29    H20     18.101316   19.474853   25.696771 H          1 MOL1         0.3605
@<TRIPOS>BOND
    1     1     2    1
    2     1     3    1
    3     1     4    1
    4     1     5    1
    5     5     6    1
    6     5     7    1
    7     5     8    1
    8     8     9    1
    9     8    10    1
   10     8    11    1
   11    11    12    1
   12    11    13    1
   13    11    14    1
   14    14    15    1
   15    14    16    1
   16    14    17    1
   17    17    18    1
   18    17    19    1
   19    17    20    1
   20    20    21    1
   21    20    22    1
   22    22    23    1
   23    22    24    1
   24    22    25    1
   25    20    26    1
   26    26    27    1
   27    26    28    1
   28    26    29    1
@<TRIPOS>SUBSTRUCTURE
       1 MOL1            1 RESIDUE      1      MOL     
@<SCITEGIC>MOL_PROPERTY
VM2 Rank
SciTegic.value.IntegerValue
172

@<SCITEGIC>MOL_PROPERTY
Conf_Id
SciTegic.value.IntegerValue
1009

@<SCITEGIC>MOL_PROPERTY
Probability
SciTegic.value.DoubleValue
0.00

@<SCITEGIC>MOL_PROPERTY
Sum Probability
SciTegic.value.DoubleValue
99.97

@<SCITEGIC>MOL_PROPERTY
Delta G
SciTegic.value.DoubleValue
4.934

@<SCITEGIC>MOL_PROPERTY
G
SciTegic.value.DoubleValue
38.636

@<SCITEGIC>MOL_PROPERTY
E
SciTegic.value.DoubleValue
0.284

@<SCITEGIC>MOL_PROPERTY
-TS
SciTegic.value.DoubleValue
38.352

@<SCITEGIC>MOL_PROPERTY
U+W
SciTegic.value.DoubleValue
-23.860

@<SCITEGIC>MOL_PROPERTY
U
SciTegic.value.DoubleValue
28.974

@<SCITEGIC>MOL_PROPERTY
W
SciTegic.value.DoubleValue
-52.835

@<SCITEGIC>MOL_PROPERTY
W(PB)
SciTegic.value.DoubleValue
-55.218

@<SCITEGIC>MOL_PROPERTY
W(SA)
SciTegic.value.DoubleValue
2.383

@<SCITEGIC>MOL_PROPERTY
Valence
SciTegic.value.DoubleValue
7.347

@<SCITEGIC>MOL_PROPERTY
Coulomb
SciTegic.value.DoubleValue
20.626

@<SCITEGIC>MOL_PROPERTY
VdW
SciTegic.value.DoubleValue
1.002

@<SCITEGIC>MOL_PROPERTY
VdW6
SciTegic.value.DoubleValue
-11.327

@<SCITEGIC>MOL_PROPERTY
VdW12
SciTegic.value.DoubleValue
12.329

@<SCITEGIC>MOL_PROPERTY
Bond
SciTegic.value.DoubleValue
0.364

@<SCITEGIC>MOL_PROPERTY
Angle
SciTegic.value.DoubleValue
2.515

@<SCITEGIC>MOL_PROPERTY
Pdih
SciTegic.value.DoubleValue
4.468

@<SCITEGIC>MOL_PROPERTY
Idih
SciTegic.value.DoubleValue
0.000

@<SCITEGIC>MOL_PROPERTY
Tether
SciTegic.value.DoubleValue
0.000

@<TRIPOS>MOLECULE
guest-s15_vm2.mol2 : vm2 ligand conformer 173
          29          28           1
SMALL
USER_CHARGES
 
@<TRIPOS>ATOM
       1    C1      18.396690   19.621726   20.760948 C.3        1 MOL1        -0.2426
       2    H1      18.111852   20.594106   21.183019 H          1 MOL1         0.0959
       3    H2      17.896760   19.521965   19.788853 H          1 MOL1         0.0959
       4    H3      18.000848   18.836591   21.413070 H          1 MOL1         0.0959
       5    C2      19.929669   19.518848   20.589427 C.3        1 MOL1        -0.1410
       6    H4      20.233131   20.266752   19.843507 H          1 MOL1         0.0948
       7    H5      20.199996   18.542468   20.164040 H          1 MOL1         0.0948
       8    C3      20.730944   19.779805   21.891485 C.3        1 MOL1        -0.1435
       9    H6      21.690581   20.231147   21.603990 H          1 MOL1         0.0948
      10    H7      20.229321   20.537607   22.507249 H          1 MOL1         0.0948
      11    C4      21.058227   18.512659   22.727010 C.3        1 MOL1        -0.1435
      12    H8      21.776274   18.788419   23.510772 H          1 MOL1         0.0948
      13    H9      21.589278   17.793931   22.087980 H          1 MOL1         0.0948
      14    C5      19.850076   17.795257   23.383025 C.3        1 MOL1        -0.1435
      15    H10     19.206392   17.373962   22.601228 H          1 MOL1         0.0948
      16    H11     20.220348   16.925872   23.942163 H          1 MOL1         0.0948
      17    C6      18.999715   18.686192   24.328555 C.3        1 MOL1        -0.1500
      18    H12     18.206977   18.073710   24.777920 H          1 MOL1         0.0948
      19    H13     18.485718   19.448945   23.731326 H          1 MOL1         0.0948
      20    C7      19.798000   19.391266   25.449710 C.3        1 MOL1         0.1162
      21    H14     20.594220   19.981386   24.986311 H          1 MOL1         0.0910
      22    C8      20.438845   18.385305   26.422229 C.3        1 MOL1        -0.2491
      23    H15     19.680743   17.735848   26.877310 H          1 MOL1         0.0959
      24    H16     21.172816   17.750827   25.912025 H          1 MOL1         0.0959
      25    H17     20.966509   18.909531   27.228454 H          1 MOL1         0.0959
      26    N1      18.933834   20.364941   26.201611 N.4        1 MOL1        -0.5987
      27    H18     18.158781   19.890061   26.672245 H          1 MOL1         0.3605
      28    H19     18.530244   21.070509   25.578759 H          1 MOL1         0.3605
      29    H20     19.468483   20.861980   26.919775 H          1 MOL1         0.3605
@<TRIPOS>BOND
    1     1     2    1
    2     1     3    1
    3     1     4    1
    4     1     5    1
    5     5     6    1
    6     5     7    1
    7     5     8    1
    8     8     9    1
    9     8    10    1
   10     8    11    1
   11    11    12    1
   12    11    13    1
   13    11    14    1
   14    14    15    1
   15    14    16    1
   16    14    17    1
   17    17    18    1
   18    17    19    1
   19    17    20    1
   20    20    21    1
   21    20    22    1
   22    22    23    1
   23    22    24    1
   24    22    25    1
   25    20    26    1
   26    26    27    1
   27    26    28    1
   28    26    29    1
@<TRIPOS>SUBSTRUCTURE
       1 MOL1            1 RESIDUE      1      MOL     
@<SCITEGIC>MOL_PROPERTY
VM2 Rank
SciTegic.value.IntegerValue
173

@<SCITEGIC>MOL_PROPERTY
Conf_Id
SciTegic.value.IntegerValue
928

@<SCITEGIC>MOL_PROPERTY
Probability
SciTegic.value.DoubleValue
0.00

@<SCITEGIC>MOL_PROPERTY
Sum Probability
SciTegic.value.DoubleValue
99.98

@<SCITEGIC>MOL_PROPERTY
Delta G
SciTegic.value.DoubleValue
4.980

@<SCITEGIC>MOL_PROPERTY
G
SciTegic.value.DoubleValue
38.683

@<SCITEGIC>MOL_PROPERTY
E
SciTegic.value.DoubleValue
0.090

@<SCITEGIC>MOL_PROPERTY
-TS
SciTegic.value.DoubleValue
38.593

@<SCITEGIC>MOL_PROPERTY
U+W
SciTegic.value.DoubleValue
-24.055

@<SCITEGIC>MOL_PROPERTY
U
SciTegic.value.DoubleValue
28.921

@<SCITEGIC>MOL_PROPERTY
W
SciTegic.value.DoubleValue
-52.976

@<SCITEGIC>MOL_PROPERTY
W(PB)
SciTegic.value.DoubleValue
-55.346

@<SCITEGIC>MOL_PROPERTY
W(SA)
SciTegic.value.DoubleValue
2.370

@<SCITEGIC>MOL_PROPERTY
Valence
SciTegic.value.DoubleValue
7.503

@<SCITEGIC>MOL_PROPERTY
Coulomb
SciTegic.value.DoubleValue
20.758

@<SCITEGIC>MOL_PROPERTY
VdW
SciTegic.value.DoubleValue
0.659

@<SCITEGIC>MOL_PROPERTY
VdW6
SciTegic.value.DoubleValue
-12.103

@<SCITEGIC>MOL_PROPERTY
VdW12
SciTegic.value.DoubleValue
12.762

@<SCITEGIC>MOL_PROPERTY
Bond
SciTegic.value.DoubleValue
0.368

@<SCITEGIC>MOL_PROPERTY
Angle
SciTegic.value.DoubleValue
2.905

@<SCITEGIC>MOL_PROPERTY
Pdih
SciTegic.value.DoubleValue
4.231

@<SCITEGIC>MOL_PROPERTY
Idih
SciTegic.value.DoubleValue
0.000

@<SCITEGIC>MOL_PROPERTY
Tether
SciTegic.value.DoubleValue
0.000

@<TRIPOS>MOLECULE
guest-s15_vm2.mol2 : vm2 ligand conformer 174
          29          28           1
SMALL
USER_CHARGES
 
@<TRIPOS>ATOM
       1    C1      20.847020   20.572982   21.284046 C.3        1 MOL1        -0.2426
       2    H1      20.436365   21.119228   22.141278 H          1 MOL1         0.0959
       3    H2      21.908540   20.840300   21.202710 H          1 MOL1         0.0959
       4    H3      20.342211   20.929113   20.376688 H          1 MOL1         0.0959
       5    C2      20.687084   19.043654   21.443930 C.3        1 MOL1        -0.1410
       6    H4      21.189763   18.714143   22.359334 H          1 MOL1         0.0948
       7    H5      21.222470   18.552762   20.619303 H          1 MOL1         0.0948
       8    C3      19.211078   18.567151   21.414086 C.3        1 MOL1        -0.1435
       9    H6      18.770697   18.902965   20.465112 H          1 MOL1         0.0948
      10    H7      19.182245   17.469596   21.377313 H          1 MOL1         0.0948
      11    C4      18.306914   19.067520   22.574584 C.3        1 MOL1        -0.1435
      12    H8      17.278749   19.117565   22.190345 H          1 MOL1         0.0948
      13    H9      18.553900   20.098332   22.853260 H          1 MOL1         0.0948
      14    C5      18.274645   18.151128   23.827988 C.3        1 MOL1        -0.1435
      15    H10     17.505094   18.527820   24.515063 H          1 MOL1         0.0948
      16    H11     17.933805   17.150137   23.529839 H          1 MOL1         0.0948
      17    C6      19.611672   18.011119   24.599712 C.3        1 MOL1        -0.1500
      18    H12     20.321730   17.442718   23.987063 H          1 MOL1         0.0948
      19    H13     19.441296   17.400733   25.496435 H          1 MOL1         0.0948
      20    C7      20.242553   19.358415   25.015253 C.3        1 MOL1         0.1162
      21    H14     20.393816   19.959429   24.114134 H          1 MOL1         0.0910
      22    C8      21.611610   19.129389   25.673999 C.3        1 MOL1        -0.2491
      23    H15     21.516741   18.532257   26.589594 H          1 MOL1         0.0959
      24    H16     22.289409   18.602409   24.990961 H          1 MOL1         0.0959
      25    H17     22.080885   20.085574   25.936372 H          1 MOL1         0.0959
      26    N1      19.343423   20.154641   25.920402 N.4        1 MOL1        -0.5987
      27    H18     19.161515   19.656574   26.795778 H          1 MOL1         0.3605
      28    H19     18.439563   20.338477   25.476488 H          1 MOL1         0.3605
      29    H20     19.759103   21.058725   26.161936 H          1 MOL1         0.3605
@<TRIPOS>BOND
    1     1     2    1
    2     1     3    1
    3     1     4    1
    4     1     5    1
    5     5     6    1
    6     5     7    1
    7     5     8    1
    8     8     9    1
    9     8    10    1
   10     8    11    1
   11    11    12    1
   12    11    13    1
   13    11    14    1
   14    14    15    1
   15    14    16    1
   16    14    17    1
   17    17    18    1
   18    17    19    1
   19    17    20    1
   20    20    21    1
   21    20    22    1
   22    22    23    1
   23    22    24    1
   24    22    25    1
   25    20    26    1
   26    26    27    1
   27    26    28    1
   28    26    29    1
@<TRIPOS>SUBSTRUCTURE
       1 MOL1            1 RESIDUE      1      MOL     
@<SCITEGIC>MOL_PROPERTY
VM2 Rank
SciTegic.value.IntegerValue
174

@<SCITEGIC>MOL_PROPERTY
Conf_Id
SciTegic.value.IntegerValue
1690

@<SCITEGIC>MOL_PROPERTY
Probability
SciTegic.value.DoubleValue
0.00

@<SCITEGIC>MOL_PROPERTY
Sum Probability
SciTegic.value.DoubleValue
99.98

@<SCITEGIC>MOL_PROPERTY
Delta G
SciTegic.value.DoubleValue
4.992

@<SCITEGIC>MOL_PROPERTY
G
SciTegic.value.DoubleValue
38.694

@<SCITEGIC>MOL_PROPERTY
E
SciTegic.value.DoubleValue
0.027

@<SCITEGIC>MOL_PROPERTY
-TS
SciTegic.value.DoubleValue
38.667

@<SCITEGIC>MOL_PROPERTY
U+W
SciTegic.value.DoubleValue
-24.117

@<SCITEGIC>MOL_PROPERTY
U
SciTegic.value.DoubleValue
28.386

@<SCITEGIC>MOL_PROPERTY
W
SciTegic.value.DoubleValue
-52.504

@<SCITEGIC>MOL_PROPERTY
W(PB)
SciTegic.value.DoubleValue
-54.863

@<SCITEGIC>MOL_PROPERTY
W(SA)
SciTegic.value.DoubleValue
2.359

@<SCITEGIC>MOL_PROPERTY
Valence
SciTegic.value.DoubleValue
7.169

@<SCITEGIC>MOL_PROPERTY
Coulomb
SciTegic.value.DoubleValue
20.924

@<SCITEGIC>MOL_PROPERTY
VdW
SciTegic.value.DoubleValue
0.293

@<SCITEGIC>MOL_PROPERTY
VdW6
SciTegic.value.DoubleValue
-12.436

@<SCITEGIC>MOL_PROPERTY
VdW12
SciTegic.value.DoubleValue
12.730

@<SCITEGIC>MOL_PROPERTY
Bond
SciTegic.value.DoubleValue
0.372

@<SCITEGIC>MOL_PROPERTY
Angle
SciTegic.value.DoubleValue
2.823

@<SCITEGIC>MOL_PROPERTY
Pdih
SciTegic.value.DoubleValue
3.975

@<SCITEGIC>MOL_PROPERTY
Idih
SciTegic.value.DoubleValue
0.000

@<SCITEGIC>MOL_PROPERTY
Tether
SciTegic.value.DoubleValue
0.000

@<TRIPOS>MOLECULE
guest-s15_vm2.mol2 : vm2 ligand conformer 175
          29          28           1
SMALL
USER_CHARGES
 
@<TRIPOS>ATOM
       1    C1      19.648486   20.468957   19.892210 C.3        1 MOL1        -0.2426
       2    H1      19.701497   21.432694   20.415264 H          1 MOL1         0.0959
       3    H2      20.364671   20.496758   19.060766 H          1 MOL1         0.0959
       4    H3      18.641903   20.365637   19.466409 H          1 MOL1         0.0959
       5    C2      19.969273   19.300930   20.848543 C.3        1 MOL1        -0.1410
       6    H4      20.995131   19.418005   21.222370 H          1 MOL1         0.0948
       7    H5      19.938629   18.354302   20.291285 H          1 MOL1         0.0948
       8    C3      18.974607   19.243378   22.031344 C.3        1 MOL1        -0.1435
       9    H6      19.035150   20.176674   22.604132 H          1 MOL1         0.0948
      10    H7      17.951624   19.197519   21.633018 H          1 MOL1         0.0948
      11    C4      19.191753   18.021563   22.961706 C.3        1 MOL1        -0.1435
      12    H8      19.056418   17.105336   22.370529 H          1 MOL1         0.0948
      13    H9      18.399474   17.991674   23.719237 H          1 MOL1         0.0948
      14    C5      20.578968   17.954011   23.654314 C.3        1 MOL1        -0.1435
      15    H10     20.623544   17.044670   24.267938 H          1 MOL1         0.0948
      16    H11     21.349744   17.809567   22.885952 H          1 MOL1         0.0948
      17    C6      20.978429   19.184067   24.520898 C.3        1 MOL1        -0.1500
      18    H12     21.039301   20.079960   23.890430 H          1 MOL1         0.0948
      19    H13     22.003248   19.016703   24.877415 H          1 MOL1         0.0948
      20    C7      20.103413   19.492237   25.763300 C.3        1 MOL1         0.1162
      21    H14     20.642640   20.240402   26.352478 H          1 MOL1         0.0910
      22    C8      19.903908   18.259581   26.662020 C.3        1 MOL1        -0.2491
      23    H15     20.868484   17.802092   26.914682 H          1 MOL1         0.0959
      24    H16     19.414450   18.544563   27.601333 H          1 MOL1         0.0959
      25    H17     19.279132   17.501051   26.175451 H          1 MOL1         0.0959
      26    N1      18.787162   20.131275   25.419663 N.4        1 MOL1        -0.5987
      27    H18     18.222950   19.515786   24.829628 H          1 MOL1         0.3605
      28    H19     18.920284   21.010834   24.912868 H          1 MOL1         0.3605
      29    H20     18.243328   20.341798   26.261516 H          1 MOL1         0.3605
@<TRIPOS>BOND
    1     1     2    1
    2     1     3    1
    3     1     4    1
    4     1     5    1
    5     5     6    1
    6     5     7    1
    7     5     8    1
    8     8     9    1
    9     8    10    1
   10     8    11    1
   11    11    12    1
   12    11    13    1
   13    11    14    1
   14    14    15    1
   15    14    16    1
   16    14    17    1
   17    17    18    1
   18    17    19    1
   19    17    20    1
   20    20    21    1
   21    20    22    1
   22    22    23    1
   23    22    24    1
   24    22    25    1
   25    20    26    1
   26    26    27    1
   27    26    28    1
   28    26    29    1
@<TRIPOS>SUBSTRUCTURE
       1 MOL1            1 RESIDUE      1      MOL     
@<SCITEGIC>MOL_PROPERTY
VM2 Rank
SciTegic.value.IntegerValue
175

@<SCITEGIC>MOL_PROPERTY
Conf_Id
SciTegic.value.IntegerValue
1347

@<SCITEGIC>MOL_PROPERTY
Probability
SciTegic.value.DoubleValue
0.00

@<SCITEGIC>MOL_PROPERTY
Sum Probability
SciTegic.value.DoubleValue
99.98

@<SCITEGIC>MOL_PROPERTY
Delta G
SciTegic.value.DoubleValue
5.045

@<SCITEGIC>MOL_PROPERTY
G
SciTegic.value.DoubleValue
38.747

@<SCITEGIC>MOL_PROPERTY
E
SciTegic.value.DoubleValue
0.098

@<SCITEGIC>MOL_PROPERTY
-TS
SciTegic.value.DoubleValue
38.649

@<SCITEGIC>MOL_PROPERTY
U+W
SciTegic.value.DoubleValue
-24.046

@<SCITEGIC>MOL_PROPERTY
U
SciTegic.value.DoubleValue
28.518

@<SCITEGIC>MOL_PROPERTY
W
SciTegic.value.DoubleValue
-52.564

@<SCITEGIC>MOL_PROPERTY
W(PB)
SciTegic.value.DoubleValue
-54.941

@<SCITEGIC>MOL_PROPERTY
W(SA)
SciTegic.value.DoubleValue
2.376

@<SCITEGIC>MOL_PROPERTY
Valence
SciTegic.value.DoubleValue
6.049

@<SCITEGIC>MOL_PROPERTY
Coulomb
SciTegic.value.DoubleValue
21.789

@<SCITEGIC>MOL_PROPERTY
VdW
SciTegic.value.DoubleValue
0.681

@<SCITEGIC>MOL_PROPERTY
VdW6
SciTegic.value.DoubleValue
-12.165

@<SCITEGIC>MOL_PROPERTY
VdW12
SciTegic.value.DoubleValue
12.846

@<SCITEGIC>MOL_PROPERTY
Bond
SciTegic.value.DoubleValue
0.399

@<SCITEGIC>MOL_PROPERTY
Angle
SciTegic.value.DoubleValue
2.965

@<SCITEGIC>MOL_PROPERTY
Pdih
SciTegic.value.DoubleValue
2.685

@<SCITEGIC>MOL_PROPERTY
Idih
SciTegic.value.DoubleValue
0.000

@<SCITEGIC>MOL_PROPERTY
Tether
SciTegic.value.DoubleValue
0.000

@<TRIPOS>MOLECULE
guest-s15_vm2.mol2 : vm2 ligand conformer 176
          29          28           1
SMALL
USER_CHARGES
 
@<TRIPOS>ATOM
       1    C1      20.303430   19.010358   19.900210 C.3        1 MOL1        -0.2426
       2    H1      19.774684   18.065779   20.078718 H          1 MOL1         0.0959
       3    H2      19.639280   19.676662   19.334620 H          1 MOL1         0.0959
       4    H3      21.172906   18.786955   19.268587 H          1 MOL1         0.0959
       5    C2      20.751909   19.666227   21.225495 C.3        1 MOL1        -0.1410
       6    H4      21.389199   20.530444   20.991781 H          1 MOL1         0.0948
       7    H5      21.389225   18.968252   21.782540 H          1 MOL1         0.0948
       8    C3      19.572430   20.152148   22.107706 C.3        1 MOL1        -0.1435
       9    H6      19.976609   20.652341   22.994729 H          1 MOL1         0.0948
      10    H7      19.029029   20.932027   21.556752 H          1 MOL1         0.0948
      11    C4      18.553646   19.056250   22.526882 C.3        1 MOL1        -0.1435
      12    H8      18.116217   18.622106   21.618460 H          1 MOL1         0.0948
      13    H9      17.710444   19.529298   23.048444 H          1 MOL1         0.0948
      14    C5      19.116755   17.904311   23.404192 C.3        1 MOL1        -0.1435
      15    H10     18.516183   17.007787   23.197618 H          1 MOL1         0.0948
      16    H11     20.136145   17.635918   23.104182 H          1 MOL1         0.0948
      17    C6      19.039276   18.158492   24.934300 C.3        1 MOL1        -0.1500
      18    H12     19.353687   17.247001   25.459759 H          1 MOL1         0.0948
      19    H13     17.986092   18.311640   25.204215 H          1 MOL1         0.0948
      20    C7      19.863987   19.351986   25.465999 C.3        1 MOL1         0.1162
      21    H14     19.561693   20.250802   24.922905 H          1 MOL1         0.0910
      22    C8      21.375937   19.137950   25.275418 C.3        1 MOL1        -0.2491
      23    H15     21.940445   19.987611   25.678662 H          1 MOL1         0.0959
      24    H16     21.714933   18.229613   25.788829 H          1 MOL1         0.0959
      25    H17     21.636223   19.047417   24.215546 H          1 MOL1         0.0959
      26    N1      19.558631   19.618278   26.913798 N.4        1 MOL1        -0.5987
      27    H18     19.813035   18.820321   27.502220 H          1 MOL1         0.3605
      28    H19     18.562356   19.804159   27.061166 H          1 MOL1         0.3605
      29    H20     20.075145   20.431190   27.261688 H          1 MOL1         0.3605
@<TRIPOS>BOND
    1     1     2    1
    2     1     3    1
    3     1     4    1
    4     1     5    1
    5     5     6    1
    6     5     7    1
    7     5     8    1
    8     8     9    1
    9     8    10    1
   10     8    11    1
   11    11    12    1
   12    11    13    1
   13    11    14    1
   14    14    15    1
   15    14    16    1
   16    14    17    1
   17    17    18    1
   18    17    19    1
   19    17    20    1
   20    20    21    1
   21    20    22    1
   22    22    23    1
   23    22    24    1
   24    22    25    1
   25    20    26    1
   26    26    27    1
   27    26    28    1
   28    26    29    1
@<TRIPOS>SUBSTRUCTURE
       1 MOL1            1 RESIDUE      1      MOL     
@<SCITEGIC>MOL_PROPERTY
VM2 Rank
SciTegic.value.IntegerValue
176

@<SCITEGIC>MOL_PROPERTY
Conf_Id
SciTegic.value.IntegerValue
1641

@<SCITEGIC>MOL_PROPERTY
Probability
SciTegic.value.DoubleValue
0.00

@<SCITEGIC>MOL_PROPERTY
Sum Probability
SciTegic.value.DoubleValue
99.98

@<SCITEGIC>MOL_PROPERTY
Delta G
SciTegic.value.DoubleValue
5.153

@<SCITEGIC>MOL_PROPERTY
G
SciTegic.value.DoubleValue
38.855

@<SCITEGIC>MOL_PROPERTY
E
SciTegic.value.DoubleValue
0.194

@<SCITEGIC>MOL_PROPERTY
-TS
SciTegic.value.DoubleValue
38.661

@<SCITEGIC>MOL_PROPERTY
U+W
SciTegic.value.DoubleValue
-23.950

@<SCITEGIC>MOL_PROPERTY
U
SciTegic.value.DoubleValue
28.821

@<SCITEGIC>MOL_PROPERTY
W
SciTegic.value.DoubleValue
-52.772

@<SCITEGIC>MOL_PROPERTY
W(PB)
SciTegic.value.DoubleValue
-55.141

@<SCITEGIC>MOL_PROPERTY
W(SA)
SciTegic.value.DoubleValue
2.370

@<SCITEGIC>MOL_PROPERTY
Valence
SciTegic.value.DoubleValue
7.656

@<SCITEGIC>MOL_PROPERTY
Coulomb
SciTegic.value.DoubleValue
20.424

@<SCITEGIC>MOL_PROPERTY
VdW
SciTegic.value.DoubleValue
0.741

@<SCITEGIC>MOL_PROPERTY
VdW6
SciTegic.value.DoubleValue
-11.946

@<SCITEGIC>MOL_PROPERTY
VdW12
SciTegic.value.DoubleValue
12.687

@<SCITEGIC>MOL_PROPERTY
Bond
SciTegic.value.DoubleValue
0.394

@<SCITEGIC>MOL_PROPERTY
Angle
SciTegic.value.DoubleValue
3.130

@<SCITEGIC>MOL_PROPERTY
Pdih
SciTegic.value.DoubleValue
4.132

@<SCITEGIC>MOL_PROPERTY
Idih
SciTegic.value.DoubleValue
0.000

@<SCITEGIC>MOL_PROPERTY
Tether
SciTegic.value.DoubleValue
0.000

@<TRIPOS>MOLECULE
guest-s15_vm2.mol2 : vm2 ligand conformer 177
          29          28           1
SMALL
USER_CHARGES
 
@<TRIPOS>ATOM
       1    C1      19.930547   19.215989   19.792736 C.3        1 MOL1        -0.2426
       2    H1      19.451824   20.106943   19.366201 H          1 MOL1         0.0959
       3    H2      20.947915   19.486527   20.101415 H          1 MOL1         0.0959
       4    H3      20.015280   18.465793   18.995976 H          1 MOL1         0.0959
       5    C2      19.109235   18.657693   20.976671 C.3        1 MOL1        -0.1410
       6    H4      19.616215   17.778885   21.396936 H          1 MOL1         0.0948
       7    H5      18.143608   18.295833   20.596986 H          1 MOL1         0.0948
       8    C3      18.841698   19.704267   22.087862 C.3        1 MOL1        -0.1435
       9    H6      18.256422   20.530343   21.661060 H          1 MOL1         0.0948
      10    H7      18.197448   19.249553   22.850563 H          1 MOL1         0.0948
      11    C4      20.113779   20.291846   22.757048 C.3        1 MOL1        -0.1435
      12    H8      19.821758   21.034301   23.508980 H          1 MOL1         0.0948
      13    H9      20.677397   20.864128   22.008273 H          1 MOL1         0.0948
      14    C5      21.068659   19.247449   23.394647 C.3        1 MOL1        -0.1435
      15    H10     21.508669   18.639714   22.592760 H          1 MOL1         0.0948
      16    H11     21.914427   19.778373   23.852818 H          1 MOL1         0.0948
      17    C6      20.448110   18.290590   24.449630 C.3        1 MOL1        -0.1500
      18    H12     21.214959   17.542253   24.690074 H          1 MOL1         0.0948
      19    H13     19.611358   17.725533   24.020366 H          1 MOL1         0.0948
      20    C7      20.011545   18.976267   25.765751 C.3        1 MOL1         0.1162
      21    H14     20.780572   19.702671   26.045720 H          1 MOL1         0.0910
      22    C8      19.893800   17.940132   26.895597 C.3        1 MOL1        -0.2491
      23    H15     19.603276   18.422858   27.836899 H          1 MOL1         0.0959
      24    H16     19.143118   17.176334   26.656699 H          1 MOL1         0.0959
      25    H17     20.853198   17.435540   27.064968 H          1 MOL1         0.0959
      26    N1      18.718628   19.731768   25.634056 N.4        1 MOL1        -0.5987
      27    H18     17.939794   19.099940   25.430859 H          1 MOL1         0.3605
      28    H19     18.766760   20.417658   24.876947 H          1 MOL1         0.3605
      29    H20     18.489556   20.234292   26.496497 H          1 MOL1         0.3605
@<TRIPOS>BOND
    1     1     2    1
    2     1     3    1
    3     1     4    1
    4     1     5    1
    5     5     6    1
    6     5     7    1
    7     5     8    1
    8     8     9    1
    9     8    10    1
   10     8    11    1
   11    11    12    1
   12    11    13    1
   13    11    14    1
   14    14    15    1
   15    14    16    1
   16    14    17    1
   17    17    18    1
   18    17    19    1
   19    17    20    1
   20    20    21    1
   21    20    22    1
   22    22    23    1
   23    22    24    1
   24    22    25    1
   25    20    26    1
   26    26    27    1
   27    26    28    1
   28    26    29    1
@<TRIPOS>SUBSTRUCTURE
       1 MOL1            1 RESIDUE      1      MOL     
@<SCITEGIC>MOL_PROPERTY
VM2 Rank
SciTegic.value.IntegerValue
177

@<SCITEGIC>MOL_PROPERTY
Conf_Id
SciTegic.value.IntegerValue
975

@<SCITEGIC>MOL_PROPERTY
Probability
SciTegic.value.DoubleValue
0.00

@<SCITEGIC>MOL_PROPERTY
Sum Probability
SciTegic.value.DoubleValue
99.99

@<SCITEGIC>MOL_PROPERTY
Delta G
SciTegic.value.DoubleValue
5.195

@<SCITEGIC>MOL_PROPERTY
G
SciTegic.value.DoubleValue
38.897

@<SCITEGIC>MOL_PROPERTY
E
SciTegic.value.DoubleValue
0.345

@<SCITEGIC>MOL_PROPERTY
-TS
SciTegic.value.DoubleValue
38.552

@<SCITEGIC>MOL_PROPERTY
U+W
SciTegic.value.DoubleValue
-23.800

@<SCITEGIC>MOL_PROPERTY
U
SciTegic.value.DoubleValue
28.626

@<SCITEGIC>MOL_PROPERTY
W
SciTegic.value.DoubleValue
-52.426

@<SCITEGIC>MOL_PROPERTY
W(PB)
SciTegic.value.DoubleValue
-54.799

@<SCITEGIC>MOL_PROPERTY
W(SA)
SciTegic.value.DoubleValue
2.374

@<SCITEGIC>MOL_PROPERTY
Valence
SciTegic.value.DoubleValue
6.309

@<SCITEGIC>MOL_PROPERTY
Coulomb
SciTegic.value.DoubleValue
21.584

@<SCITEGIC>MOL_PROPERTY
VdW
SciTegic.value.DoubleValue
0.733

@<SCITEGIC>MOL_PROPERTY
VdW6
SciTegic.value.DoubleValue
-12.083

@<SCITEGIC>MOL_PROPERTY
VdW12
SciTegic.value.DoubleValue
12.816

@<SCITEGIC>MOL_PROPERTY
Bond
SciTegic.value.DoubleValue
0.385

@<SCITEGIC>MOL_PROPERTY
Angle
SciTegic.value.DoubleValue
2.789

@<SCITEGIC>MOL_PROPERTY
Pdih
SciTegic.value.DoubleValue
3.135

@<SCITEGIC>MOL_PROPERTY
Idih
SciTegic.value.DoubleValue
0.000

@<SCITEGIC>MOL_PROPERTY
Tether
SciTegic.value.DoubleValue
0.000

@<TRIPOS>MOLECULE
guest-s15_vm2.mol2 : vm2 ligand conformer 178
          29          28           1
SMALL
USER_CHARGES
 
@<TRIPOS>ATOM
       1    C1      20.674398   18.725209   19.778324 C.3        1 MOL1        -0.2426
       2    H1      21.061331   19.411942   19.014337 H          1 MOL1         0.0959
       3    H2      21.526688   18.180216   20.204677 H          1 MOL1         0.0959
       4    H3      20.019697   17.999503   19.278414 H          1 MOL1         0.0959
       5    C2      19.910071   19.501363   20.871538 C.3        1 MOL1        -0.1410
       6    H4      19.082855   20.059853   20.411789 H          1 MOL1         0.0948
       7    H5      20.584829   20.242442   21.320223 H          1 MOL1         0.0948
       8    C3      19.358080   18.554154   21.962395 C.3        1 MOL1        -0.1435
       9    H6      18.742674   17.780099   21.483693 H          1 MOL1         0.0948
      10    H7      20.189596   18.024131   22.443052 H          1 MOL1         0.0948
      11    C4      18.492786   19.275184   23.028413 C.3        1 MOL1        -0.1435
      12    H8      18.067895   18.534818   23.716265 H          1 MOL1         0.0948
      13    H9      17.627179   19.728478   22.526003 H          1 MOL1         0.0948
      14    C5      19.221674   20.380618   23.836406 C.3        1 MOL1        -0.1435
      15    H10     19.475501   21.200994   23.152225 H          1 MOL1         0.0948
      16    H11     18.513670   20.823140   24.549309 H          1 MOL1         0.0948
      17    C6      20.519595   19.957418   24.586007 C.3        1 MOL1        -0.1500
      18    H12     20.958072   20.871764   25.006499 H          1 MOL1         0.0948
      19    H13     21.267716   19.589767   23.872442 H          1 MOL1         0.0948
      20    C7      20.372828   18.952153   25.758429 C.3        1 MOL1         0.1162
      21    H14     21.246921   19.095604   26.401135 H          1 MOL1         0.0910
      22    C8      20.408310   17.482607   25.303019 C.3        1 MOL1        -0.2491
      23    H15     19.520803   17.203464   24.727727 H          1 MOL1         0.0959
      24    H16     21.294170   17.286574   24.686563 H          1 MOL1         0.0959
      25    H17     20.460424   16.816734   26.173075 H          1 MOL1         0.0959
      26    N1      19.178258   19.227294   26.629469 N.4        1 MOL1        -0.5987
      27    H18     19.197823   20.181759   26.999801 H          1 MOL1         0.3605
      28    H19     19.141325   18.587863   27.428391 H          1 MOL1         0.3605
      29    H20     18.307663   19.117606   26.103523 H          1 MOL1         0.3605
@<TRIPOS>BOND
    1     1     2    1
    2     1     3    1
    3     1     4    1
    4     1     5    1
    5     5     6    1
    6     5     7    1
    7     5     8    1
    8     8     9    1
    9     8    10    1
   10     8    11    1
   11    11    12    1
   12    11    13    1
   13    11    14    1
   14    14    15    1
   15    14    16    1
   16    14    17    1
   17    17    18    1
   18    17    19    1
   19    17    20    1
   20    20    21    1
   21    20    22    1
   22    22    23    1
   23    22    24    1
   24    22    25    1
   25    20    26    1
   26    26    27    1
   27    26    28    1
   28    26    29    1
@<TRIPOS>SUBSTRUCTURE
       1 MOL1            1 RESIDUE      1      MOL     
@<SCITEGIC>MOL_PROPERTY
VM2 Rank
SciTegic.value.IntegerValue
178

@<SCITEGIC>MOL_PROPERTY
Conf_Id
SciTegic.value.IntegerValue
1372

@<SCITEGIC>MOL_PROPERTY
Probability
SciTegic.value.DoubleValue
0.00

@<SCITEGIC>MOL_PROPERTY
Sum Probability
SciTegic.value.DoubleValue
99.99

@<SCITEGIC>MOL_PROPERTY
Delta G
SciTegic.value.DoubleValue
5.236

@<SCITEGIC>MOL_PROPERTY
G
SciTegic.value.DoubleValue
38.938

@<SCITEGIC>MOL_PROPERTY
E
SciTegic.value.DoubleValue
0.259

@<SCITEGIC>MOL_PROPERTY
-TS
SciTegic.value.DoubleValue
38.679

@<SCITEGIC>MOL_PROPERTY
U+W
SciTegic.value.DoubleValue
-23.885

@<SCITEGIC>MOL_PROPERTY
U
SciTegic.value.DoubleValue
28.682

@<SCITEGIC>MOL_PROPERTY
W
SciTegic.value.DoubleValue
-52.568

@<SCITEGIC>MOL_PROPERTY
W(PB)
SciTegic.value.DoubleValue
-54.935

@<SCITEGIC>MOL_PROPERTY
W(SA)
SciTegic.value.DoubleValue
2.367

@<SCITEGIC>MOL_PROPERTY
Valence
SciTegic.value.DoubleValue
7.341

@<SCITEGIC>MOL_PROPERTY
Coulomb
SciTegic.value.DoubleValue
20.552

@<SCITEGIC>MOL_PROPERTY
VdW
SciTegic.value.DoubleValue
0.790

@<SCITEGIC>MOL_PROPERTY
VdW6
SciTegic.value.DoubleValue
-12.015

@<SCITEGIC>MOL_PROPERTY
VdW12
SciTegic.value.DoubleValue
12.805

@<SCITEGIC>MOL_PROPERTY
Bond
SciTegic.value.DoubleValue
0.401

@<SCITEGIC>MOL_PROPERTY
Angle
SciTegic.value.DoubleValue
3.356

@<SCITEGIC>MOL_PROPERTY
Pdih
SciTegic.value.DoubleValue
3.584

@<SCITEGIC>MOL_PROPERTY
Idih
SciTegic.value.DoubleValue
0.000

@<SCITEGIC>MOL_PROPERTY
Tether
SciTegic.value.DoubleValue
0.000

@<TRIPOS>MOLECULE
guest-s15_vm2.mol2 : vm2 ligand conformer 179
          29          28           1
SMALL
USER_CHARGES
 
@<TRIPOS>ATOM
       1    C1      20.014895   19.803144   19.791733 C.3        1 MOL1        -0.2426
       2    H1      20.305332   18.946266   19.170191 H          1 MOL1         0.0959
       3    H2      19.628768   20.585867   19.126120 H          1 MOL1         0.0959
       4    H3      20.916714   20.196309   20.277180 H          1 MOL1         0.0959
       5    C2      18.943911   19.397563   20.829361 C.3        1 MOL1        -0.1410
       6    H4      18.027400   19.108298   20.296577 H          1 MOL1         0.0948
       7    H5      18.672731   20.266437   21.443862 H          1 MOL1         0.0948
       8    C3      19.382258   18.218385   21.734004 C.3        1 MOL1        -0.1435
       9    H6      18.549367   17.947643   22.395360 H          1 MOL1         0.0948
      10    H7      19.550387   17.334586   21.103418 H          1 MOL1         0.0948
      11    C4      20.660773   18.468719   22.579945 C.3        1 MOL1        -0.1435
      12    H8      21.524067   18.532194   21.904200 H          1 MOL1         0.0948
      13    H9      20.845614   17.581928   23.196481 H          1 MOL1         0.0948
      14    C5      20.641736   19.743736   23.469815 C.3        1 MOL1        -0.1435
      15    H10     21.616278   19.856064   23.964445 H          1 MOL1         0.0948
      16    H11     20.553315   20.620825   22.815504 H          1 MOL1         0.0948
      17    C6      19.513050   19.808211   24.536719 C.3        1 MOL1        -0.1500
      18    H12     18.607161   19.302716   24.183971 H          1 MOL1         0.0948
      19    H13     19.231858   20.863263   24.651955 H          1 MOL1         0.0948
      20    C7      19.901503   19.283437   25.939966 C.3        1 MOL1         0.1162
      21    H14     20.767278   19.853873   26.290056 H          1 MOL1         0.0910
      22    C8      20.277669   17.792755   25.941423 C.3        1 MOL1        -0.2491
      23    H15     19.496410   17.183873   25.469671 H          1 MOL1         0.0959
      24    H16     21.221268   17.627493   25.409815 H          1 MOL1         0.0959
      25    H17     20.420901   17.429960   26.966682 H          1 MOL1         0.0959
      26    N1      18.800205   19.540049   26.931033 N.4        1 MOL1        -0.5987
      27    H18     18.564000   20.535187   26.983201 H          1 MOL1         0.3605
      28    H19     19.067964   19.240794   27.873040 H          1 MOL1         0.3605
      29    H20     17.946810   19.033474   26.680519 H          1 MOL1         0.3605
@<TRIPOS>BOND
    1     1     2    1
    2     1     3    1
    3     1     4    1
    4     1     5    1
    5     5     6    1
    6     5     7    1
    7     5     8    1
    8     8     9    1
    9     8    10    1
   10     8    11    1
   11    11    12    1
   12    11    13    1
   13    11    14    1
   14    14    15    1
   15    14    16    1
   16    14    17    1
   17    17    18    1
   18    17    19    1
   19    17    20    1
   20    20    21    1
   21    20    22    1
   22    22    23    1
   23    22    24    1
   24    22    25    1
   25    20    26    1
   26    26    27    1
   27    26    28    1
   28    26    29    1
@<TRIPOS>SUBSTRUCTURE
       1 MOL1            1 RESIDUE      1      MOL     
@<SCITEGIC>MOL_PROPERTY
VM2 Rank
SciTegic.value.IntegerValue
179

@<SCITEGIC>MOL_PROPERTY
Conf_Id
SciTegic.value.IntegerValue
1192

@<SCITEGIC>MOL_PROPERTY
Probability
SciTegic.value.DoubleValue
0.00

@<SCITEGIC>MOL_PROPERTY
Sum Probability
SciTegic.value.DoubleValue
99.99

@<SCITEGIC>MOL_PROPERTY
Delta G
SciTegic.value.DoubleValue
5.288

@<SCITEGIC>MOL_PROPERTY
G
SciTegic.value.DoubleValue
38.990

@<SCITEGIC>MOL_PROPERTY
E
SciTegic.value.DoubleValue
0.822

@<SCITEGIC>MOL_PROPERTY
-TS
SciTegic.value.DoubleValue
38.168

@<SCITEGIC>MOL_PROPERTY
U+W
SciTegic.value.DoubleValue
-23.323

@<SCITEGIC>MOL_PROPERTY
U
SciTegic.value.DoubleValue
29.271

@<SCITEGIC>MOL_PROPERTY
W
SciTegic.value.DoubleValue
-52.594

@<SCITEGIC>MOL_PROPERTY
W(PB)
SciTegic.value.DoubleValue
-54.998

@<SCITEGIC>MOL_PROPERTY
W(SA)
SciTegic.value.DoubleValue
2.404

@<SCITEGIC>MOL_PROPERTY
Valence
SciTegic.value.DoubleValue
7.970

@<SCITEGIC>MOL_PROPERTY
Coulomb
SciTegic.value.DoubleValue
20.084

@<SCITEGIC>MOL_PROPERTY
VdW
SciTegic.value.DoubleValue
1.216

@<SCITEGIC>MOL_PROPERTY
VdW6
SciTegic.value.DoubleValue
-11.599

@<SCITEGIC>MOL_PROPERTY
VdW12
SciTegic.value.DoubleValue
12.815

@<SCITEGIC>MOL_PROPERTY
Bond
SciTegic.value.DoubleValue
0.421

@<SCITEGIC>MOL_PROPERTY
Angle
SciTegic.value.DoubleValue
3.122

@<SCITEGIC>MOL_PROPERTY
Pdih
SciTegic.value.DoubleValue
4.428

@<SCITEGIC>MOL_PROPERTY
Idih
SciTegic.value.DoubleValue
0.000

@<SCITEGIC>MOL_PROPERTY
Tether
SciTegic.value.DoubleValue
0.000

@<TRIPOS>MOLECULE
guest-s15_vm2.mol2 : vm2 ligand conformer 180
          29          28           1
SMALL
USER_CHARGES
 
@<TRIPOS>ATOM
       1    C1      19.465863   20.017061   19.699661 C.3        1 MOL1        -0.2426
       2    H1      20.283981   20.689167   19.986627 H          1 MOL1         0.0959
       3    H2      19.897957   19.145779   19.190554 H          1 MOL1         0.0959
       4    H3      18.838765   20.552346   18.974996 H          1 MOL1         0.0959
       5    C2      18.628077   19.585894   20.924645 C.3        1 MOL1        -0.1410
       6    H4      17.752511   19.022713   20.572423 H          1 MOL1         0.0948
       7    H5      18.235387   20.476419   21.434687 H          1 MOL1         0.0948
       8    C3      19.411290   18.706467   21.929056 C.3        1 MOL1        -0.1435
       9    H6      18.706903   18.350022   22.690228 H          1 MOL1         0.0948
      10    H7      19.784887   17.809662   21.415915 H          1 MOL1         0.0948
      11    C4      20.594603   19.446751   22.603365 C.3        1 MOL1        -0.1435
      12    H8      20.256502   20.389510   23.049838 H          1 MOL1         0.0948
      13    H9      21.320992   19.733667   21.831766 H          1 MOL1         0.0948
      14    C5      21.345392   18.592276   23.656797 C.3        1 MOL1        -0.1435
      15    H10     21.790792   17.725956   23.148487 H          1 MOL1         0.0948
      16    H11     22.192407   19.177947   24.040108 H          1 MOL1         0.0948
      17    C6      20.513240   18.077139   24.863815 C.3        1 MOL1        -0.1500
      18    H12     21.189266   17.468789   25.479363 H          1 MOL1         0.0948
      19    H13     19.725905   17.389826   24.529933 H          1 MOL1         0.0948
      20    C7      19.908180   19.189187   25.752894 C.3        1 MOL1         0.1162
      21    H14     20.644266   19.993644   25.845171 H          1 MOL1         0.0910
      22    C8      19.606145   18.648115   27.159991 C.3        1 MOL1        -0.2491
      23    H15     18.882818   17.823927   27.121271 H          1 MOL1         0.0959
      24    H16     20.520278   18.278657   27.641264 H          1 MOL1         0.0959
      25    H17     19.191676   19.437496   27.799197 H          1 MOL1         0.0959
      26    N1      18.663209   19.793109   25.163775 N.4        1 MOL1        -0.5987
      27    H18     18.830336   20.127091   24.210958 H          1 MOL1         0.3605
      28    H19     18.331448   20.585693   25.721235 H          1 MOL1         0.3605
      29    H20     17.903934   19.108136   25.122446 H          1 MOL1         0.3605
@<TRIPOS>BOND
    1     1     2    1
    2     1     3    1
    3     1     4    1
    4     1     5    1
    5     5     6    1
    6     5     7    1
    7     5     8    1
    8     8     9    1
    9     8    10    1
   10     8    11    1
   11    11    12    1
   12    11    13    1
   13    11    14    1
   14    14    15    1
   15    14    16    1
   16    14    17    1
   17    17    18    1
   18    17    19    1
   19    17    20    1
   20    20    21    1
   21    20    22    1
   22    22    23    1
   23    22    24    1
   24    22    25    1
   25    20    26    1
   26    26    27    1
   27    26    28    1
   28    26    29    1
@<TRIPOS>SUBSTRUCTURE
       1 MOL1            1 RESIDUE      1      MOL     
@<SCITEGIC>MOL_PROPERTY
VM2 Rank
SciTegic.value.IntegerValue
180

@<SCITEGIC>MOL_PROPERTY
Conf_Id
SciTegic.value.IntegerValue
371

@<SCITEGIC>MOL_PROPERTY
Probability
SciTegic.value.DoubleValue
0.00

@<SCITEGIC>MOL_PROPERTY
Sum Probability
SciTegic.value.DoubleValue
99.99

@<SCITEGIC>MOL_PROPERTY
Delta G
SciTegic.value.DoubleValue
5.471

@<SCITEGIC>MOL_PROPERTY
G
SciTegic.value.DoubleValue
39.173

@<SCITEGIC>MOL_PROPERTY
E
SciTegic.value.DoubleValue
0.987

@<SCITEGIC>MOL_PROPERTY
-TS
SciTegic.value.DoubleValue
38.186

@<SCITEGIC>MOL_PROPERTY
U+W
SciTegic.value.DoubleValue
-23.158

@<SCITEGIC>MOL_PROPERTY
U
SciTegic.value.DoubleValue
28.492

@<SCITEGIC>MOL_PROPERTY
W
SciTegic.value.DoubleValue
-51.649

@<SCITEGIC>MOL_PROPERTY
W(PB)
SciTegic.value.DoubleValue
-54.088

@<SCITEGIC>MOL_PROPERTY
W(SA)
SciTegic.value.DoubleValue
2.439

@<SCITEGIC>MOL_PROPERTY
Valence
SciTegic.value.DoubleValue
6.023

@<SCITEGIC>MOL_PROPERTY
Coulomb
SciTegic.value.DoubleValue
21.518

@<SCITEGIC>MOL_PROPERTY
VdW
SciTegic.value.DoubleValue
0.951

@<SCITEGIC>MOL_PROPERTY
VdW6
SciTegic.value.DoubleValue
-11.102

@<SCITEGIC>MOL_PROPERTY
VdW12
SciTegic.value.DoubleValue
12.053

@<SCITEGIC>MOL_PROPERTY
Bond
SciTegic.value.DoubleValue
0.333

@<SCITEGIC>MOL_PROPERTY
Angle
SciTegic.value.DoubleValue
2.459

@<SCITEGIC>MOL_PROPERTY
Pdih
SciTegic.value.DoubleValue
3.230

@<SCITEGIC>MOL_PROPERTY
Idih
SciTegic.value.DoubleValue
0.000

@<SCITEGIC>MOL_PROPERTY
Tether
SciTegic.value.DoubleValue
0.000

@<TRIPOS>MOLECULE
guest-s15_vm2.mol2 : vm2 ligand conformer 181
          29          28           1
SMALL
USER_CHARGES
 
@<TRIPOS>ATOM
       1    C1      20.010329   20.953801   21.344216 C.3        1 MOL1        -0.2426
       2    H1      20.569162   20.869857   20.403145 H          1 MOL1         0.0959
       3    H2      19.474620   21.911777   21.330393 H          1 MOL1         0.0959
       4    H3      20.732066   20.993663   22.168443 H          1 MOL1         0.0959
       5    C2      19.014934   19.781803   21.504419 C.3        1 MOL1        -0.1410
       6    H4      18.251737   19.867538   20.718413 H          1 MOL1         0.0948
       7    H5      18.475067   19.882599   22.451598 H          1 MOL1         0.0948
       8    C3      19.676962   18.384150   21.385666 C.3        1 MOL1        -0.1435
       9    H6      18.896296   17.611841   21.355742 H          1 MOL1         0.0948
      10    H7      20.176379   18.332941   20.408319 H          1 MOL1         0.0948
      11    C4      20.716256   18.023199   22.482990 C.3        1 MOL1        -0.1435
      12    H8      21.317492   18.895717   22.763531 H          1 MOL1         0.0948
      13    H9      21.431868   17.319097   22.036527 H          1 MOL1         0.0948
      14    C5      20.131896   17.330737   23.744161 C.3        1 MOL1        -0.1435
      15    H10     19.604786   16.416675   23.438217 H          1 MOL1         0.0948
      16    H11     20.965784   16.987541   24.370955 H          1 MOL1         0.0948
      17    C6      19.174375   18.190924   24.608739 C.3        1 MOL1        -0.1500
      18    H12     18.901692   17.621280   25.506951 H          1 MOL1         0.0948
      19    H13     18.237140   18.336127   24.058491 H          1 MOL1         0.0948
      20    C7      19.740032   19.566133   25.033754 C.3        1 MOL1         0.1162
      21    H14     20.027977   20.113054   24.131587 H          1 MOL1         0.0910
      22    C8      20.980369   19.426357   25.933669 C.3        1 MOL1        -0.2491
      23    H15     20.752706   18.843448   26.834778 H          1 MOL1         0.0959
      24    H16     21.802462   18.931526   25.403554 H          1 MOL1         0.0959
      25    H17     21.342719   20.412660   26.248537 H          1 MOL1         0.0959
      26    N1      18.690848   20.398896   25.716385 N.4        1 MOL1        -0.5987
      27    H18     18.368195   19.956342   26.581161 H          1 MOL1         0.3605
      28    H19     17.871636   20.539946   25.118568 H          1 MOL1         0.3605
      29    H20     19.051398   21.324816   25.964055 H          1 MOL1         0.3605
@<TRIPOS>BOND
    1     1     2    1
    2     1     3    1
    3     1     4    1
    4     1     5    1
    5     5     6    1
    6     5     7    1
    7     5     8    1
    8     8     9    1
    9     8    10    1
   10     8    11    1
   11    11    12    1
   12    11    13    1
   13    11    14    1
   14    14    15    1
   15    14    16    1
   16    14    17    1
   17    17    18    1
   18    17    19    1
   19    17    20    1
   20    20    21    1
   21    20    22    1
   22    22    23    1
   23    22    24    1
   24    22    25    1
   25    20    26    1
   26    26    27    1
   27    26    28    1
   28    26    29    1
@<TRIPOS>SUBSTRUCTURE
       1 MOL1            1 RESIDUE      1      MOL     
@<SCITEGIC>MOL_PROPERTY
VM2 Rank
SciTegic.value.IntegerValue
181

@<SCITEGIC>MOL_PROPERTY
Conf_Id
SciTegic.value.IntegerValue
1051

@<SCITEGIC>MOL_PROPERTY
Probability
SciTegic.value.DoubleValue
0.00

@<SCITEGIC>MOL_PROPERTY
Sum Probability
SciTegic.value.DoubleValue
99.99

@<SCITEGIC>MOL_PROPERTY
Delta G
SciTegic.value.DoubleValue
5.506

@<SCITEGIC>MOL_PROPERTY
G
SciTegic.value.DoubleValue
39.208

@<SCITEGIC>MOL_PROPERTY
E
SciTegic.value.DoubleValue
0.425

@<SCITEGIC>MOL_PROPERTY
-TS
SciTegic.value.DoubleValue
38.783

@<SCITEGIC>MOL_PROPERTY
U+W
SciTegic.value.DoubleValue
-23.719

@<SCITEGIC>MOL_PROPERTY
U
SciTegic.value.DoubleValue
29.314

@<SCITEGIC>MOL_PROPERTY
W
SciTegic.value.DoubleValue
-53.033

@<SCITEGIC>MOL_PROPERTY
W(PB)
SciTegic.value.DoubleValue
-55.383

@<SCITEGIC>MOL_PROPERTY
W(SA)
SciTegic.value.DoubleValue
2.350

@<SCITEGIC>MOL_PROPERTY
Valence
SciTegic.value.DoubleValue
7.653

@<SCITEGIC>MOL_PROPERTY
Coulomb
SciTegic.value.DoubleValue
21.278

@<SCITEGIC>MOL_PROPERTY
VdW
SciTegic.value.DoubleValue
0.382

@<SCITEGIC>MOL_PROPERTY
VdW6
SciTegic.value.DoubleValue
-12.612

@<SCITEGIC>MOL_PROPERTY
VdW12
SciTegic.value.DoubleValue
12.994

@<SCITEGIC>MOL_PROPERTY
Bond
SciTegic.value.DoubleValue
0.381

@<SCITEGIC>MOL_PROPERTY
Angle
SciTegic.value.DoubleValue
3.142

@<SCITEGIC>MOL_PROPERTY
Pdih
SciTegic.value.DoubleValue
4.131

@<SCITEGIC>MOL_PROPERTY
Idih
SciTegic.value.DoubleValue
0.000

@<SCITEGIC>MOL_PROPERTY
Tether
SciTegic.value.DoubleValue
0.000

@<TRIPOS>MOLECULE
guest-s15_vm2.mol2 : vm2 ligand conformer 182
          29          28           1
SMALL
USER_CHARGES
 
@<TRIPOS>ATOM
       1    C1      19.096243   19.006455   19.771829 C.3        1 MOL1        -0.2426
       2    H1      19.058803   17.950163   20.065488 H          1 MOL1         0.0959
       3    H2      18.317479   19.165636   19.014797 H          1 MOL1         0.0959
       4    H3      20.068173   19.198604   19.299120 H          1 MOL1         0.0959
       5    C2      18.872539   19.941181   20.982037 C.3        1 MOL1        -0.1410
       6    H4      17.909615   19.706343   21.456352 H          1 MOL1         0.0948
       7    H5      18.791814   20.975296   20.618844 H          1 MOL1         0.0948
       8    C3      20.007064   19.872388   22.032613 C.3        1 MOL1        -0.1435
       9    H6      20.963318   20.127417   21.555517 H          1 MOL1         0.0948
      10    H7      19.824021   20.650976   22.782765 H          1 MOL1         0.0948
      11    C4      20.125455   18.488907   22.721288 C.3        1 MOL1        -0.1435
      12    H8      20.379463   17.735010   21.964762 H          1 MOL1         0.0948
      13    H9      19.156585   18.179153   23.129987 H          1 MOL1         0.0948
      14    C5      21.215851   18.433889   23.821962 C.3        1 MOL1        -0.1435
      15    H10     21.289661   17.403261   24.193989 H          1 MOL1         0.0948
      16    H11     22.188478   18.641562   23.355115 H          1 MOL1         0.0948
      17    C6      21.039197   19.403175   25.027929 C.3        1 MOL1        -0.1500
      18    H12     21.132091   20.442280   24.688588 H          1 MOL1         0.0948
      19    H13     21.891926   19.248365   25.701963 H          1 MOL1         0.0948
      20    C7      19.748658   19.257616   25.874398 C.3        1 MOL1         0.1162
      21    H14     19.896230   19.850033   26.782649 H          1 MOL1         0.0910
      22    C8      19.494693   17.804819   26.312778 C.3        1 MOL1        -0.2491
      23    H15     19.244438   17.161869   25.460591 H          1 MOL1         0.0959
      24    H16     20.379819   17.388783   26.809763 H          1 MOL1         0.0959
      25    H17     18.661102   17.758503   27.024155 H          1 MOL1         0.0959
      26    N1      18.536299   19.847571   25.209167 N.4        1 MOL1        -0.5987
      27    H18     18.660426   20.847451   25.026909 H          1 MOL1         0.3605
      28    H19     17.701696   19.743960   25.793573 H          1 MOL1         0.3605
      29    H20     18.350531   19.391267   24.313036 H          1 MOL1         0.3605
@<TRIPOS>BOND
    1     1     2    1
    2     1     3    1
    3     1     4    1
    4     1     5    1
    5     5     6    1
    6     5     7    1
    7     5     8    1
    8     8     9    1
    9     8    10    1
   10     8    11    1
   11    11    12    1
   12    11    13    1
   13    11    14    1
   14    14    15    1
   15    14    16    1
   16    14    17    1
   17    17    18    1
   18    17    19    1
   19    17    20    1
   20    20    21    1
   21    20    22    1
   22    22    23    1
   23    22    24    1
   24    22    25    1
   25    20    26    1
   26    26    27    1
   27    26    28    1
   28    26    29    1
@<TRIPOS>SUBSTRUCTURE
       1 MOL1            1 RESIDUE      1      MOL     
@<SCITEGIC>MOL_PROPERTY
VM2 Rank
SciTegic.value.IntegerValue
182

@<SCITEGIC>MOL_PROPERTY
Conf_Id
SciTegic.value.IntegerValue
860

@<SCITEGIC>MOL_PROPERTY
Probability
SciTegic.value.DoubleValue
0.00

@<SCITEGIC>MOL_PROPERTY
Sum Probability
SciTegic.value.DoubleValue
99.99

@<SCITEGIC>MOL_PROPERTY
Delta G
SciTegic.value.DoubleValue
5.589

@<SCITEGIC>MOL_PROPERTY
G
SciTegic.value.DoubleValue
39.291

@<SCITEGIC>MOL_PROPERTY
E
SciTegic.value.DoubleValue
0.689

@<SCITEGIC>MOL_PROPERTY
-TS
SciTegic.value.DoubleValue
38.602

@<SCITEGIC>MOL_PROPERTY
U+W
SciTegic.value.DoubleValue
-23.456

@<SCITEGIC>MOL_PROPERTY
U
SciTegic.value.DoubleValue
28.746

@<SCITEGIC>MOL_PROPERTY
W
SciTegic.value.DoubleValue
-52.201

@<SCITEGIC>MOL_PROPERTY
W(PB)
SciTegic.value.DoubleValue
-54.566

@<SCITEGIC>MOL_PROPERTY
W(SA)
SciTegic.value.DoubleValue
2.364

@<SCITEGIC>MOL_PROPERTY
Valence
SciTegic.value.DoubleValue
6.147

@<SCITEGIC>MOL_PROPERTY
Coulomb
SciTegic.value.DoubleValue
21.776

@<SCITEGIC>MOL_PROPERTY
VdW
SciTegic.value.DoubleValue
0.823

@<SCITEGIC>MOL_PROPERTY
VdW6
SciTegic.value.DoubleValue
-12.079

@<SCITEGIC>MOL_PROPERTY
VdW12
SciTegic.value.DoubleValue
12.902

@<SCITEGIC>MOL_PROPERTY
Bond
SciTegic.value.DoubleValue
0.393

@<SCITEGIC>MOL_PROPERTY
Angle
SciTegic.value.DoubleValue
2.949

@<SCITEGIC>MOL_PROPERTY
Pdih
SciTegic.value.DoubleValue
2.805

@<SCITEGIC>MOL_PROPERTY
Idih
SciTegic.value.DoubleValue
0.000

@<SCITEGIC>MOL_PROPERTY
Tether
SciTegic.value.DoubleValue
0.000

@<TRIPOS>MOLECULE
guest-s15_vm2.mol2 : vm2 ligand conformer 183
          29          28           1
SMALL
USER_CHARGES
 
@<TRIPOS>ATOM
       1    C1      19.224184   20.814380   21.490781 C.3        1 MOL1        -0.2426
       2    H1      18.285338   21.351119   21.303123 H          1 MOL1         0.0959
       3    H2      19.428117   20.869389   22.566004 H          1 MOL1         0.0959
       4    H3      20.026358   21.346726   20.963521 H          1 MOL1         0.0959
       5    C2      19.118452   19.351660   21.003125 C.3        1 MOL1        -0.1410
       6    H4      18.830871   19.357528   19.942540 H          1 MOL1         0.0948
       7    H5      18.305222   18.832770   21.525065 H          1 MOL1         0.0948
       8    C3      20.439784   18.557641   21.145777 C.3        1 MOL1        -0.1435
       9    H6      20.295111   17.553701   20.723638 H          1 MOL1         0.0948
      10    H7      21.202102   19.036428   20.515888 H          1 MOL1         0.0948
      11    C4      21.008455   18.420668   22.584070 C.3        1 MOL1        -0.1435
      12    H8      21.255531   19.406146   22.996018 H          1 MOL1         0.0948
      13    H9      21.972747   17.901351   22.496717 H          1 MOL1         0.0948
      14    C5      20.125435   17.599981   23.564788 C.3        1 MOL1        -0.1435
      15    H10     19.585365   16.822914   23.006920 H          1 MOL1         0.0948
      16    H11     20.783671   17.050710   24.250626 H          1 MOL1         0.0948
      17    C6      19.112708   18.423807   24.407765 C.3        1 MOL1        -0.1500
      18    H12     18.557724   17.734036   25.057236 H          1 MOL1         0.0948
      19    H13     18.364155   18.869886   23.744968 H          1 MOL1         0.0948
      20    C7      19.730680   19.542897   25.279904 C.3        1 MOL1         0.1162
      21    H14     20.272048   20.233661   24.627758 H          1 MOL1         0.0910
      22    C8      20.716146   18.989343   26.324141 C.3        1 MOL1        -0.2491
      23    H15     20.234910   18.241886   26.967066 H          1 MOL1         0.0959
      24    H16     21.583787   18.522916   25.843149 H          1 MOL1         0.0959
      25    H17     21.094899   19.795787   26.964038 H          1 MOL1         0.0959
      26    N1      18.660154   20.355623   25.953649 N.4        1 MOL1        -0.5987
      27    H18     18.015305   20.768813   25.273853 H          1 MOL1         0.3605
      28    H19     19.061527   21.123321   26.499779 H          1 MOL1         0.3605
      29    H20     18.105350   19.782789   26.595405 H          1 MOL1         0.3605
@<TRIPOS>BOND
    1     1     2    1
    2     1     3    1
    3     1     4    1
    4     1     5    1
    5     5     6    1
    6     5     7    1
    7     5     8    1
    8     8     9    1
    9     8    10    1
   10     8    11    1
   11    11    12    1
   12    11    13    1
   13    11    14    1
   14    14    15    1
   15    14    16    1
   16    14    17    1
   17    17    18    1
   18    17    19    1
   19    17    20    1
   20    20    21    1
   21    20    22    1
   22    22    23    1
   23    22    24    1
   24    22    25    1
   25    20    26    1
   26    26    27    1
   27    26    28    1
   28    26    29    1
@<TRIPOS>SUBSTRUCTURE
       1 MOL1            1 RESIDUE      1      MOL     
@<SCITEGIC>MOL_PROPERTY
VM2 Rank
SciTegic.value.IntegerValue
183

@<SCITEGIC>MOL_PROPERTY
Conf_Id
SciTegic.value.IntegerValue
1043

@<SCITEGIC>MOL_PROPERTY
Probability
SciTegic.value.DoubleValue
0.00

@<SCITEGIC>MOL_PROPERTY
Sum Probability
SciTegic.value.DoubleValue
99.99

@<SCITEGIC>MOL_PROPERTY
Delta G
SciTegic.value.DoubleValue
5.619

@<SCITEGIC>MOL_PROPERTY
G
SciTegic.value.DoubleValue
39.322

@<SCITEGIC>MOL_PROPERTY
E
SciTegic.value.DoubleValue
0.669

@<SCITEGIC>MOL_PROPERTY
-TS
SciTegic.value.DoubleValue
38.652

@<SCITEGIC>MOL_PROPERTY
U+W
SciTegic.value.DoubleValue
-23.475

@<SCITEGIC>MOL_PROPERTY
U
SciTegic.value.DoubleValue
29.549

@<SCITEGIC>MOL_PROPERTY
W
SciTegic.value.DoubleValue
-53.026

@<SCITEGIC>MOL_PROPERTY
W(PB)
SciTegic.value.DoubleValue
-55.380

@<SCITEGIC>MOL_PROPERTY
W(SA)
SciTegic.value.DoubleValue
2.354

@<SCITEGIC>MOL_PROPERTY
Valence
SciTegic.value.DoubleValue
7.750

@<SCITEGIC>MOL_PROPERTY
Coulomb
SciTegic.value.DoubleValue
21.171

@<SCITEGIC>MOL_PROPERTY
VdW
SciTegic.value.DoubleValue
0.628

@<SCITEGIC>MOL_PROPERTY
VdW6
SciTegic.value.DoubleValue
-12.188

@<SCITEGIC>MOL_PROPERTY
VdW12
SciTegic.value.DoubleValue
12.817

@<SCITEGIC>MOL_PROPERTY
Bond
SciTegic.value.DoubleValue
0.391

@<SCITEGIC>MOL_PROPERTY
Angle
SciTegic.value.DoubleValue
3.142

@<SCITEGIC>MOL_PROPERTY
Pdih
SciTegic.value.DoubleValue
4.217

@<SCITEGIC>MOL_PROPERTY
Idih
SciTegic.value.DoubleValue
0.000

@<SCITEGIC>MOL_PROPERTY
Tether
SciTegic.value.DoubleValue
0.000

@<TRIPOS>MOLECULE
guest-s15_vm2.mol2 : vm2 ligand conformer 184
          29          28           1
SMALL
USER_CHARGES
 
@<TRIPOS>ATOM
       1    C1      19.875934   19.071806   19.841072 C.3        1 MOL1        -0.2426
       2    H1      18.864027   18.953665   19.432432 H          1 MOL1         0.0959
       3    H2      20.531399   19.403418   19.025482 H          1 MOL1         0.0959
       4    H3      20.230979   18.087580   20.170874 H          1 MOL1         0.0959
       5    C2      19.891144   20.096003   20.998112 C.3        1 MOL1        -0.1410
       6    H4      19.641201   21.087369   20.595304 H          1 MOL1         0.0948
       7    H5      20.908490   20.183240   21.402240 H          1 MOL1         0.0948
       8    C3      18.891171   19.758388   22.132881 C.3        1 MOL1        -0.1435
       9    H6      18.921267   20.564154   22.876362 H          1 MOL1         0.0948
      10    H7      17.872623   19.773315   21.721306 H          1 MOL1         0.0948
      11    C4      19.123510   18.390550   22.830508 C.3        1 MOL1        -0.1435
      12    H8      18.957753   17.586409   22.101430 H          1 MOL1         0.0948
      13    H9      18.353684   18.235660   23.595601 H          1 MOL1         0.0948
      14    C5      20.529430   18.200871   23.459153 C.3        1 MOL1        -0.1435
      15    H10     20.589649   17.195049   23.895014 H          1 MOL1         0.0948
      16    H11     21.276680   18.202093   22.654747 H          1 MOL1         0.0948
      17    C6      20.956319   19.254243   24.522977 C.3        1 MOL1        -0.1500
      18    H12     20.995663   20.250690   24.065564 H          1 MOL1         0.0948
      19    H13     21.992293   19.031054   24.809825 H          1 MOL1         0.0948
      20    C7      20.122381   19.324867   25.828230 C.3        1 MOL1         0.1162
      21    H14     20.682209   19.953478   26.527572 H          1 MOL1         0.0910
      22    C8      19.948504   17.947125   26.490430 C.3        1 MOL1        -0.2491
      23    H15     19.306131   17.289333   25.892810 H          1 MOL1         0.0959
      24    H16     20.919428   17.453951   26.623176 H          1 MOL1         0.0959
      25    H17     19.490438   18.052627   27.481455 H          1 MOL1         0.0959
      26    N1      18.797607   20.012148   25.650636 N.4        1 MOL1        -0.5987
      27    H18     18.916769   20.969644   25.308350 H          1 MOL1         0.3605
      28    H19     18.282725   20.064348   26.534338 H          1 MOL1         0.3605
      29    H20     18.211959   19.512856   24.977642 H          1 MOL1         0.3605
@<TRIPOS>BOND
    1     1     2    1
    2     1     3    1
    3     1     4    1
    4     1     5    1
    5     5     6    1
    6     5     7    1
    7     5     8    1
    8     8     9    1
    9     8    10    1
   10     8    11    1
   11    11    12    1
   12    11    13    1
   13    11    14    1
   14    14    15    1
   15    14    16    1
   16    14    17    1
   17    17    18    1
   18    17    19    1
   19    17    20    1
   20    20    21    1
   21    20    22    1
   22    22    23    1
   23    22    24    1
   24    22    25    1
   25    20    26    1
   26    26    27    1
   27    26    28    1
   28    26    29    1
@<TRIPOS>SUBSTRUCTURE
       1 MOL1            1 RESIDUE      1      MOL     
@<SCITEGIC>MOL_PROPERTY
VM2 Rank
SciTegic.value.IntegerValue
184

@<SCITEGIC>MOL_PROPERTY
Conf_Id
SciTegic.value.IntegerValue
856

@<SCITEGIC>MOL_PROPERTY
Probability
SciTegic.value.DoubleValue
0.00

@<SCITEGIC>MOL_PROPERTY
Sum Probability
SciTegic.value.DoubleValue
99.99

@<SCITEGIC>MOL_PROPERTY
Delta G
SciTegic.value.DoubleValue
5.720

@<SCITEGIC>MOL_PROPERTY
G
SciTegic.value.DoubleValue
39.422

@<SCITEGIC>MOL_PROPERTY
E
SciTegic.value.DoubleValue
0.460

@<SCITEGIC>MOL_PROPERTY
-TS
SciTegic.value.DoubleValue
38.962

@<SCITEGIC>MOL_PROPERTY
U+W
SciTegic.value.DoubleValue
-23.685

@<SCITEGIC>MOL_PROPERTY
U
SciTegic.value.DoubleValue
28.969

@<SCITEGIC>MOL_PROPERTY
W
SciTegic.value.DoubleValue
-52.653

@<SCITEGIC>MOL_PROPERTY
W(PB)
SciTegic.value.DoubleValue
-55.006

@<SCITEGIC>MOL_PROPERTY
W(SA)
SciTegic.value.DoubleValue
2.353

@<SCITEGIC>MOL_PROPERTY
Valence
SciTegic.value.DoubleValue
6.483

@<SCITEGIC>MOL_PROPERTY
Coulomb
SciTegic.value.DoubleValue
21.800

@<SCITEGIC>MOL_PROPERTY
VdW
SciTegic.value.DoubleValue
0.686

@<SCITEGIC>MOL_PROPERTY
VdW6
SciTegic.value.DoubleValue
-13.002

@<SCITEGIC>MOL_PROPERTY
VdW12
SciTegic.value.DoubleValue
13.687

@<SCITEGIC>MOL_PROPERTY
Bond
SciTegic.value.DoubleValue
0.441

@<SCITEGIC>MOL_PROPERTY
Angle
SciTegic.value.DoubleValue
3.285

@<SCITEGIC>MOL_PROPERTY
Pdih
SciTegic.value.DoubleValue
2.757

@<SCITEGIC>MOL_PROPERTY
Idih
SciTegic.value.DoubleValue
0.000

@<SCITEGIC>MOL_PROPERTY
Tether
SciTegic.value.DoubleValue
0.000

@<TRIPOS>MOLECULE
guest-s15_vm2.mol2 : vm2 ligand conformer 185
          29          28           1
SMALL
USER_CHARGES
 
@<TRIPOS>ATOM
       1    C1      19.347771   21.014236   20.545374 C.3        1 MOL1        -0.2426
       2    H1      18.430298   21.304039   20.016841 H          1 MOL1         0.0959
       3    H2      19.545469   21.769902   21.316755 H          1 MOL1         0.0959
       4    H3      20.174118   21.039304   19.823018 H          1 MOL1         0.0959
       5    C2      19.197543   19.610156   21.167809 C.3        1 MOL1        -0.1410
       6    H4      18.972088   18.883455   20.374784 H          1 MOL1         0.0948
       7    H5      18.334862   19.614362   21.844838 H          1 MOL1         0.0948
       8    C3      20.482284   19.180375   21.915876 C.3        1 MOL1        -0.1435
       9    H6      21.323198   19.221851   21.209810 H          1 MOL1         0.0948
      10    H7      20.721989   19.909493   22.696334 H          1 MOL1         0.0948
      11    C4      20.418623   17.742604   22.496831 C.3        1 MOL1        -0.1435
      12    H8      21.410101   17.460641   22.876945 H          1 MOL1         0.0948
      13    H9      20.218445   17.053745   21.664470 H          1 MOL1         0.0948
      14    C5      19.356610   17.489531   23.602753 C.3        1 MOL1        -0.1435
      15    H10     18.403394   17.971719   23.357585 H          1 MOL1         0.0948
      16    H11     19.134547   16.413414   23.602483 H          1 MOL1         0.0948
      17    C6      19.801660   17.856332   25.044964 C.3        1 MOL1        -0.1500
      18    H12     20.696709   17.272644   25.297904 H          1 MOL1         0.0948
      19    H13     19.020096   17.527481   25.742814 H          1 MOL1         0.0948
      20    C7      20.094565   19.351166   25.295056 C.3        1 MOL1         0.1162
      21    H14     20.935896   19.647140   24.663508 H          1 MOL1         0.0910
      22    C8      20.502775   19.577752   26.759192 C.3        1 MOL1        -0.2491
      23    H15     19.691185   19.304592   27.445213 H          1 MOL1         0.0959
      24    H16     21.383812   18.976159   27.015344 H          1 MOL1         0.0959
      25    H17     20.756741   20.630724   26.932729 H          1 MOL1         0.0959
      26    N1      18.934170   20.233847   24.926145 N.4        1 MOL1        -0.5987
      27    H18     18.690011   20.121639   23.938212 H          1 MOL1         0.3605
      28    H19     19.150667   21.222340   25.084026 H          1 MOL1         0.3605
      29    H20     18.104424   20.007812   25.481429 H          1 MOL1         0.3605
@<TRIPOS>BOND
    1     1     2    1
    2     1     3    1
    3     1     4    1
    4     1     5    1
    5     5     6    1
    6     5     7    1
    7     5     8    1
    8     8     9    1
    9     8    10    1
   10     8    11    1
   11    11    12    1
   12    11    13    1
   13    11    14    1
   14    14    15    1
   15    14    16    1
   16    14    17    1
   17    17    18    1
   18    17    19    1
   19    17    20    1
   20    20    21    1
   21    20    22    1
   22    22    23    1
   23    22    24    1
   24    22    25    1
   25    20    26    1
   26    26    27    1
   27    26    28    1
   28    26    29    1
@<TRIPOS>SUBSTRUCTURE
       1 MOL1            1 RESIDUE      1      MOL     
@<SCITEGIC>MOL_PROPERTY
VM2 Rank
SciTegic.value.IntegerValue
185

@<SCITEGIC>MOL_PROPERTY
Conf_Id
SciTegic.value.IntegerValue
654

@<SCITEGIC>MOL_PROPERTY
Probability
SciTegic.value.DoubleValue
0.00

@<SCITEGIC>MOL_PROPERTY
Sum Probability
SciTegic.value.DoubleValue
99.99

@<SCITEGIC>MOL_PROPERTY
Delta G
SciTegic.value.DoubleValue
5.737

@<SCITEGIC>MOL_PROPERTY
G
SciTegic.value.DoubleValue
39.439

@<SCITEGIC>MOL_PROPERTY
E
SciTegic.value.DoubleValue
1.176

@<SCITEGIC>MOL_PROPERTY
-TS
SciTegic.value.DoubleValue
38.263

@<SCITEGIC>MOL_PROPERTY
U+W
SciTegic.value.DoubleValue
-22.968

@<SCITEGIC>MOL_PROPERTY
U
SciTegic.value.DoubleValue
28.534

@<SCITEGIC>MOL_PROPERTY
W
SciTegic.value.DoubleValue
-51.502

@<SCITEGIC>MOL_PROPERTY
W(PB)
SciTegic.value.DoubleValue
-53.928

@<SCITEGIC>MOL_PROPERTY
W(SA)
SciTegic.value.DoubleValue
2.426

@<SCITEGIC>MOL_PROPERTY
Valence
SciTegic.value.DoubleValue
6.517

@<SCITEGIC>MOL_PROPERTY
Coulomb
SciTegic.value.DoubleValue
21.463

@<SCITEGIC>MOL_PROPERTY
VdW
SciTegic.value.DoubleValue
0.554

@<SCITEGIC>MOL_PROPERTY
VdW6
SciTegic.value.DoubleValue
-11.294

@<SCITEGIC>MOL_PROPERTY
VdW12
SciTegic.value.DoubleValue
11.848

@<SCITEGIC>MOL_PROPERTY
Bond
SciTegic.value.DoubleValue
0.345

@<SCITEGIC>MOL_PROPERTY
Angle
SciTegic.value.DoubleValue
2.713

@<SCITEGIC>MOL_PROPERTY
Pdih
SciTegic.value.DoubleValue
3.460

@<SCITEGIC>MOL_PROPERTY
Idih
SciTegic.value.DoubleValue
0.000

@<SCITEGIC>MOL_PROPERTY
Tether
SciTegic.value.DoubleValue
0.000

@<TRIPOS>MOLECULE
guest-s15_vm2.mol2 : vm2 ligand conformer 186
          29          28           1
SMALL
USER_CHARGES
 
@<TRIPOS>ATOM
       1    C1      18.255326   19.898925   20.890218 C.3        1 MOL1        -0.2426
       2    H1      17.896385   20.772856   20.331384 H          1 MOL1         0.0959
       3    H2      17.666366   19.029918   20.569359 H          1 MOL1         0.0959
       4    H3      18.051481   20.080067   21.952255 H          1 MOL1         0.0959
       5    C2      19.762266   19.673826   20.632200 C.3        1 MOL1        -0.1410
       6    H4      20.332565   20.545320   20.980630 H          1 MOL1         0.0948
       7    H5      19.930213   19.618985   19.547577 H          1 MOL1         0.0948
       8    C3      20.312454   18.378460   21.281559 C.3        1 MOL1        -0.1435
       9    H6      19.799614   17.513297   20.839308 H          1 MOL1         0.0948
      10    H7      21.371832   18.269602   21.011380 H          1 MOL1         0.0948
      11    C4      20.175465   18.304324   22.823898 C.3        1 MOL1        -0.1435
      12    H8      20.586170   17.343160   23.162164 H          1 MOL1         0.0948
      13    H9      19.112281   18.299074   23.089226 H          1 MOL1         0.0948
      14    C5      20.905082   19.454996   23.559031 C.3        1 MOL1        -0.1435
      15    H10     21.912754   19.556224   23.133057 H          1 MOL1         0.0948
      16    H11     20.400340   20.408371   23.356666 H          1 MOL1         0.0948
      17    C6      21.058946   19.257633   25.093895 C.3        1 MOL1        -0.1500
      18    H12     21.643373   20.105679   25.474037 H          1 MOL1         0.0948
      19    H13     21.676583   18.371590   25.291442 H          1 MOL1         0.0948
      20    C7      19.759747   19.183049   25.937387 C.3        1 MOL1         0.1162
      21    H14     20.028724   19.489042   26.953136 H          1 MOL1         0.0910
      22    C8      19.203822   17.751486   26.049609 C.3        1 MOL1        -0.2491
      23    H15     18.837991   17.367569   25.092876 H          1 MOL1         0.0959
      24    H16     19.973616   17.063577   26.420533 H          1 MOL1         0.0959
      25    H17     18.368438   17.722304   26.759847 H          1 MOL1         0.0959
      26    N1      18.702892   20.153301   25.486202 N.4        1 MOL1        -0.5987
      27    H18     19.051899   21.116053   25.497524 H          1 MOL1         0.3605
      28    H19     17.878269   20.117959   26.092500 H          1 MOL1         0.3605
      29    H20     18.398543   19.945217   24.532138 H          1 MOL1         0.3605
@<TRIPOS>BOND
    1     1     2    1
    2     1     3    1
    3     1     4    1
    4     1     5    1
    5     5     6    1
    6     5     7    1
    7     5     8    1
    8     8     9    1
    9     8    10    1
   10     8    11    1
   11    11    12    1
   12    11    13    1
   13    11    14    1
   14    14    15    1
   15    14    16    1
   16    14    17    1
   17    17    18    1
   18    17    19    1
   19    17    20    1
   20    20    21    1
   21    20    22    1
   22    22    23    1
   23    22    24    1
   24    22    25    1
   25    20    26    1
   26    26    27    1
   27    26    28    1
   28    26    29    1
@<TRIPOS>SUBSTRUCTURE
       1 MOL1            1 RESIDUE      1      MOL     
@<SCITEGIC>MOL_PROPERTY
VM2 Rank
SciTegic.value.IntegerValue
186

@<SCITEGIC>MOL_PROPERTY
Conf_Id
SciTegic.value.IntegerValue
344

@<SCITEGIC>MOL_PROPERTY
Probability
SciTegic.value.DoubleValue
0.00

@<SCITEGIC>MOL_PROPERTY
Sum Probability
SciTegic.value.DoubleValue
99.99

@<SCITEGIC>MOL_PROPERTY
Delta G
SciTegic.value.DoubleValue
5.841

@<SCITEGIC>MOL_PROPERTY
G
SciTegic.value.DoubleValue
39.543

@<SCITEGIC>MOL_PROPERTY
E
SciTegic.value.DoubleValue
1.246

@<SCITEGIC>MOL_PROPERTY
-TS
SciTegic.value.DoubleValue
38.297

@<SCITEGIC>MOL_PROPERTY
U+W
SciTegic.value.DoubleValue
-22.899

@<SCITEGIC>MOL_PROPERTY
U
SciTegic.value.DoubleValue
29.417

@<SCITEGIC>MOL_PROPERTY
W
SciTegic.value.DoubleValue
-52.316

@<SCITEGIC>MOL_PROPERTY
W(PB)
SciTegic.value.DoubleValue
-54.671

@<SCITEGIC>MOL_PROPERTY
W(SA)
SciTegic.value.DoubleValue
2.355

@<SCITEGIC>MOL_PROPERTY
Valence
SciTegic.value.DoubleValue
7.176

@<SCITEGIC>MOL_PROPERTY
Coulomb
SciTegic.value.DoubleValue
21.250

@<SCITEGIC>MOL_PROPERTY
VdW
SciTegic.value.DoubleValue
0.991

@<SCITEGIC>MOL_PROPERTY
VdW6
SciTegic.value.DoubleValue
-11.694

@<SCITEGIC>MOL_PROPERTY
VdW12
SciTegic.value.DoubleValue
12.685

@<SCITEGIC>MOL_PROPERTY
Bond
SciTegic.value.DoubleValue
0.376

@<SCITEGIC>MOL_PROPERTY
Angle
SciTegic.value.DoubleValue
2.904

@<SCITEGIC>MOL_PROPERTY
Pdih
SciTegic.value.DoubleValue
3.896

@<SCITEGIC>MOL_PROPERTY
Idih
SciTegic.value.DoubleValue
0.000

@<SCITEGIC>MOL_PROPERTY
Tether
SciTegic.value.DoubleValue
0.000

@<TRIPOS>MOLECULE
guest-s15_vm2.mol2 : vm2 ligand conformer 187
          29          28           1
SMALL
USER_CHARGES
 
@<TRIPOS>ATOM
       1    C1      21.034339   20.608503   21.022105 C.3        1 MOL1        -0.2426
       2    H1      22.100971   20.545494   20.770466 H          1 MOL1         0.0959
       3    H2      20.498099   20.961833   20.131697 H          1 MOL1         0.0959
       4    H3      20.918527   21.361621   21.812388 H          1 MOL1         0.0959
       5    C2      20.501050   19.235589   21.481776 C.3        1 MOL1        -0.1410
       6    H4      21.083743   18.891297   22.344395 H          1 MOL1         0.0948
       7    H5      20.666251   18.496621   20.685275 H          1 MOL1         0.0948
       8    C3      18.992509   19.294081   21.823250 C.3        1 MOL1        -0.1435
       9    H6      18.775318   20.126113   22.505839 H          1 MOL1         0.0948
      10    H7      18.445143   19.519466   20.897488 H          1 MOL1         0.0948
      11    C4      18.447863   17.965736   22.406799 C.3        1 MOL1        -0.1435
      12    H8      19.041646   17.117735   22.038593 H          1 MOL1         0.0948
      13    H9      17.437176   17.810079   22.004613 H          1 MOL1         0.0948
      14    C5      18.342110   17.907728   23.954892 C.3        1 MOL1        -0.1435
      15    H10     17.644458   18.677047   24.309640 H          1 MOL1         0.0948
      16    H11     17.870243   16.949315   24.212040 H          1 MOL1         0.0948
      17    C6      19.688045   17.990252   24.724346 C.3        1 MOL1        -0.1500
      18    H12     20.442218   17.395091   24.193059 H          1 MOL1         0.0948
      19    H13     19.562722   17.508676   25.703264 H          1 MOL1         0.0948
      20    C7      20.213245   19.426116   24.956129 C.3        1 MOL1         0.1162
      21    H14     20.273182   19.939542   23.993890 H          1 MOL1         0.0910
      22    C8      21.624487   19.386100   25.562838 C.3        1 MOL1        -0.2491
      23    H15     22.017210   20.401200   25.699680 H          1 MOL1         0.0959
      24    H16     21.623087   18.885329   26.539134 H          1 MOL1         0.0959
      25    H17     22.317104   18.847986   24.903746 H          1 MOL1         0.0959
      26    N1      19.292353   20.241894   25.821865 N.4        1 MOL1        -0.5987
      27    H18     18.357834   20.313343   25.410879 H          1 MOL1         0.3605
      28    H19     19.645424   21.194445   25.950546 H          1 MOL1         0.3605
      29    H20     19.189294   19.825512   26.751149 H          1 MOL1         0.3605
@<TRIPOS>BOND
    1     1     2    1
    2     1     3    1
    3     1     4    1
    4     1     5    1
    5     5     6    1
    6     5     7    1
    7     5     8    1
    8     8     9    1
    9     8    10    1
   10     8    11    1
   11    11    12    1
   12    11    13    1
   13    11    14    1
   14    14    15    1
   15    14    16    1
   16    14    17    1
   17    17    18    1
   18    17    19    1
   19    17    20    1
   20    20    21    1
   21    20    22    1
   22    22    23    1
   23    22    24    1
   24    22    25    1
   25    20    26    1
   26    26    27    1
   27    26    28    1
   28    26    29    1
@<TRIPOS>SUBSTRUCTURE
       1 MOL1            1 RESIDUE      1      MOL     
@<SCITEGIC>MOL_PROPERTY
VM2 Rank
SciTegic.value.IntegerValue
187

@<SCITEGIC>MOL_PROPERTY
Conf_Id
SciTegic.value.IntegerValue
482

@<SCITEGIC>MOL_PROPERTY
Probability
SciTegic.value.DoubleValue
0.00

@<SCITEGIC>MOL_PROPERTY
Sum Probability
SciTegic.value.DoubleValue
99.99

@<SCITEGIC>MOL_PROPERTY
Delta G
SciTegic.value.DoubleValue
5.851

@<SCITEGIC>MOL_PROPERTY
G
SciTegic.value.DoubleValue
39.553

@<SCITEGIC>MOL_PROPERTY
E
SciTegic.value.DoubleValue
1.178

@<SCITEGIC>MOL_PROPERTY
-TS
SciTegic.value.DoubleValue
38.375

@<SCITEGIC>MOL_PROPERTY
U+W
SciTegic.value.DoubleValue
-22.967

@<SCITEGIC>MOL_PROPERTY
U
SciTegic.value.DoubleValue
29.616

@<SCITEGIC>MOL_PROPERTY
W
SciTegic.value.DoubleValue
-52.582

@<SCITEGIC>MOL_PROPERTY
W(PB)
SciTegic.value.DoubleValue
-54.955

@<SCITEGIC>MOL_PROPERTY
W(SA)
SciTegic.value.DoubleValue
2.373

@<SCITEGIC>MOL_PROPERTY
Valence
SciTegic.value.DoubleValue
8.185

@<SCITEGIC>MOL_PROPERTY
Coulomb
SciTegic.value.DoubleValue
21.112

@<SCITEGIC>MOL_PROPERTY
VdW
SciTegic.value.DoubleValue
0.319

@<SCITEGIC>MOL_PROPERTY
VdW6
SciTegic.value.DoubleValue
-11.889

@<SCITEGIC>MOL_PROPERTY
VdW12
SciTegic.value.DoubleValue
12.208

@<SCITEGIC>MOL_PROPERTY
Bond
SciTegic.value.DoubleValue
0.321

@<SCITEGIC>MOL_PROPERTY
Angle
SciTegic.value.DoubleValue
2.381

@<SCITEGIC>MOL_PROPERTY
Pdih
SciTegic.value.DoubleValue
5.483

@<SCITEGIC>MOL_PROPERTY
Idih
SciTegic.value.DoubleValue
0.000

@<SCITEGIC>MOL_PROPERTY
Tether
SciTegic.value.DoubleValue
0.000

@<TRIPOS>MOLECULE
guest-s15_vm2.mol2 : vm2 ligand conformer 188
          29          28           1
SMALL
USER_CHARGES
 
@<TRIPOS>ATOM
       1    C1      20.446991   20.646887   20.046300 C.3        1 MOL1        -0.2426
       2    H1      19.455396   21.004671   19.739763 H          1 MOL1         0.0959
       3    H2      20.877012   21.382286   20.738768 H          1 MOL1         0.0959
       4    H3      21.083932   20.612538   19.152905 H          1 MOL1         0.0959
       5    C2      20.354971   19.253619   20.703605 C.3        1 MOL1        -0.1410
       6    H4      21.364190   18.908953   20.969142 H          1 MOL1         0.0948
       7    H5      19.954618   18.533022   19.976737 H          1 MOL1         0.0948
       8    C3      19.462819   19.274188   21.964124 C.3        1 MOL1        -0.1435
       9    H6      19.860159   20.010185   22.671689 H          1 MOL1         0.0948
      10    H7      18.455077   19.616260   21.690859 H          1 MOL1         0.0948
      11    C4      19.368975   17.875770   22.622567 C.3        1 MOL1        -0.1435
      12    H8      20.369729   17.481524   22.844308 H          1 MOL1         0.0948
      13    H9      18.931495   17.185666   21.887777 H          1 MOL1         0.0948
      14    C5      18.489390   17.845634   23.898662 C.3        1 MOL1        -0.1435
      15    H10     17.657405   18.556888   23.802565 H          1 MOL1         0.0948
      16    H11     18.021566   16.853223   23.959811 H          1 MOL1         0.0948
      17    C6      19.241286   18.083105   25.235964 C.3        1 MOL1        -0.1500
      18    H12     20.021763   17.321976   25.368597 H          1 MOL1         0.0948
      19    H13     18.520793   17.904673   26.045164 H          1 MOL1         0.0948
      20    C7      19.837388   19.500917   25.404049 C.3        1 MOL1         0.1162
      21    H14     19.323384   20.172971   24.710928 H          1 MOL1         0.0910
      22    C8      21.346422   19.521745   25.098375 C.3        1 MOL1        -0.2491
      23    H15     21.737850   20.544910   25.154424 H          1 MOL1         0.0959
      24    H16     21.902893   18.906143   25.816134 H          1 MOL1         0.0959
      25    H17     21.559588   19.140434   24.093829 H          1 MOL1         0.0959
      26    N1      19.587757   20.054134   26.780355 N.4        1 MOL1        -0.5987
      27    H18     18.586888   20.095158   26.993988 H          1 MOL1         0.3605
      28    H19     19.958619   21.004059   26.874519 H          1 MOL1         0.3605
      29    H20     20.033563   19.479467   27.500725 H          1 MOL1         0.3605
@<TRIPOS>BOND
    1     1     2    1
    2     1     3    1
    3     1     4    1
    4     1     5    1
    5     5     6    1
    6     5     7    1
    7     5     8    1
    8     8     9    1
    9     8    10    1
   10     8    11    1
   11    11    12    1
   12    11    13    1
   13    11    14    1
   14    14    15    1
   15    14    16    1
   16    14    17    1
   17    17    18    1
   18    17    19    1
   19    17    20    1
   20    20    21    1
   21    20    22    1
   22    22    23    1
   23    22    24    1
   24    22    25    1
   25    20    26    1
   26    26    27    1
   27    26    28    1
   28    26    29    1
@<TRIPOS>SUBSTRUCTURE
       1 MOL1            1 RESIDUE      1      MOL     
@<SCITEGIC>MOL_PROPERTY
VM2 Rank
SciTegic.value.IntegerValue
188

@<SCITEGIC>MOL_PROPERTY
Conf_Id
SciTegic.value.IntegerValue
1311

@<SCITEGIC>MOL_PROPERTY
Probability
SciTegic.value.DoubleValue
0.00

@<SCITEGIC>MOL_PROPERTY
Sum Probability
SciTegic.value.DoubleValue
100.00

@<SCITEGIC>MOL_PROPERTY
Delta G
SciTegic.value.DoubleValue
5.873

@<SCITEGIC>MOL_PROPERTY
G
SciTegic.value.DoubleValue
39.575

@<SCITEGIC>MOL_PROPERTY
E
SciTegic.value.DoubleValue
1.532

@<SCITEGIC>MOL_PROPERTY
-TS
SciTegic.value.DoubleValue
38.044

@<SCITEGIC>MOL_PROPERTY
U+W
SciTegic.value.DoubleValue
-22.613

@<SCITEGIC>MOL_PROPERTY
U
SciTegic.value.DoubleValue
29.858

@<SCITEGIC>MOL_PROPERTY
W
SciTegic.value.DoubleValue
-52.471

@<SCITEGIC>MOL_PROPERTY
W(PB)
SciTegic.value.DoubleValue
-54.907

@<SCITEGIC>MOL_PROPERTY
W(SA)
SciTegic.value.DoubleValue
2.436

@<SCITEGIC>MOL_PROPERTY
Valence
SciTegic.value.DoubleValue
8.678

@<SCITEGIC>MOL_PROPERTY
Coulomb
SciTegic.value.DoubleValue
20.336

@<SCITEGIC>MOL_PROPERTY
VdW
SciTegic.value.DoubleValue
0.844

@<SCITEGIC>MOL_PROPERTY
VdW6
SciTegic.value.DoubleValue
-10.508

@<SCITEGIC>MOL_PROPERTY
VdW12
SciTegic.value.DoubleValue
11.352

@<SCITEGIC>MOL_PROPERTY
Bond
SciTegic.value.DoubleValue
0.280

@<SCITEGIC>MOL_PROPERTY
Angle
SciTegic.value.DoubleValue
2.113

@<SCITEGIC>MOL_PROPERTY
Pdih
SciTegic.value.DoubleValue
6.286

@<SCITEGIC>MOL_PROPERTY
Idih
SciTegic.value.DoubleValue
0.000

@<SCITEGIC>MOL_PROPERTY
Tether
SciTegic.value.DoubleValue
0.000

@<TRIPOS>MOLECULE
guest-s15_vm2.mol2 : vm2 ligand conformer 189
          29          28           1
SMALL
USER_CHARGES
 
@<TRIPOS>ATOM
       1    C1      19.693939   19.669321   19.878194 C.3        1 MOL1        -0.2426
       2    H1      18.871713   19.107060   19.416991 H          1 MOL1         0.0959
       3    H2      19.277322   20.575619   20.334896 H          1 MOL1         0.0959
       4    H3      20.375520   19.985548   19.078044 H          1 MOL1         0.0959
       5    C2      20.443029   18.804917   20.917219 C.3        1 MOL1        -0.1410
       6    H4      21.248427   19.393124   21.376814 H          1 MOL1         0.0948
       7    H5      20.937239   17.973993   20.394885 H          1 MOL1         0.0948
       8    C3      19.516636   18.217922   22.012173 C.3        1 MOL1        -0.1435
       9    H6      18.779504   17.557760   21.535021 H          1 MOL1         0.0948
      10    H7      20.112424   17.569769   22.666751 H          1 MOL1         0.0948
      11    C4      18.758956   19.268553   22.868416 C.3        1 MOL1        -0.1435
      12    H8      18.119092   18.753279   23.593950 H          1 MOL1         0.0948
      13    H9      18.061853   19.818489   22.222496 H          1 MOL1         0.0948
      14    C5      19.660587   20.293979   23.603816 C.3        1 MOL1        -0.1435
      15    H10     20.166595   20.912870   22.851112 H          1 MOL1         0.0948
      16    H11     19.022220   20.995090   24.157103 H          1 MOL1         0.0948
      17    C6      20.744618   19.710963   24.558027 C.3        1 MOL1        -0.1500
      18    H12     21.356483   20.555708   24.900232 H          1 MOL1         0.0948
      19    H13     21.437752   19.070084   23.998810 H          1 MOL1         0.0948
      20    C7      20.254467   18.969955   25.829779 C.3        1 MOL1         0.1162
      21    H14     21.075805   19.016454   26.551528 H          1 MOL1         0.0910
      22    C8      19.975705   17.475739   25.589020 C.3        1 MOL1        -0.2491
      23    H15     19.102178   17.312472   24.951241 H          1 MOL1         0.0959
      24    H16     20.839731   16.988160   25.121139 H          1 MOL1         0.0959
      25    H17     19.788089   16.966300   26.542104 H          1 MOL1         0.0959
      26    N1      19.088062   19.644652   26.497357 N.4        1 MOL1        -0.5987
      27    H18     19.304002   20.617520   26.732760 H          1 MOL1         0.3605
      28    H19     18.825852   19.168754   27.365264 H          1 MOL1         0.3605
      29    H20     18.268004   19.649343   25.885737 H          1 MOL1         0.3605
@<TRIPOS>BOND
    1     1     2    1
    2     1     3    1
    3     1     4    1
    4     1     5    1
    5     5     6    1
    6     5     7    1
    7     5     8    1
    8     8     9    1
    9     8    10    1
   10     8    11    1
   11    11    12    1
   12    11    13    1
   13    11    14    1
   14    14    15    1
   15    14    16    1
   16    14    17    1
   17    17    18    1
   18    17    19    1
   19    17    20    1
   20    20    21    1
   21    20    22    1
   22    22    23    1
   23    22    24    1
   24    22    25    1
   25    20    26    1
   26    26    27    1
   27    26    28    1
   28    26    29    1
@<TRIPOS>SUBSTRUCTURE
       1 MOL1            1 RESIDUE      1      MOL     
@<SCITEGIC>MOL_PROPERTY
VM2 Rank
SciTegic.value.IntegerValue
189

@<SCITEGIC>MOL_PROPERTY
Conf_Id
SciTegic.value.IntegerValue
79

@<SCITEGIC>MOL_PROPERTY
Probability
SciTegic.value.DoubleValue
0.00

@<SCITEGIC>MOL_PROPERTY
Sum Probability
SciTegic.value.DoubleValue
100.00

@<SCITEGIC>MOL_PROPERTY
Delta G
SciTegic.value.DoubleValue
5.943

@<SCITEGIC>MOL_PROPERTY
G
SciTegic.value.DoubleValue
39.645

@<SCITEGIC>MOL_PROPERTY
E
SciTegic.value.DoubleValue
0.660

@<SCITEGIC>MOL_PROPERTY
-TS
SciTegic.value.DoubleValue
38.985

@<SCITEGIC>MOL_PROPERTY
U+W
SciTegic.value.DoubleValue
-23.485

@<SCITEGIC>MOL_PROPERTY
U
SciTegic.value.DoubleValue
29.136

@<SCITEGIC>MOL_PROPERTY
W
SciTegic.value.DoubleValue
-52.620

@<SCITEGIC>MOL_PROPERTY
W(PB)
SciTegic.value.DoubleValue
-54.965

@<SCITEGIC>MOL_PROPERTY
W(SA)
SciTegic.value.DoubleValue
2.344

@<SCITEGIC>MOL_PROPERTY
Valence
SciTegic.value.DoubleValue
7.786

@<SCITEGIC>MOL_PROPERTY
Coulomb
SciTegic.value.DoubleValue
20.543

@<SCITEGIC>MOL_PROPERTY
VdW
SciTegic.value.DoubleValue
0.806

@<SCITEGIC>MOL_PROPERTY
VdW6
SciTegic.value.DoubleValue
-12.839

@<SCITEGIC>MOL_PROPERTY
VdW12
SciTegic.value.DoubleValue
13.645

@<SCITEGIC>MOL_PROPERTY
Bond
SciTegic.value.DoubleValue
0.443

@<SCITEGIC>MOL_PROPERTY
Angle
SciTegic.value.DoubleValue
3.663

@<SCITEGIC>MOL_PROPERTY
Pdih
SciTegic.value.DoubleValue
3.681

@<SCITEGIC>MOL_PROPERTY
Idih
SciTegic.value.DoubleValue
0.000

@<SCITEGIC>MOL_PROPERTY
Tether
SciTegic.value.DoubleValue
0.000

@<TRIPOS>MOLECULE
guest-s15_vm2.mol2 : vm2 ligand conformer 190
          29          28           1
SMALL
USER_CHARGES
 
@<TRIPOS>ATOM
       1    C1      20.747734   20.344068   20.690031 C.3        1 MOL1        -0.2426
       2    H1      21.455504   19.526090   20.503337 H          1 MOL1         0.0959
       3    H2      21.008614   21.173997   20.020694 H          1 MOL1         0.0959
       4    H3      20.884830   20.699388   21.718461 H          1 MOL1         0.0959
       5    C2      19.292658   19.890188   20.443684 C.3        1 MOL1        -0.1410
       6    H4      19.151787   19.731878   19.365340 H          1 MOL1         0.0948
       7    H5      18.605767   20.700955   20.723837 H          1 MOL1         0.0948
       8    C3      18.892930   18.589037   21.185409 C.3        1 MOL1        -0.1435
       9    H6      17.860456   18.349746   20.895363 H          1 MOL1         0.0948
      10    H7      19.501592   17.748379   20.825404 H          1 MOL1         0.0948
      11    C4      18.949549   18.675763   22.733389 C.3        1 MOL1        -0.1435
      12    H8      18.144141   18.050118   23.142361 H          1 MOL1         0.0948
      13    H9      18.736788   19.706093   23.041117 H          1 MOL1         0.0948
      14    C5      20.295133   18.187367   23.329795 C.3        1 MOL1        -0.1435
      15    H10     20.540127   17.211748   22.888077 H          1 MOL1         0.0948
      16    H11     21.110134   18.861053   23.040459 H          1 MOL1         0.0948
      17    C6      20.299786   18.020232   24.872205 C.3        1 MOL1        -0.1500
      18    H12     21.251364   17.541992   25.140359 H          1 MOL1         0.0948
      19    H13     19.514853   17.317275   25.180952 H          1 MOL1         0.0948
      20    C7      20.171458   19.340490   25.668427 C.3        1 MOL1         0.1162
      21    H14     20.762327   20.109003   25.160693 H          1 MOL1         0.0910
      22    C8      20.730624   19.164539   27.089945 C.3        1 MOL1        -0.2491
      23    H15     20.180844   18.390006   27.639383 H          1 MOL1         0.0959
      24    H16     21.789155   18.877372   27.061032 H          1 MOL1         0.0959
      25    H17     20.657764   20.101945   27.655143 H          1 MOL1         0.0959
      26    N1      18.756128   19.844316   25.741116 N.4        1 MOL1        -0.5987
      27    H18     18.360921   19.984854   24.808768 H          1 MOL1         0.3605
      28    H19     18.702796   20.738209   26.237937 H          1 MOL1         0.3605
      29    H20     18.151818   19.182728   26.235722 H          1 MOL1         0.3605
@<TRIPOS>BOND
    1     1     2    1
    2     1     3    1
    3     1     4    1
    4     1     5    1
    5     5     6    1
    6     5     7    1
    7     5     8    1
    8     8     9    1
    9     8    10    1
   10     8    11    1
   11    11    12    1
   12    11    13    1
   13    11    14    1
   14    14    15    1
   15    14    16    1
   16    14    17    1
   17    17    18    1
   18    17    19    1
   19    17    20    1
   20    20    21    1
   21    20    22    1
   22    22    23    1
   23    22    24    1
   24    22    25    1
   25    20    26    1
   26    26    27    1
   27    26    28    1
   28    26    29    1
@<TRIPOS>SUBSTRUCTURE
       1 MOL1            1 RESIDUE      1      MOL     
@<SCITEGIC>MOL_PROPERTY
VM2 Rank
SciTegic.value.IntegerValue
190

@<SCITEGIC>MOL_PROPERTY
Conf_Id
SciTegic.value.IntegerValue
1516

@<SCITEGIC>MOL_PROPERTY
Probability
SciTegic.value.DoubleValue
0.00

@<SCITEGIC>MOL_PROPERTY
Sum Probability
SciTegic.value.DoubleValue
100.00

@<SCITEGIC>MOL_PROPERTY
Delta G
SciTegic.value.DoubleValue
6.057

@<SCITEGIC>MOL_PROPERTY
G
SciTegic.value.DoubleValue
39.759

@<SCITEGIC>MOL_PROPERTY
E
SciTegic.value.DoubleValue
2.258

@<SCITEGIC>MOL_PROPERTY
-TS
SciTegic.value.DoubleValue
37.501

@<SCITEGIC>MOL_PROPERTY
U+W
SciTegic.value.DoubleValue
-21.887

@<SCITEGIC>MOL_PROPERTY
U
SciTegic.value.DoubleValue
30.431

@<SCITEGIC>MOL_PROPERTY
W
SciTegic.value.DoubleValue
-52.317

@<SCITEGIC>MOL_PROPERTY
W(PB)
SciTegic.value.DoubleValue
-54.736

@<SCITEGIC>MOL_PROPERTY
W(SA)
SciTegic.value.DoubleValue
2.419

@<SCITEGIC>MOL_PROPERTY
Valence
SciTegic.value.DoubleValue
7.908

@<SCITEGIC>MOL_PROPERTY
Coulomb
SciTegic.value.DoubleValue
21.387

@<SCITEGIC>MOL_PROPERTY
VdW
SciTegic.value.DoubleValue
1.135

@<SCITEGIC>MOL_PROPERTY
VdW6
SciTegic.value.DoubleValue
-10.626

@<SCITEGIC>MOL_PROPERTY
VdW12
SciTegic.value.DoubleValue
11.762

@<SCITEGIC>MOL_PROPERTY
Bond
SciTegic.value.DoubleValue
0.341

@<SCITEGIC>MOL_PROPERTY
Angle
SciTegic.value.DoubleValue
2.396

@<SCITEGIC>MOL_PROPERTY
Pdih
SciTegic.value.DoubleValue
5.171

@<SCITEGIC>MOL_PROPERTY
Idih
SciTegic.value.DoubleValue
0.000

@<SCITEGIC>MOL_PROPERTY
Tether
SciTegic.value.DoubleValue
0.000

@<TRIPOS>MOLECULE
guest-s15_vm2.mol2 : vm2 ligand conformer 191
          29          28           1
SMALL
USER_CHARGES
 
@<TRIPOS>ATOM
       1    C1      20.829304   19.337822   20.025359 C.3        1 MOL1        -0.2426
       2    H1      21.420255   18.868264   20.818922 H          1 MOL1         0.0959
       3    H2      20.494059   18.548710   19.339865 H          1 MOL1         0.0959
       4    H3      21.498715   20.003044   19.464773 H          1 MOL1         0.0959
       5    C2      19.625901   20.131211   20.585540 C.3        1 MOL1        -0.1410
       6    H4      19.119137   20.615921   19.739304 H          1 MOL1         0.0948
       7    H5      19.975208   20.945730   21.235184 H          1 MOL1         0.0948
       8    C3      18.593945   19.248935   21.334679 C.3        1 MOL1        -0.1435
       9    H6      17.596790   19.680742   21.171501 H          1 MOL1         0.0948
      10    H7      18.556991   18.245027   20.889798 H          1 MOL1         0.0948
      11    C4      18.811029   19.148952   22.866644 C.3        1 MOL1        -0.1435
      12    H8      17.969153   18.587868   23.295206 H          1 MOL1         0.0948
      13    H9      18.769138   20.159812   23.290428 H          1 MOL1         0.0948
      14    C5      20.136835   18.462721   23.274969 C.3        1 MOL1        -0.1435
      15    H10     20.277085   17.568921   22.651655 H          1 MOL1         0.0948
      16    H11     20.980023   19.131307   23.057004 H          1 MOL1         0.0948
      17    C6      20.211259   18.024900   24.761508 C.3        1 MOL1        -0.1500
      18    H12     21.133337   17.440097   24.879214 H          1 MOL1         0.0948
      19    H13     19.388524   17.336725   24.996311 H          1 MOL1         0.0948
      20    C7      20.234941   19.188817   25.780370 C.3        1 MOL1         0.1162
      21    H14     20.884128   19.977649   25.388173 H          1 MOL1         0.0910
      22    C8      20.813819   18.712154   27.122708 C.3        1 MOL1        -0.2491
      23    H15     20.205371   17.907055   27.553562 H          1 MOL1         0.0959
      24    H16     21.837163   18.337267   26.996205 H          1 MOL1         0.0959
      25    H17     20.850763   19.537064   27.844956 H          1 MOL1         0.0959
      26    N1      18.878967   19.800488   26.002222 N.4        1 MOL1        -0.5987
      27    H18     18.475117   20.139986   25.126395 H          1 MOL1         0.3605
      28    H19     18.927799   20.593274   26.648625 H          1 MOL1         0.3605
      29    H20     18.225770   19.120512   26.400304 H          1 MOL1         0.3605
@<TRIPOS>BOND
    1     1     2    1
    2     1     3    1
    3     1     4    1
    4     1     5    1
    5     5     6    1
    6     5     7    1
    7     5     8    1
    8     8     9    1
    9     8    10    1
   10     8    11    1
   11    11    12    1
   12    11    13    1
   13    11    14    1
   14    14    15    1
   15    14    16    1
   16    14    17    1
   17    17    18    1
   18    17    19    1
   19    17    20    1
   20    20    21    1
   21    20    22    1
   22    22    23    1
   23    22    24    1
   24    22    25    1
   25    20    26    1
   26    26    27    1
   27    26    28    1
   28    26    29    1
@<TRIPOS>SUBSTRUCTURE
       1 MOL1            1 RESIDUE      1      MOL     
@<SCITEGIC>MOL_PROPERTY
VM2 Rank
SciTegic.value.IntegerValue
191

@<SCITEGIC>MOL_PROPERTY
Conf_Id
SciTegic.value.IntegerValue
980

@<SCITEGIC>MOL_PROPERTY
Probability
SciTegic.value.DoubleValue
0.00

@<SCITEGIC>MOL_PROPERTY
Sum Probability
SciTegic.value.DoubleValue
100.00

@<SCITEGIC>MOL_PROPERTY
Delta G
SciTegic.value.DoubleValue
6.078

@<SCITEGIC>MOL_PROPERTY
G
SciTegic.value.DoubleValue
39.780

@<SCITEGIC>MOL_PROPERTY
E
SciTegic.value.DoubleValue
2.059

@<SCITEGIC>MOL_PROPERTY
-TS
SciTegic.value.DoubleValue
37.721

@<SCITEGIC>MOL_PROPERTY
U+W
SciTegic.value.DoubleValue
-22.086

@<SCITEGIC>MOL_PROPERTY
U
SciTegic.value.DoubleValue
30.184

@<SCITEGIC>MOL_PROPERTY
W
SciTegic.value.DoubleValue
-52.270

@<SCITEGIC>MOL_PROPERTY
W(PB)
SciTegic.value.DoubleValue
-54.704

@<SCITEGIC>MOL_PROPERTY
W(SA)
SciTegic.value.DoubleValue
2.434

@<SCITEGIC>MOL_PROPERTY
Valence
SciTegic.value.DoubleValue
7.817

@<SCITEGIC>MOL_PROPERTY
Coulomb
SciTegic.value.DoubleValue
21.246

@<SCITEGIC>MOL_PROPERTY
VdW
SciTegic.value.DoubleValue
1.122

@<SCITEGIC>MOL_PROPERTY
VdW6
SciTegic.value.DoubleValue
-10.605

@<SCITEGIC>MOL_PROPERTY
VdW12
SciTegic.value.DoubleValue
11.727

@<SCITEGIC>MOL_PROPERTY
Bond
SciTegic.value.DoubleValue
0.328

@<SCITEGIC>MOL_PROPERTY
Angle
SciTegic.value.DoubleValue
2.365

@<SCITEGIC>MOL_PROPERTY
Pdih
SciTegic.value.DoubleValue
5.124

@<SCITEGIC>MOL_PROPERTY
Idih
SciTegic.value.DoubleValue
0.000

@<SCITEGIC>MOL_PROPERTY
Tether
SciTegic.value.DoubleValue
0.000

@<TRIPOS>MOLECULE
guest-s15_vm2.mol2 : vm2 ligand conformer 192
          29          28           1
SMALL
USER_CHARGES
 
@<TRIPOS>ATOM
       1    C1      19.384657   18.379232   19.629924 C.3        1 MOL1        -0.2426
       2    H1      19.272119   17.302678   19.447244 H          1 MOL1         0.0959
       3    H2      18.515081   18.887651   19.193395 H          1 MOL1         0.0959
       4    H3      20.282590   18.719506   19.097792 H          1 MOL1         0.0959
       5    C2      19.494471   18.666629   21.142238 C.3        1 MOL1        -0.1410
       6    H4      20.351152   18.112290   21.548076 H          1 MOL1         0.0948
       7    H5      18.595693   18.290326   21.650139 H          1 MOL1         0.0948
       8    C3      19.660764   20.177428   21.424767 C.3        1 MOL1        -0.1435
       9    H6      20.588669   20.537187   20.959143 H          1 MOL1         0.0948
      10    H7      18.842246   20.723520   20.935792 H          1 MOL1         0.0948
      11    C4      19.662724   20.545583   22.930687 C.3        1 MOL1        -0.1435
      12    H8      18.700085   20.266299   23.375578 H          1 MOL1         0.0948
      13    H9      19.720932   21.640373   23.004387 H          1 MOL1         0.0948
      14    C5      20.846922   19.941243   23.733842 C.3        1 MOL1        -0.1435
      15    H10     21.699431   19.794862   23.056294 H          1 MOL1         0.0948
      16    H11     21.193815   20.671127   24.478486 H          1 MOL1         0.0948
      17    C6      20.527772   18.602116   24.453080 C.3        1 MOL1        -0.1500
      18    H12     21.454695   18.015346   24.501734 H          1 MOL1         0.0948
      19    H13     19.820145   18.003022   23.867586 H          1 MOL1         0.0948
      20    C7      20.002182   18.778356   25.896493 C.3        1 MOL1         0.1162
      21    H14     20.744610   19.352344   26.459435 H          1 MOL1         0.0910
      22    C8      19.838298   17.409209   26.575446 C.3        1 MOL1        -0.2491
      23    H15     19.099449   16.791393   26.049787 H          1 MOL1         0.0959
      24    H16     20.790590   16.864550   26.590248 H          1 MOL1         0.0959
      25    H17     19.507226   17.528133   27.614515 H          1 MOL1         0.0959
      26    N1      18.718209   19.556203   25.967523 N.4        1 MOL1        -0.5987
      27    H18     18.824290   20.480270   25.539622 H          1 MOL1         0.3605
      28    H19     18.418341   19.696217   26.936665 H          1 MOL1         0.3605
      29    H20     17.961946   19.070887   25.477935 H          1 MOL1         0.3605
@<TRIPOS>BOND
    1     1     2    1
    2     1     3    1
    3     1     4    1
    4     1     5    1
    5     5     6    1
    6     5     7    1
    7     5     8    1
    8     8     9    1
    9     8    10    1
   10     8    11    1
   11    11    12    1
   12    11    13    1
   13    11    14    1
   14    14    15    1
   15    14    16    1
   16    14    17    1
   17    17    18    1
   18    17    19    1
   19    17    20    1
   20    20    21    1
   21    20    22    1
   22    22    23    1
   23    22    24    1
   24    22    25    1
   25    20    26    1
   26    26    27    1
   27    26    28    1
   28    26    29    1
@<TRIPOS>SUBSTRUCTURE
       1 MOL1            1 RESIDUE      1      MOL     
@<SCITEGIC>MOL_PROPERTY
VM2 Rank
SciTegic.value.IntegerValue
192

@<SCITEGIC>MOL_PROPERTY
Conf_Id
SciTegic.value.IntegerValue
656

@<SCITEGIC>MOL_PROPERTY
Probability
SciTegic.value.DoubleValue
0.00

@<SCITEGIC>MOL_PROPERTY
Sum Probability
SciTegic.value.DoubleValue
100.00

@<SCITEGIC>MOL_PROPERTY
Delta G
SciTegic.value.DoubleValue
6.112

@<SCITEGIC>MOL_PROPERTY
G
SciTegic.value.DoubleValue
39.814

@<SCITEGIC>MOL_PROPERTY
E
SciTegic.value.DoubleValue
1.851

@<SCITEGIC>MOL_PROPERTY
-TS
SciTegic.value.DoubleValue
37.963

@<SCITEGIC>MOL_PROPERTY
U+W
SciTegic.value.DoubleValue
-22.293

@<SCITEGIC>MOL_PROPERTY
U
SciTegic.value.DoubleValue
30.054

@<SCITEGIC>MOL_PROPERTY
W
SciTegic.value.DoubleValue
-52.347

@<SCITEGIC>MOL_PROPERTY
W(PB)
SciTegic.value.DoubleValue
-54.788

@<SCITEGIC>MOL_PROPERTY
W(SA)
SciTegic.value.DoubleValue
2.441

@<SCITEGIC>MOL_PROPERTY
Valence
SciTegic.value.DoubleValue
8.014

@<SCITEGIC>MOL_PROPERTY
Coulomb
SciTegic.value.DoubleValue
20.943

@<SCITEGIC>MOL_PROPERTY
VdW
SciTegic.value.DoubleValue
1.097

@<SCITEGIC>MOL_PROPERTY
VdW6
SciTegic.value.DoubleValue
-10.534

@<SCITEGIC>MOL_PROPERTY
VdW12
SciTegic.value.DoubleValue
11.631

@<SCITEGIC>MOL_PROPERTY
Bond
SciTegic.value.DoubleValue
0.334

@<SCITEGIC>MOL_PROPERTY
Angle
SciTegic.value.DoubleValue
1.815

@<SCITEGIC>MOL_PROPERTY
Pdih
SciTegic.value.DoubleValue
5.865

@<SCITEGIC>MOL_PROPERTY
Idih
SciTegic.value.DoubleValue
0.000

@<SCITEGIC>MOL_PROPERTY
Tether
SciTegic.value.DoubleValue
0.000

@<TRIPOS>MOLECULE
guest-s15_vm2.mol2 : vm2 ligand conformer 193
          29          28           1
SMALL
USER_CHARGES
 
@<TRIPOS>ATOM
       1    C1      18.701358   20.718398   20.917342 C.3        1 MOL1        -0.2426
       2    H1      18.342360   21.229885   20.014815 H          1 MOL1         0.0959
       3    H2      17.866514   20.673707   21.628417 H          1 MOL1         0.0959
       4    H3      19.495257   21.338864   21.350723 H          1 MOL1         0.0959
       5    C2      19.210821   19.302141   20.564944 C.3        1 MOL1        -0.1410
       6    H4      20.053885   19.374859   19.863698 H          1 MOL1         0.0948
       7    H5      18.414511   18.763081   20.032841 H          1 MOL1         0.0948
       8    C3      19.628315   18.474283   21.803289 C.3        1 MOL1        -0.1435
       9    H6      18.777941   18.408582   22.492700 H          1 MOL1         0.0948
      10    H7      19.839105   17.445062   21.481545 H          1 MOL1         0.0948
      11    C4      20.881139   19.037146   22.521661 C.3        1 MOL1        -0.1435
      12    H8      20.721611   20.071715   22.844766 H          1 MOL1         0.0948
      13    H9      21.706814   19.082772   21.798111 H          1 MOL1         0.0948
      14    C5      21.341708   18.177739   23.726214 C.3        1 MOL1        -0.1435
      15    H10     21.636613   17.186118   23.356120 H          1 MOL1         0.0948
      16    H11     22.256004   18.622614   24.142775 H          1 MOL1         0.0948
      17    C6      20.313572   17.987525   24.875681 C.3        1 MOL1        -0.1500
      18    H12     20.787280   17.336715   25.622705 H          1 MOL1         0.0948
      19    H13     19.433654   17.435054   24.522722 H          1 MOL1         0.0948
      20    C7      19.875229   19.297907   25.571841 C.3        1 MOL1         0.1162
      21    H14     20.750772   19.948227   25.661292 H          1 MOL1         0.0910
      22    C8      19.345235   19.005527   26.985111 C.3        1 MOL1        -0.2491
      23    H15     18.473666   18.339748   26.952118 H          1 MOL1         0.0959
      24    H16     20.117416   18.527858   27.601010 H          1 MOL1         0.0959
      25    H17     19.048003   19.933834   27.488491 H          1 MOL1         0.0959
      26    N1      18.838623   20.055333   24.787918 N.4        1 MOL1        -0.5987
      27    H18     17.957331   19.536528   24.745138 H          1 MOL1         0.3605
      28    H19     19.149719   20.217162   23.825802 H          1 MOL1         0.3605
      29    H20     18.638625   20.965403   25.213450 H          1 MOL1         0.3605
@<TRIPOS>BOND
    1     1     2    1
    2     1     3    1
    3     1     4    1
    4     1     5    1
    5     5     6    1
    6     5     7    1
    7     5     8    1
    8     8     9    1
    9     8    10    1
   10     8    11    1
   11    11    12    1
   12    11    13    1
   13    11    14    1
   14    14    15    1
   15    14    16    1
   16    14    17    1
   17    17    18    1
   18    17    19    1
   19    17    20    1
   20    20    21    1
   21    20    22    1
   22    22    23    1
   23    22    24    1
   24    22    25    1
   25    20    26    1
   26    26    27    1
   27    26    28    1
   28    26    29    1
@<TRIPOS>SUBSTRUCTURE
       1 MOL1            1 RESIDUE      1      MOL     
@<SCITEGIC>MOL_PROPERTY
VM2 Rank
SciTegic.value.IntegerValue
193

@<SCITEGIC>MOL_PROPERTY
Conf_Id
SciTegic.value.IntegerValue
629

@<SCITEGIC>MOL_PROPERTY
Probability
SciTegic.value.DoubleValue
0.00

@<SCITEGIC>MOL_PROPERTY
Sum Probability
SciTegic.value.DoubleValue
100.00

@<SCITEGIC>MOL_PROPERTY
Delta G
SciTegic.value.DoubleValue
6.245

@<SCITEGIC>MOL_PROPERTY
G
SciTegic.value.DoubleValue
39.947

@<SCITEGIC>MOL_PROPERTY
E
SciTegic.value.DoubleValue
1.605

@<SCITEGIC>MOL_PROPERTY
-TS
SciTegic.value.DoubleValue
38.342

@<SCITEGIC>MOL_PROPERTY
U+W
SciTegic.value.DoubleValue
-22.539

@<SCITEGIC>MOL_PROPERTY
U
SciTegic.value.DoubleValue
28.370

@<SCITEGIC>MOL_PROPERTY
W
SciTegic.value.DoubleValue
-50.909

@<SCITEGIC>MOL_PROPERTY
W(PB)
SciTegic.value.DoubleValue
-53.309

@<SCITEGIC>MOL_PROPERTY
W(SA)
SciTegic.value.DoubleValue
2.400

@<SCITEGIC>MOL_PROPERTY
Valence
SciTegic.value.DoubleValue
5.939

@<SCITEGIC>MOL_PROPERTY
Coulomb
SciTegic.value.DoubleValue
21.711

@<SCITEGIC>MOL_PROPERTY
VdW
SciTegic.value.DoubleValue
0.720

@<SCITEGIC>MOL_PROPERTY
VdW6
SciTegic.value.DoubleValue
-11.570

@<SCITEGIC>MOL_PROPERTY
VdW12
SciTegic.value.DoubleValue
12.290

@<SCITEGIC>MOL_PROPERTY
Bond
SciTegic.value.DoubleValue
0.321

@<SCITEGIC>MOL_PROPERTY
Angle
SciTegic.value.DoubleValue
2.349

@<SCITEGIC>MOL_PROPERTY
Pdih
SciTegic.value.DoubleValue
3.269

@<SCITEGIC>MOL_PROPERTY
Idih
SciTegic.value.DoubleValue
0.000

@<SCITEGIC>MOL_PROPERTY
Tether
SciTegic.value.DoubleValue
0.000

@<TRIPOS>MOLECULE
guest-s15_vm2.mol2 : vm2 ligand conformer 194
          29          28           1
SMALL
USER_CHARGES
 
@<TRIPOS>ATOM
       1    C1      21.292863   19.937055   21.335271 C.3        1 MOL1        -0.2426
       2    H1      21.150475   20.165406   22.396562 H          1 MOL1         0.0959
       3    H2      22.342187   19.646997   21.195387 H          1 MOL1         0.0959
       4    H3      21.124502   20.860963   20.766950 H          1 MOL1         0.0959
       5    C2      20.351145   18.811492   20.847083 C.3        1 MOL1        -0.1410
       6    H4      20.576130   17.866288   21.359010 H          1 MOL1         0.0948
       7    H5      20.567156   18.633080   19.784370 H          1 MOL1         0.0948
       8    C3      18.847179   19.157914   20.988074 C.3        1 MOL1        -0.1435
       9    H6      18.692818   20.237002   20.850996 H          1 MOL1         0.0948
      10    H7      18.315228   18.678944   20.154411 H          1 MOL1         0.0948
      11    C4      18.163579   18.683825   22.299483 C.3        1 MOL1        -0.1435
      12    H8      18.247275   17.592549   22.395663 H          1 MOL1         0.0948
      13    H9      17.088443   18.885731   22.195777 H          1 MOL1         0.0948
      14    C5      18.651316   19.377310   23.596750 C.3        1 MOL1        -0.1435
      15    H10     19.010865   20.389858   23.369577 H          1 MOL1         0.0948
      16    H11     17.785827   19.506257   24.260315 H          1 MOL1         0.0948
      17    C6      19.733417   18.564812   24.354037 C.3        1 MOL1        -0.1500
      18    H12     20.547640   18.303244   23.669279 H          1 MOL1         0.0948
      19    H13     19.305356   17.613699   24.697430 H          1 MOL1         0.0948
      20    C7      20.325161   19.330566   25.556630 C.3        1 MOL1         0.1162
      21    H14     20.720574   20.284483   25.194273 H          1 MOL1         0.0910
      22    C8      21.482537   18.534643   26.180294 C.3        1 MOL1        -0.2491
      23    H15     21.137565   17.565418   26.561778 H          1 MOL1         0.0959
      24    H16     22.271511   18.349596   25.440638 H          1 MOL1         0.0959
      25    H17     21.931189   19.089898   27.013236 H          1 MOL1         0.0959
      26    N1      19.288803   19.658385   26.596378 N.4        1 MOL1        -0.5987
      27    H18     18.532249   20.225119   26.203748 H          1 MOL1         0.3605
      28    H19     19.693882   20.184854   27.375699 H          1 MOL1         0.3605
      29    H20     18.869071   18.809586   26.984781 H          1 MOL1         0.3605
@<TRIPOS>BOND
    1     1     2    1
    2     1     3    1
    3     1     4    1
    4     1     5    1
    5     5     6    1
    6     5     7    1
    7     5     8    1
    8     8     9    1
    9     8    10    1
   10     8    11    1
   11    11    12    1
   12    11    13    1
   13    11    14    1
   14    14    15    1
   15    14    16    1
   16    14    17    1
   17    17    18    1
   18    17    19    1
   19    17    20    1
   20    20    21    1
   21    20    22    1
   22    22    23    1
   23    22    24    1
   24    22    25    1
   25    20    26    1
   26    26    27    1
   27    26    28    1
   28    26    29    1
@<TRIPOS>SUBSTRUCTURE
       1 MOL1            1 RESIDUE      1      MOL     
@<SCITEGIC>MOL_PROPERTY
VM2 Rank
SciTegic.value.IntegerValue
194

@<SCITEGIC>MOL_PROPERTY
Conf_Id
SciTegic.value.IntegerValue
1208

@<SCITEGIC>MOL_PROPERTY
Probability
SciTegic.value.DoubleValue
0.00

@<SCITEGIC>MOL_PROPERTY
Sum Probability
SciTegic.value.DoubleValue
100.00

@<SCITEGIC>MOL_PROPERTY
Delta G
SciTegic.value.DoubleValue
6.256

@<SCITEGIC>MOL_PROPERTY
G
SciTegic.value.DoubleValue
39.958

@<SCITEGIC>MOL_PROPERTY
E
SciTegic.value.DoubleValue
1.672

@<SCITEGIC>MOL_PROPERTY
-TS
SciTegic.value.DoubleValue
38.286

@<SCITEGIC>MOL_PROPERTY
U+W
SciTegic.value.DoubleValue
-22.472

@<SCITEGIC>MOL_PROPERTY
U
SciTegic.value.DoubleValue
30.008

@<SCITEGIC>MOL_PROPERTY
W
SciTegic.value.DoubleValue
-52.480

@<SCITEGIC>MOL_PROPERTY
W(PB)
SciTegic.value.DoubleValue
-54.891

@<SCITEGIC>MOL_PROPERTY
W(SA)
SciTegic.value.DoubleValue
2.411

@<SCITEGIC>MOL_PROPERTY
Valence
SciTegic.value.DoubleValue
8.778

@<SCITEGIC>MOL_PROPERTY
Coulomb
SciTegic.value.DoubleValue
20.386

@<SCITEGIC>MOL_PROPERTY
VdW
SciTegic.value.DoubleValue
0.844

@<SCITEGIC>MOL_PROPERTY
VdW6
SciTegic.value.DoubleValue
-10.989

@<SCITEGIC>MOL_PROPERTY
VdW12
SciTegic.value.DoubleValue
11.834

@<SCITEGIC>MOL_PROPERTY
Bond
SciTegic.value.DoubleValue
0.330

@<SCITEGIC>MOL_PROPERTY
Angle
SciTegic.value.DoubleValue
2.382

@<SCITEGIC>MOL_PROPERTY
Pdih
SciTegic.value.DoubleValue
6.066

@<SCITEGIC>MOL_PROPERTY
Idih
SciTegic.value.DoubleValue
0.000

@<SCITEGIC>MOL_PROPERTY
Tether
SciTegic.value.DoubleValue
0.000

@<TRIPOS>MOLECULE
guest-s15_vm2.mol2 : vm2 ligand conformer 195
          29          28           1
SMALL
USER_CHARGES
 
@<TRIPOS>ATOM
       1    C1      18.080956   19.760961   20.936039 C.3        1 MOL1        -0.2426
       2    H1      17.507798   19.909326   20.011639 H          1 MOL1         0.0959
       3    H2      17.681176   18.866214   21.428625 H          1 MOL1         0.0959
       4    H3      17.896909   20.627262   21.584281 H          1 MOL1         0.0959
       5    C2      19.586148   19.612931   20.616717 C.3        1 MOL1        -0.1410
       6    H4      19.908105   20.480593   20.024006 H          1 MOL1         0.0948
       7    H5      19.745530   18.730677   19.981120 H          1 MOL1         0.0948
       8    C3      20.475120   19.517403   21.879233 C.3        1 MOL1        -0.1435
       9    H6      21.528554   19.555028   21.569344 H          1 MOL1         0.0948
      10    H7      20.309474   20.404988   22.501583 H          1 MOL1         0.0948
      11    C4      20.242067   18.220755   22.695382 C.3        1 MOL1        -0.1435
      12    H8      20.415284   17.358165   22.037247 H          1 MOL1         0.0948
      13    H9      19.197729   18.138992   23.014749 H          1 MOL1         0.0948
      14    C5      21.178004   18.087915   23.923474 C.3        1 MOL1        -0.1435
      15    H10     21.002951   17.113033   24.397835 H          1 MOL1         0.0948
      16    H11     22.216323   18.052296   23.566147 H          1 MOL1         0.0948
      17    C6      21.071018   19.209966   24.997943 C.3        1 MOL1        -0.1500
      18    H12     21.405871   20.164716   24.573535 H          1 MOL1         0.0948
      19    H13     21.797590   18.980018   25.788285 H          1 MOL1         0.0948
      20    C7      19.693169   19.412032   25.679570 C.3        1 MOL1         0.1162
      21    H14     19.857254   20.068430   26.539730 H          1 MOL1         0.0910
      22    C8      19.104570   18.095543   26.216018 C.3        1 MOL1        -0.2491
      23    H15     18.206672   18.292127   26.814526 H          1 MOL1         0.0959
      24    H16     18.823498   17.415409   25.403267 H          1 MOL1         0.0959
      25    H17     19.827984   17.581121   26.860670 H          1 MOL1         0.0959
      26    N1      18.704948   20.138493   24.809624 N.4        1 MOL1        -0.5987
      27    H18     19.041932   21.074255   24.565868 H          1 MOL1         0.3605
      28    H19     17.803204   20.250909   25.282157 H          1 MOL1         0.3605
      29    H20     18.543109   19.631206   23.935978 H          1 MOL1         0.3605
@<TRIPOS>BOND
    1     1     2    1
    2     1     3    1
    3     1     4    1
    4     1     5    1
    5     5     6    1
    6     5     7    1
    7     5     8    1
    8     8     9    1
    9     8    10    1
   10     8    11    1
   11    11    12    1
   12    11    13    1
   13    11    14    1
   14    14    15    1
   15    14    16    1
   16    14    17    1
   17    17    18    1
   18    17    19    1
   19    17    20    1
   20    20    21    1
   21    20    22    1
   22    22    23    1
   23    22    24    1
   24    22    25    1
   25    20    26    1
   26    26    27    1
   27    26    28    1
   28    26    29    1
@<TRIPOS>SUBSTRUCTURE
       1 MOL1            1 RESIDUE      1      MOL     
@<SCITEGIC>MOL_PROPERTY
VM2 Rank
SciTegic.value.IntegerValue
195

@<SCITEGIC>MOL_PROPERTY
Conf_Id
SciTegic.value.IntegerValue
1030

@<SCITEGIC>MOL_PROPERTY
Probability
SciTegic.value.DoubleValue
0.00

@<SCITEGIC>MOL_PROPERTY
Sum Probability
SciTegic.value.DoubleValue
100.00

@<SCITEGIC>MOL_PROPERTY
Delta G
SciTegic.value.DoubleValue
6.288

@<SCITEGIC>MOL_PROPERTY
G
SciTegic.value.DoubleValue
39.990

@<SCITEGIC>MOL_PROPERTY
E
SciTegic.value.DoubleValue
1.247

@<SCITEGIC>MOL_PROPERTY
-TS
SciTegic.value.DoubleValue
38.743

@<SCITEGIC>MOL_PROPERTY
U+W
SciTegic.value.DoubleValue
-22.898

@<SCITEGIC>MOL_PROPERTY
U
SciTegic.value.DoubleValue
28.640

@<SCITEGIC>MOL_PROPERTY
W
SciTegic.value.DoubleValue
-51.538

@<SCITEGIC>MOL_PROPERTY
W(PB)
SciTegic.value.DoubleValue
-53.873

@<SCITEGIC>MOL_PROPERTY
W(SA)
SciTegic.value.DoubleValue
2.335

@<SCITEGIC>MOL_PROPERTY
Valence
SciTegic.value.DoubleValue
6.059

@<SCITEGIC>MOL_PROPERTY
Coulomb
SciTegic.value.DoubleValue
21.999

@<SCITEGIC>MOL_PROPERTY
VdW
SciTegic.value.DoubleValue
0.582

@<SCITEGIC>MOL_PROPERTY
VdW6
SciTegic.value.DoubleValue
-12.549

@<SCITEGIC>MOL_PROPERTY
VdW12
SciTegic.value.DoubleValue
13.131

@<SCITEGIC>MOL_PROPERTY
Bond
SciTegic.value.DoubleValue
0.383

@<SCITEGIC>MOL_PROPERTY
Angle
SciTegic.value.DoubleValue
2.850

@<SCITEGIC>MOL_PROPERTY
Pdih
SciTegic.value.DoubleValue
2.826

@<SCITEGIC>MOL_PROPERTY
Idih
SciTegic.value.DoubleValue
0.000

@<SCITEGIC>MOL_PROPERTY
Tether
SciTegic.value.DoubleValue
0.000

@<TRIPOS>MOLECULE
guest-s15_vm2.mol2 : vm2 ligand conformer 196
          29          28           1
SMALL
USER_CHARGES
 
@<TRIPOS>ATOM
       1    C1      19.708878   18.225178   20.133717 C.3        1 MOL1        -0.2426
       2    H1      20.803795   18.202881   20.059876 H          1 MOL1         0.0959
       3    H2      19.403381   17.607816   20.987670 H          1 MOL1         0.0959
       4    H3      19.301805   17.757721   19.227838 H          1 MOL1         0.0959
       5    C2      19.190052   19.672956   20.273694 C.3        1 MOL1        -0.1410
       6    H4      18.096825   19.658586   20.384774 H          1 MOL1         0.0948
       7    H5      19.393664   20.212415   19.338159 H          1 MOL1         0.0948
       8    C3      19.819951   20.465996   21.447240 C.3        1 MOL1        -0.1435
       9    H6      20.903068   20.571002   21.295202 H          1 MOL1         0.0948
      10    H7      19.415482   21.487019   21.410452 H          1 MOL1         0.0948
      11    C4      19.527203   19.879143   22.852588 C.3        1 MOL1        -0.1435
      12    H8      18.572316   19.335905   22.838539 H          1 MOL1         0.0948
      13    H9      19.403423   20.720653   23.545355 H          1 MOL1         0.0948
      14    C5      20.664509   18.969353   23.382687 C.3        1 MOL1        -0.1435
      15    H10     20.969169   18.267433   22.597277 H          1 MOL1         0.0948
      16    H11     21.551465   19.582910   23.592790 H          1 MOL1         0.0948
      17    C6      20.300914   18.141785   24.643516 C.3        1 MOL1        -0.1500
      18    H12     21.143810   17.465429   24.838833 H          1 MOL1         0.0948
      19    H13     19.439390   17.493721   24.435180 H          1 MOL1         0.0948
      20    C7      20.036550   18.979220   25.917186 C.3        1 MOL1         0.1162
      21    H14     20.768157   19.792190   25.953878 H          1 MOL1         0.0910
      22    C8      20.216817   18.112261   27.174219 C.3        1 MOL1        -0.2491
      23    H15     20.047609   18.704207   28.082212 H          1 MOL1         0.0959
      24    H16     19.513980   17.269632   27.179069 H          1 MOL1         0.0959
      25    H17     21.235525   17.708357   27.227855 H          1 MOL1         0.0959
      26    N1      18.671126   19.610108   25.929153 N.4        1 MOL1        -0.5987
      27    H18     18.536334   20.193679   26.759832 H          1 MOL1         0.3605
      28    H19     17.934252   18.899820   25.931089 H          1 MOL1         0.3605
      29    H20     18.526321   20.202274   25.108218 H          1 MOL1         0.3605
@<TRIPOS>BOND
    1     1     2    1
    2     1     3    1
    3     1     4    1
    4     1     5    1
    5     5     6    1
    6     5     7    1
    7     5     8    1
    8     8     9    1
    9     8    10    1
   10     8    11    1
   11    11    12    1
   12    11    13    1
   13    11    14    1
   14    14    15    1
   15    14    16    1
   16    14    17    1
   17    17    18    1
   18    17    19    1
   19    17    20    1
   20    20    21    1
   21    20    22    1
   22    22    23    1
   23    22    24    1
   24    22    25    1
   25    20    26    1
   26    26    27    1
   27    26    28    1
   28    26    29    1
@<TRIPOS>SUBSTRUCTURE
       1 MOL1            1 RESIDUE      1      MOL     
@<SCITEGIC>MOL_PROPERTY
VM2 Rank
SciTegic.value.IntegerValue
196

@<SCITEGIC>MOL_PROPERTY
Conf_Id
SciTegic.value.IntegerValue
1305

@<SCITEGIC>MOL_PROPERTY
Probability
SciTegic.value.DoubleValue
0.00

@<SCITEGIC>MOL_PROPERTY
Sum Probability
SciTegic.value.DoubleValue
100.00

@<SCITEGIC>MOL_PROPERTY
Delta G
SciTegic.value.DoubleValue
6.429

@<SCITEGIC>MOL_PROPERTY
G
SciTegic.value.DoubleValue
40.131

@<SCITEGIC>MOL_PROPERTY
E
SciTegic.value.DoubleValue
2.284

@<SCITEGIC>MOL_PROPERTY
-TS
SciTegic.value.DoubleValue
37.847

@<SCITEGIC>MOL_PROPERTY
U+W
SciTegic.value.DoubleValue
-21.860

@<SCITEGIC>MOL_PROPERTY
U
SciTegic.value.DoubleValue
30.313

@<SCITEGIC>MOL_PROPERTY
W
SciTegic.value.DoubleValue
-52.173

@<SCITEGIC>MOL_PROPERTY
W(PB)
SciTegic.value.DoubleValue
-54.606

@<SCITEGIC>MOL_PROPERTY
W(SA)
SciTegic.value.DoubleValue
2.433

@<SCITEGIC>MOL_PROPERTY
Valence
SciTegic.value.DoubleValue
7.949

@<SCITEGIC>MOL_PROPERTY
Coulomb
SciTegic.value.DoubleValue
21.217

@<SCITEGIC>MOL_PROPERTY
VdW
SciTegic.value.DoubleValue
1.147

@<SCITEGIC>MOL_PROPERTY
VdW6
SciTegic.value.DoubleValue
-10.650

@<SCITEGIC>MOL_PROPERTY
VdW12
SciTegic.value.DoubleValue
11.797

@<SCITEGIC>MOL_PROPERTY
Bond
SciTegic.value.DoubleValue
0.329

@<SCITEGIC>MOL_PROPERTY
Angle
SciTegic.value.DoubleValue
2.264

@<SCITEGIC>MOL_PROPERTY
Pdih
SciTegic.value.DoubleValue
5.357

@<SCITEGIC>MOL_PROPERTY
Idih
SciTegic.value.DoubleValue
0.000

@<SCITEGIC>MOL_PROPERTY
Tether
SciTegic.value.DoubleValue
0.000

@<TRIPOS>MOLECULE
guest-s15_vm2.mol2 : vm2 ligand conformer 197
          29          28           1
SMALL
USER_CHARGES
 
@<TRIPOS>ATOM
       1    C1      20.661403   19.054564   19.807647 C.3        1 MOL1        -0.2426
       2    H1      21.348263   18.716916   20.591934 H          1 MOL1         0.0959
       3    H2      20.702109   18.323455   18.989896 H          1 MOL1         0.0959
       4    H3      21.037706   20.009919   19.419318 H          1 MOL1         0.0959
       5    C2      19.213189   19.204552   20.328901 C.3        1 MOL1        -0.1410
       6    H4      18.811801   18.226687   20.629305 H          1 MOL1         0.0948
       7    H5      18.585021   19.544516   19.493611 H          1 MOL1         0.0948
       8    C3      19.086157   20.221808   21.492107 C.3        1 MOL1        -0.1435
       9    H6      19.898518   20.959991   21.442708 H          1 MOL1         0.0948
      10    H7      18.159248   20.793604   21.346095 H          1 MOL1         0.0948
      11    C4      19.027451   19.590707   22.907366 C.3        1 MOL1        -0.1435
      12    H8      18.149558   18.933633   22.976770 H          1 MOL1         0.0948
      13    H9      18.869431   20.409410   23.618464 H          1 MOL1         0.0948
      14    C5      20.299618   18.802057   23.304011 C.3        1 MOL1        -0.1435
      15    H10     20.475410   18.013607   22.561989 H          1 MOL1         0.0948
      16    H11     21.172429   19.468128   23.263301 H          1 MOL1         0.0948
      17    C6      20.236453   18.115122   24.693888 C.3        1 MOL1        -0.1500
      18    H12     21.148212   17.511035   24.793462 H          1 MOL1         0.0948
      19    H13     19.401982   17.402248   24.726724 H          1 MOL1         0.0948
      20    C7      20.151156   19.084007   25.897267 C.3        1 MOL1         0.1162
      21    H14     20.761886   19.964756   25.676285 H          1 MOL1         0.0910
      22    C8      20.710300   18.416389   27.164656 C.3        1 MOL1        -0.2491
      23    H15     20.141696   17.513680   27.421292 H          1 MOL1         0.0959
      24    H16     21.760621   18.131309   27.025470 H          1 MOL1         0.0959
      25    H17     20.664853   19.103740   28.018459 H          1 MOL1         0.0959
      26    N1      18.750272   19.566793   26.158156 N.4        1 MOL1        -0.5987
      27    H18     18.351057   20.023188   25.334932 H          1 MOL1         0.3605
      28    H19     18.724822   20.241036   26.928549 H          1 MOL1         0.3605
      29    H20     18.131657   18.791314   26.410158 H          1 MOL1         0.3605
@<TRIPOS>BOND
    1     1     2    1
    2     1     3    1
    3     1     4    1
    4     1     5    1
    5     5     6    1
    6     5     7    1
    7     5     8    1
    8     8     9    1
    9     8    10    1
   10     8    11    1
   11    11    12    1
   12    11    13    1
   13    11    14    1
   14    14    15    1
   15    14    16    1
   16    14    17    1
   17    17    18    1
   18    17    19    1
   19    17    20    1
   20    20    21    1
   21    20    22    1
   22    22    23    1
   23    22    24    1
   24    22    25    1
   25    20    26    1
   26    26    27    1
   27    26    28    1
   28    26    29    1
@<TRIPOS>SUBSTRUCTURE
       1 MOL1            1 RESIDUE      1      MOL     
@<SCITEGIC>MOL_PROPERTY
VM2 Rank
SciTegic.value.IntegerValue
197

@<SCITEGIC>MOL_PROPERTY
Conf_Id
SciTegic.value.IntegerValue
849

@<SCITEGIC>MOL_PROPERTY
Probability
SciTegic.value.DoubleValue
0.00

@<SCITEGIC>MOL_PROPERTY
Sum Probability
SciTegic.value.DoubleValue
100.00

@<SCITEGIC>MOL_PROPERTY
Delta G
SciTegic.value.DoubleValue
6.439

@<SCITEGIC>MOL_PROPERTY
G
SciTegic.value.DoubleValue
40.141

@<SCITEGIC>MOL_PROPERTY
E
SciTegic.value.DoubleValue
2.582

@<SCITEGIC>MOL_PROPERTY
-TS
SciTegic.value.DoubleValue
37.559

@<SCITEGIC>MOL_PROPERTY
U+W
SciTegic.value.DoubleValue
-21.563

@<SCITEGIC>MOL_PROPERTY
U
SciTegic.value.DoubleValue
30.679

@<SCITEGIC>MOL_PROPERTY
W
SciTegic.value.DoubleValue
-52.243

@<SCITEGIC>MOL_PROPERTY
W(PB)
SciTegic.value.DoubleValue
-54.668

@<SCITEGIC>MOL_PROPERTY
W(SA)
SciTegic.value.DoubleValue
2.425

@<SCITEGIC>MOL_PROPERTY
Valence
SciTegic.value.DoubleValue
8.266

@<SCITEGIC>MOL_PROPERTY
Coulomb
SciTegic.value.DoubleValue
21.123

@<SCITEGIC>MOL_PROPERTY
VdW
SciTegic.value.DoubleValue
1.291

@<SCITEGIC>MOL_PROPERTY
VdW6
SciTegic.value.DoubleValue
-10.405

@<SCITEGIC>MOL_PROPERTY
VdW12
SciTegic.value.DoubleValue
11.696

@<SCITEGIC>MOL_PROPERTY
Bond
SciTegic.value.DoubleValue
0.334

@<SCITEGIC>MOL_PROPERTY
Angle
SciTegic.value.DoubleValue
2.444

@<SCITEGIC>MOL_PROPERTY
Pdih
SciTegic.value.DoubleValue
5.487

@<SCITEGIC>MOL_PROPERTY
Idih
SciTegic.value.DoubleValue
0.000

@<SCITEGIC>MOL_PROPERTY
Tether
SciTegic.value.DoubleValue
0.000

@<TRIPOS>MOLECULE
guest-s15_vm2.mol2 : vm2 ligand conformer 198
          29          28           1
SMALL
USER_CHARGES
 
@<TRIPOS>ATOM
       1    C1      19.699222   17.801924   20.800133 C.3        1 MOL1        -0.2426
       2    H1      20.782677   17.850299   20.630825 H          1 MOL1         0.0959
       3    H2      19.518266   17.403770   21.805438 H          1 MOL1         0.0959
       4    H3      19.278736   17.083664   20.084487 H          1 MOL1         0.0959
       5    C2      19.043737   19.188180   20.619987 C.3        1 MOL1        -0.1410
       6    H4      17.978904   19.125427   20.884192 H          1 MOL1         0.0948
       7    H5      19.076854   19.455770   19.554610 H          1 MOL1         0.0948
       8    C3      19.716085   20.325863   21.430276 C.3        1 MOL1        -0.1435
       9    H6      20.753745   20.463459   21.096937 H          1 MOL1         0.0948
      10    H7      19.198681   21.260826   21.174341 H          1 MOL1         0.0948
      11    C4      19.660253   20.152935   22.970870 C.3        1 MOL1        -0.1435
      12    H8      18.749721   19.603944   23.237979 H          1 MOL1         0.0948
      13    H9      19.572994   21.149406   23.425451 H          1 MOL1         0.0948
      14    C5      20.915297   19.459643   23.560947 C.3        1 MOL1        -0.1435
      15    H10     20.989161   18.426286   23.204566 H          1 MOL1         0.0948
      16    H11     21.808928   19.967530   23.173316 H          1 MOL1         0.0948
      17    C6      20.999028   19.484762   25.113269 C.3        1 MOL1        -0.1500
      18    H12     21.061835   20.525581   25.456804 H          1 MOL1         0.0948
      19    H13     21.953528   19.025598   25.402427 H          1 MOL1         0.0948
      20    C7      19.876783   18.761710   25.900939 C.3        1 MOL1         0.1162
      21    H14     20.218870   18.684637   26.937627 H          1 MOL1         0.0910
      22    C8      19.627928   17.331051   25.392775 C.3        1 MOL1        -0.2491
      23    H15     18.939237   16.800396   26.061501 H          1 MOL1         0.0959
      24    H16     19.187951   17.329403   24.388583 H          1 MOL1         0.0959
      25    H17     20.565137   16.761767   25.359693 H          1 MOL1         0.0959
      26    N1      18.597667   19.549932   25.964804 N.4        1 MOL1        -0.5987
      27    H18     18.197084   19.683401   25.034122 H          1 MOL1         0.3605
      28    H19     18.749774   20.477252   26.371802 H          1 MOL1         0.3605
      29    H20     17.895241   19.075475   26.539458 H          1 MOL1         0.3605
@<TRIPOS>BOND
    1     1     2    1
    2     1     3    1
    3     1     4    1
    4     1     5    1
    5     5     6    1
    6     5     7    1
    7     5     8    1
    8     8     9    1
    9     8    10    1
   10     8    11    1
   11    11    12    1
   12    11    13    1
   13    11    14    1
   14    14    15    1
   15    14    16    1
   16    14    17    1
   17    17    18    1
   18    17    19    1
   19    17    20    1
   20    20    21    1
   21    20    22    1
   22    22    23    1
   23    22    24    1
   24    22    25    1
   25    20    26    1
   26    26    27    1
   27    26    28    1
   28    26    29    1
@<TRIPOS>SUBSTRUCTURE
       1 MOL1            1 RESIDUE      1      MOL     
@<SCITEGIC>MOL_PROPERTY
VM2 Rank
SciTegic.value.IntegerValue
198

@<SCITEGIC>MOL_PROPERTY
Conf_Id
SciTegic.value.IntegerValue
1002

@<SCITEGIC>MOL_PROPERTY
Probability
SciTegic.value.DoubleValue
0.00

@<SCITEGIC>MOL_PROPERTY
Sum Probability
SciTegic.value.DoubleValue
100.00

@<SCITEGIC>MOL_PROPERTY
Delta G
SciTegic.value.DoubleValue
6.517

@<SCITEGIC>MOL_PROPERTY
G
SciTegic.value.DoubleValue
40.219

@<SCITEGIC>MOL_PROPERTY
E
SciTegic.value.DoubleValue
1.807

@<SCITEGIC>MOL_PROPERTY
-TS
SciTegic.value.DoubleValue
38.413

@<SCITEGIC>MOL_PROPERTY
U+W
SciTegic.value.DoubleValue
-22.338

@<SCITEGIC>MOL_PROPERTY
U
SciTegic.value.DoubleValue
30.418

@<SCITEGIC>MOL_PROPERTY
W
SciTegic.value.DoubleValue
-52.756

@<SCITEGIC>MOL_PROPERTY
W(PB)
SciTegic.value.DoubleValue
-55.133

@<SCITEGIC>MOL_PROPERTY
W(SA)
SciTegic.value.DoubleValue
2.377

@<SCITEGIC>MOL_PROPERTY
Valence
SciTegic.value.DoubleValue
8.027

@<SCITEGIC>MOL_PROPERTY
Coulomb
SciTegic.value.DoubleValue
21.569

@<SCITEGIC>MOL_PROPERTY
VdW
SciTegic.value.DoubleValue
0.823

@<SCITEGIC>MOL_PROPERTY
VdW6
SciTegic.value.DoubleValue
-11.950

@<SCITEGIC>MOL_PROPERTY
VdW12
SciTegic.value.DoubleValue
12.774

@<SCITEGIC>MOL_PROPERTY
Bond
SciTegic.value.DoubleValue
0.390

@<SCITEGIC>MOL_PROPERTY
Angle
SciTegic.value.DoubleValue
2.986

@<SCITEGIC>MOL_PROPERTY
Pdih
SciTegic.value.DoubleValue
4.651

@<SCITEGIC>MOL_PROPERTY
Idih
SciTegic.value.DoubleValue
0.000

@<SCITEGIC>MOL_PROPERTY
Tether
SciTegic.value.DoubleValue
0.000

@<TRIPOS>MOLECULE
guest-s15_vm2.mol2 : vm2 ligand conformer 199
          29          28           1
SMALL
USER_CHARGES
 
@<TRIPOS>ATOM
       1    C1      20.743900   20.003866   20.087648 C.3        1 MOL1        -0.2426
       2    H1      21.408844   19.946422   20.956256 H          1 MOL1         0.0959
       3    H2      21.321310   19.694722   19.206788 H          1 MOL1         0.0959
       4    H3      20.460727   21.055165   19.947633 H          1 MOL1         0.0959
       5    C2      19.491031   19.112285   20.252339 C.3        1 MOL1        -0.1410
       6    H4      19.781442   18.055206   20.328337 H          1 MOL1         0.0948
       7    H5      18.894054   19.196106   19.333395 H          1 MOL1         0.0948
       8    C3      18.600773   19.514767   21.456293 C.3        1 MOL1        -0.1435
       9    H6      18.679569   20.594622   21.642762 H          1 MOL1         0.0948
      10    H7      17.552445   19.338875   21.177918 H          1 MOL1         0.0948
      11    C4      18.873262   18.725730   22.762947 C.3        1 MOL1        -0.1435
      12    H8      18.697833   17.656149   22.582633 H          1 MOL1         0.0948
      13    H9      18.124192   19.029772   23.502351 H          1 MOL1         0.0948
      14    C5      20.299693   18.917469   23.336230 C.3        1 MOL1        -0.1435
      15    H10     21.011339   18.447867   22.644734 H          1 MOL1         0.0948
      16    H11     20.560472   19.984163   23.373031 H          1 MOL1         0.0948
      17    C6      20.501432   18.273790   24.733219 C.3        1 MOL1        -0.1500
      18    H12     21.547754   17.947916   24.804786 H          1 MOL1         0.0948
      19    H13     19.895179   17.362785   24.825045 H          1 MOL1         0.0948
      20    C7      20.225165   19.228964   25.917840 C.3        1 MOL1         0.1162
      21    H14     20.863573   20.109761   25.798677 H          1 MOL1         0.0910
      22    C8      20.591056   18.548122   27.246467 C.3        1 MOL1        -0.2491
      23    H15     19.976280   17.655491   27.417321 H          1 MOL1         0.0959
      24    H16     21.644972   18.243214   27.251647 H          1 MOL1         0.0959
      25    H17     20.439518   19.233966   28.089126 H          1 MOL1         0.0959
      26    N1      18.809688   19.731008   25.961016 N.4        1 MOL1        -0.5987
      27    H18     18.568073   20.224083   25.097007 H          1 MOL1         0.3605
      28    H19     18.666973   20.381920   26.738613 H          1 MOL1         0.3605
      29    H20     18.145532   18.961159   26.077489 H          1 MOL1         0.3605
@<TRIPOS>BOND
    1     1     2    1
    2     1     3    1
    3     1     4    1
    4     1     5    1
    5     5     6    1
    6     5     7    1
    7     5     8    1
    8     8     9    1
    9     8    10    1
   10     8    11    1
   11    11    12    1
   12    11    13    1
   13    11    14    1
   14    14    15    1
   15    14    16    1
   16    14    17    1
   17    17    18    1
   18    17    19    1
   19    17    20    1
   20    20    21    1
   21    20    22    1
   22    22    23    1
   23    22    24    1
   24    22    25    1
   25    20    26    1
   26    26    27    1
   27    26    28    1
   28    26    29    1
@<TRIPOS>SUBSTRUCTURE
       1 MOL1            1 RESIDUE      1      MOL     
@<SCITEGIC>MOL_PROPERTY
VM2 Rank
SciTegic.value.IntegerValue
199

@<SCITEGIC>MOL_PROPERTY
Conf_Id
SciTegic.value.IntegerValue
1074

@<SCITEGIC>MOL_PROPERTY
Probability
SciTegic.value.DoubleValue
0.00

@<SCITEGIC>MOL_PROPERTY
Sum Probability
SciTegic.value.DoubleValue
100.00

@<SCITEGIC>MOL_PROPERTY
Delta G
SciTegic.value.DoubleValue
6.518

@<SCITEGIC>MOL_PROPERTY
G
SciTegic.value.DoubleValue
40.220

@<SCITEGIC>MOL_PROPERTY
E
SciTegic.value.DoubleValue
2.432

@<SCITEGIC>MOL_PROPERTY
-TS
SciTegic.value.DoubleValue
37.789

@<SCITEGIC>MOL_PROPERTY
U+W
SciTegic.value.DoubleValue
-21.713

@<SCITEGIC>MOL_PROPERTY
U
SciTegic.value.DoubleValue
30.319

@<SCITEGIC>MOL_PROPERTY
W
SciTegic.value.DoubleValue
-52.032

@<SCITEGIC>MOL_PROPERTY
W(PB)
SciTegic.value.DoubleValue
-54.489

@<SCITEGIC>MOL_PROPERTY
W(SA)
SciTegic.value.DoubleValue
2.457

@<SCITEGIC>MOL_PROPERTY
Valence
SciTegic.value.DoubleValue
8.319

@<SCITEGIC>MOL_PROPERTY
Coulomb
SciTegic.value.DoubleValue
20.774

@<SCITEGIC>MOL_PROPERTY
VdW
SciTegic.value.DoubleValue
1.226

@<SCITEGIC>MOL_PROPERTY
VdW6
SciTegic.value.DoubleValue
-10.363

@<SCITEGIC>MOL_PROPERTY
VdW12
SciTegic.value.DoubleValue
11.589

@<SCITEGIC>MOL_PROPERTY
Bond
SciTegic.value.DoubleValue
0.335

@<SCITEGIC>MOL_PROPERTY
Angle
SciTegic.value.DoubleValue
2.135

@<SCITEGIC>MOL_PROPERTY
Pdih
SciTegic.value.DoubleValue
5.849

@<SCITEGIC>MOL_PROPERTY
Idih
SciTegic.value.DoubleValue
0.000

@<SCITEGIC>MOL_PROPERTY
Tether
SciTegic.value.DoubleValue
0.000

@<TRIPOS>MOLECULE
guest-s15_vm2.mol2 : vm2 ligand conformer 200
          29          28           1
SMALL
USER_CHARGES
 
@<TRIPOS>ATOM
       1    C1      19.520616   21.121304   21.104710 C.3        1 MOL1        -0.2426
       2    H1      20.128250   21.137049   20.190516 H          1 MOL1         0.0959
       3    H2      18.603480   21.692164   20.909847 H          1 MOL1         0.0959
       4    H3      20.078725   21.639757   21.895187 H          1 MOL1         0.0959
       5    C2      19.183608   19.674356   21.521036 C.3        1 MOL1        -0.1410
       6    H4      18.593278   19.195887   20.727068 H          1 MOL1         0.0948
       7    H5      18.542273   19.692275   22.410204 H          1 MOL1         0.0948
       8    C3      20.462082   18.842270   21.782398 C.3        1 MOL1        -0.1435
       9    H6      20.999001   18.738063   20.829358 H          1 MOL1         0.0948
      10    H7      21.149218   19.375151   22.452914 H          1 MOL1         0.0948
      11    C4      20.161419   17.427437   22.338080 C.3        1 MOL1        -0.1435
      12    H8      20.862075   16.724045   21.867141 H          1 MOL1         0.0948
      13    H9      19.161940   17.098781   22.021363 H          1 MOL1         0.0948
      14    C5      20.310662   17.268125   23.875354 C.3        1 MOL1        -0.1435
      15    H10     20.150416   16.206081   24.106954 H          1 MOL1         0.0948
      16    H11     21.346873   17.471326   24.171568 H          1 MOL1         0.0948
      17    C6      19.314392   18.089735   24.738884 C.3        1 MOL1        -0.1500
      18    H12     19.218902   17.604211   25.719189 H          1 MOL1         0.0948
      19    H13     18.319277   18.028288   24.279593 H          1 MOL1         0.0948
      20    C7      19.688995   19.574374   24.969581 C.3        1 MOL1         0.1162
      21    H14     19.879343   20.045583   24.002929 H          1 MOL1         0.0910
      22    C8      20.950220   19.728701   25.838392 C.3        1 MOL1        -0.2491
      23    H15     20.830459   19.224643   26.805467 H          1 MOL1         0.0959
      24    H16     21.833770   19.312887   25.341590 H          1 MOL1         0.0959
      25    H17     21.157764   20.788359   26.031740 H          1 MOL1         0.0959
      26    N1      18.544007   20.329699   25.585565 N.4        1 MOL1        -0.5987
      27    H18     18.304879   19.956556   26.508300 H          1 MOL1         0.3605
      28    H19     17.701695   20.279222   25.005551 H          1 MOL1         0.3605
      29    H20     18.772214   21.320547   25.707344 H          1 MOL1         0.3605
@<TRIPOS>BOND
    1     1     2    1
    2     1     3    1
    3     1     4    1
    4     1     5    1
    5     5     6    1
    6     5     7    1
    7     5     8    1
    8     8     9    1
    9     8    10    1
   10     8    11    1
   11    11    12    1
   12    11    13    1
   13    11    14    1
   14    14    15    1
   15    14    16    1
   16    14    17    1
   17    17    18    1
   18    17    19    1
   19    17    20    1
   20    20    21    1
   21    20    22    1
   22    22    23    1
   23    22    24    1
   24    22    25    1
   25    20    26    1
   26    26    27    1
   27    26    28    1
   28    26    29    1
@<TRIPOS>SUBSTRUCTURE
       1 MOL1            1 RESIDUE      1      MOL     
@<SCITEGIC>MOL_PROPERTY
VM2 Rank
SciTegic.value.IntegerValue
200

@<SCITEGIC>MOL_PROPERTY
Conf_Id
SciTegic.value.IntegerValue
1028

@<SCITEGIC>MOL_PROPERTY
Probability
SciTegic.value.DoubleValue
0.00

@<SCITEGIC>MOL_PROPERTY
Sum Probability
SciTegic.value.DoubleValue
100.00

@<SCITEGIC>MOL_PROPERTY
Delta G
SciTegic.value.DoubleValue
6.526

@<SCITEGIC>MOL_PROPERTY
G
SciTegic.value.DoubleValue
40.228

@<SCITEGIC>MOL_PROPERTY
E
SciTegic.value.DoubleValue
1.928

@<SCITEGIC>MOL_PROPERTY
-TS
SciTegic.value.DoubleValue
38.299

@<SCITEGIC>MOL_PROPERTY
U+W
SciTegic.value.DoubleValue
-22.216

@<SCITEGIC>MOL_PROPERTY
U
SciTegic.value.DoubleValue
30.676

@<SCITEGIC>MOL_PROPERTY
W
SciTegic.value.DoubleValue
-52.893

@<SCITEGIC>MOL_PROPERTY
W(PB)
SciTegic.value.DoubleValue
-55.271

@<SCITEGIC>MOL_PROPERTY
W(SA)
SciTegic.value.DoubleValue
2.378

@<SCITEGIC>MOL_PROPERTY
Valence
SciTegic.value.DoubleValue
8.877

@<SCITEGIC>MOL_PROPERTY
Coulomb
SciTegic.value.DoubleValue
21.328

@<SCITEGIC>MOL_PROPERTY
VdW
SciTegic.value.DoubleValue
0.472

@<SCITEGIC>MOL_PROPERTY
VdW6
SciTegic.value.DoubleValue
-11.982

@<SCITEGIC>MOL_PROPERTY
VdW12
SciTegic.value.DoubleValue
12.454

@<SCITEGIC>MOL_PROPERTY
Bond
SciTegic.value.DoubleValue
0.338

@<SCITEGIC>MOL_PROPERTY
Angle
SciTegic.value.DoubleValue
2.800

@<SCITEGIC>MOL_PROPERTY
Pdih
SciTegic.value.DoubleValue
5.738

@<SCITEGIC>MOL_PROPERTY
Idih
SciTegic.value.DoubleValue
0.000

@<SCITEGIC>MOL_PROPERTY
Tether
SciTegic.value.DoubleValue
0.000

@<TRIPOS>MOLECULE
guest-s15_vm2.mol2 : vm2 ligand conformer 201
          29          28           1
SMALL
USER_CHARGES
 
@<TRIPOS>ATOM
       1    C1      18.472856   18.096228   21.433086 C.3        1 MOL1        -0.2426
       2    H1      18.784578   17.294872   20.750720 H          1 MOL1         0.0959
       3    H2      18.784418   17.814496   22.444122 H          1 MOL1         0.0959
       4    H3      17.376092   18.137291   21.419849 H          1 MOL1         0.0959
       5    C2      19.071552   19.453481   20.996412 C.3        1 MOL1        -0.1410
       6    H4      18.677179   20.270511   21.615277 H          1 MOL1         0.0948
       7    H5      18.724435   19.659774   19.974265 H          1 MOL1         0.0948
       8    C3      20.620848   19.470553   21.002156 C.3        1 MOL1        -0.1435
       9    H6      21.011638   18.466110   20.788931 H          1 MOL1         0.0948
      10    H7      20.952062   20.096786   20.162217 H          1 MOL1         0.0948
      11    C4      21.283443   20.038047   22.286732 C.3        1 MOL1        -0.1435
      12    H8      20.968457   21.078720   22.443883 H          1 MOL1         0.0948
      13    H9      22.364993   20.086520   22.098847 H          1 MOL1         0.0948
      14    C5      21.065378   19.207757   23.577746 C.3        1 MOL1        -0.1435
      15    H10     20.959060   18.147007   23.319361 H          1 MOL1         0.0948
      16    H11     21.974736   19.278554   24.190513 H          1 MOL1         0.0948
      17    C6      19.873127   19.707002   24.436171 C.3        1 MOL1        -0.1500
      18    H12     18.935942   19.648204   23.872076 H          1 MOL1         0.0948
      19    H13     20.030250   20.770885   24.657205 H          1 MOL1         0.0948
      20    C7      19.715874   18.950990   25.774928 C.3        1 MOL1         0.1162
      21    H14     20.679731   18.966091   26.292948 H          1 MOL1         0.0910
      22    C8      19.295399   17.484974   25.566921 C.3        1 MOL1        -0.2491
      23    H15     18.352547   17.417687   25.010136 H          1 MOL1         0.0959
      24    H16     20.059827   16.923062   25.018375 H          1 MOL1         0.0959
      25    H17     19.155396   16.983538   26.532470 H          1 MOL1         0.0959
      26    N1      18.737523   19.646968   26.679847 N.4        1 MOL1        -0.5987
      27    H18     18.659439   19.170158   27.582760 H          1 MOL1         0.3605
      28    H19     17.801220   19.675491   26.267345 H          1 MOL1         0.3605
      29    H20     19.020509   20.612836   26.869250 H          1 MOL1         0.3605
@<TRIPOS>BOND
    1     1     2    1
    2     1     3    1
    3     1     4    1
    4     1     5    1
    5     5     6    1
    6     5     7    1
    7     5     8    1
    8     8     9    1
    9     8    10    1
   10     8    11    1
   11    11    12    1
   12    11    13    1
   13    11    14    1
   14    14    15    1
   15    14    16    1
   16    14    17    1
   17    17    18    1
   18    17    19    1
   19    17    20    1
   20    20    21    1
   21    20    22    1
   22    22    23    1
   23    22    24    1
   24    22    25    1
   25    20    26    1
   26    26    27    1
   27    26    28    1
   28    26    29    1
@<TRIPOS>SUBSTRUCTURE
       1 MOL1            1 RESIDUE      1      MOL     
@<SCITEGIC>MOL_PROPERTY
VM2 Rank
SciTegic.value.IntegerValue
201

@<SCITEGIC>MOL_PROPERTY
Conf_Id
SciTegic.value.IntegerValue
259

@<SCITEGIC>MOL_PROPERTY
Probability
SciTegic.value.DoubleValue
0.00

@<SCITEGIC>MOL_PROPERTY
Sum Probability
SciTegic.value.DoubleValue
100.00

@<SCITEGIC>MOL_PROPERTY
Delta G
SciTegic.value.DoubleValue
6.624

@<SCITEGIC>MOL_PROPERTY
G
SciTegic.value.DoubleValue
40.326

@<SCITEGIC>MOL_PROPERTY
E
SciTegic.value.DoubleValue
1.884

@<SCITEGIC>MOL_PROPERTY
-TS
SciTegic.value.DoubleValue
38.442

@<SCITEGIC>MOL_PROPERTY
U+W
SciTegic.value.DoubleValue
-22.261

@<SCITEGIC>MOL_PROPERTY
U
SciTegic.value.DoubleValue
30.536

@<SCITEGIC>MOL_PROPERTY
W
SciTegic.value.DoubleValue
-52.796

@<SCITEGIC>MOL_PROPERTY
W(PB)
SciTegic.value.DoubleValue
-55.157

@<SCITEGIC>MOL_PROPERTY
W(SA)
SciTegic.value.DoubleValue
2.360

@<SCITEGIC>MOL_PROPERTY
Valence
SciTegic.value.DoubleValue
9.320

@<SCITEGIC>MOL_PROPERTY
Coulomb
SciTegic.value.DoubleValue
20.399

@<SCITEGIC>MOL_PROPERTY
VdW
SciTegic.value.DoubleValue
0.817

@<SCITEGIC>MOL_PROPERTY
VdW6
SciTegic.value.DoubleValue
-11.400

@<SCITEGIC>MOL_PROPERTY
VdW12
SciTegic.value.DoubleValue
12.217

@<SCITEGIC>MOL_PROPERTY
Bond
SciTegic.value.DoubleValue
0.345

@<SCITEGIC>MOL_PROPERTY
Angle
SciTegic.value.DoubleValue
2.705

@<SCITEGIC>MOL_PROPERTY
Pdih
SciTegic.value.DoubleValue
6.270

@<SCITEGIC>MOL_PROPERTY
Idih
SciTegic.value.DoubleValue
0.000

@<SCITEGIC>MOL_PROPERTY
Tether
SciTegic.value.DoubleValue
0.000

@<TRIPOS>MOLECULE
guest-s15_vm2.mol2 : vm2 ligand conformer 202
          29          28           1
SMALL
USER_CHARGES
 
@<TRIPOS>ATOM
       1    C1      21.117744   19.225117   20.628484 C.3        1 MOL1        -0.2426
       2    H1      21.810843   19.548050   21.415844 H          1 MOL1         0.0959
       3    H2      20.950761   18.145687   20.730733 H          1 MOL1         0.0959
       4    H3      21.608250   19.391485   19.660718 H          1 MOL1         0.0959
       5    C2      19.788602   20.007955   20.701193 C.3        1 MOL1        -0.1410
       6    H4      19.103247   19.636349   19.926676 H          1 MOL1         0.0948
       7    H5      19.985835   21.060223   20.453135 H          1 MOL1         0.0948
       8    C3      19.091383   19.949946   22.084154 C.3        1 MOL1        -0.1435
       9    H6      19.738855   20.405321   22.841304 H          1 MOL1         0.0948
      10    H7      18.200885   20.591401   22.032011 H          1 MOL1         0.0948
      11    C4      18.635973   18.529371   22.515819 C.3        1 MOL1        -0.1435
      12    H8      18.394000   17.947780   21.615632 H          1 MOL1         0.0948
      13    H9      17.690819   18.606437   23.070570 H          1 MOL1         0.0948
      14    C5      19.659031   17.736461   23.374824 C.3        1 MOL1        -0.1435
      15    H10     19.511255   16.667092   23.170728 H          1 MOL1         0.0948
      16    H11     20.687570   17.952018   23.064176 H          1 MOL1         0.0948
      17    C6      19.498462   17.940918   24.905602 C.3        1 MOL1        -0.1500
      18    H12     20.163192   17.242227   25.430732 H          1 MOL1         0.0948
      19    H13     18.477343   17.650954   25.186269 H          1 MOL1         0.0948
      20    C7      19.769137   19.373499   25.417543 C.3        1 MOL1         0.1162
      21    H14     19.166808   20.070668   24.828497 H          1 MOL1         0.0910
      22    C8      21.253874   19.758094   25.282608 C.3        1 MOL1        -0.2491
      23    H15     21.424033   20.776366   25.653286 H          1 MOL1         0.0959
      24    H16     21.892568   19.076255   25.857758 H          1 MOL1         0.0959
      25    H17     21.583701   19.731199   24.238016 H          1 MOL1         0.0959
      26    N1      19.321795   19.534640   26.843774 N.4        1 MOL1        -0.5987
      27    H18     19.468802   20.492047   27.176053 H          1 MOL1         0.3605
      28    H19     19.838436   18.911371   27.470140 H          1 MOL1         0.3605
      29    H20     18.325548   19.323764   26.952640 H          1 MOL1         0.3605
@<TRIPOS>BOND
    1     1     2    1
    2     1     3    1
    3     1     4    1
    4     1     5    1
    5     5     6    1
    6     5     7    1
    7     5     8    1
    8     8     9    1
    9     8    10    1
   10     8    11    1
   11    11    12    1
   12    11    13    1
   13    11    14    1
   14    14    15    1
   15    14    16    1
   16    14    17    1
   17    17    18    1
   18    17    19    1
   19    17    20    1
   20    20    21    1
   21    20    22    1
   22    22    23    1
   23    22    24    1
   24    22    25    1
   25    20    26    1
   26    26    27    1
   27    26    28    1
   28    26    29    1
@<TRIPOS>SUBSTRUCTURE
       1 MOL1            1 RESIDUE      1      MOL     
@<SCITEGIC>MOL_PROPERTY
VM2 Rank
SciTegic.value.IntegerValue
202

@<SCITEGIC>MOL_PROPERTY
Conf_Id
SciTegic.value.IntegerValue
667

@<SCITEGIC>MOL_PROPERTY
Probability
SciTegic.value.DoubleValue
0.00

@<SCITEGIC>MOL_PROPERTY
Sum Probability
SciTegic.value.DoubleValue
100.00

@<SCITEGIC>MOL_PROPERTY
Delta G
SciTegic.value.DoubleValue
6.632

@<SCITEGIC>MOL_PROPERTY
G
SciTegic.value.DoubleValue
40.334

@<SCITEGIC>MOL_PROPERTY
E
SciTegic.value.DoubleValue
1.740

@<SCITEGIC>MOL_PROPERTY
-TS
SciTegic.value.DoubleValue
38.593

@<SCITEGIC>MOL_PROPERTY
U+W
SciTegic.value.DoubleValue
-22.404

@<SCITEGIC>MOL_PROPERTY
U
SciTegic.value.DoubleValue
30.361

@<SCITEGIC>MOL_PROPERTY
W
SciTegic.value.DoubleValue
-52.765

@<SCITEGIC>MOL_PROPERTY
W(PB)
SciTegic.value.DoubleValue
-55.142

@<SCITEGIC>MOL_PROPERTY
W(SA)
SciTegic.value.DoubleValue
2.377

@<SCITEGIC>MOL_PROPERTY
Valence
SciTegic.value.DoubleValue
9.148

@<SCITEGIC>MOL_PROPERTY
Coulomb
SciTegic.value.DoubleValue
20.452

@<SCITEGIC>MOL_PROPERTY
VdW
SciTegic.value.DoubleValue
0.760

@<SCITEGIC>MOL_PROPERTY
VdW6
SciTegic.value.DoubleValue
-11.953

@<SCITEGIC>MOL_PROPERTY
VdW12
SciTegic.value.DoubleValue
12.713

@<SCITEGIC>MOL_PROPERTY
Bond
SciTegic.value.DoubleValue
0.373

@<SCITEGIC>MOL_PROPERTY
Angle
SciTegic.value.DoubleValue
2.676

@<SCITEGIC>MOL_PROPERTY
Pdih
SciTegic.value.DoubleValue
6.099

@<SCITEGIC>MOL_PROPERTY
Idih
SciTegic.value.DoubleValue
0.000

@<SCITEGIC>MOL_PROPERTY
Tether
SciTegic.value.DoubleValue
0.000

@<TRIPOS>MOLECULE
guest-s15_vm2.mol2 : vm2 ligand conformer 203
          29          28           1
SMALL
USER_CHARGES
 
@<TRIPOS>ATOM
       1    C1      20.907177   19.172021   20.303167 C.3        1 MOL1        -0.2426
       2    H1      21.983863   19.120055   20.095910 H          1 MOL1         0.0959
       3    H2      20.507098   18.153264   20.233164 H          1 MOL1         0.0959
       4    H3      20.443352   19.776014   19.512562 H          1 MOL1         0.0959
       5    C2      20.653894   19.792194   21.696236 C.3        1 MOL1        -0.1410
       6    H4      21.138165   20.777955   21.733094 H          1 MOL1         0.0948
       7    H5      21.145602   19.178441   22.460553 H          1 MOL1         0.0948
       8    C3      19.146929   19.966104   22.016675 C.3        1 MOL1        -0.1435
       9    H6      19.017628   20.662218   22.855759 H          1 MOL1         0.0948
      10    H7      18.669123   20.458524   21.158466 H          1 MOL1         0.0948
      11    C4      18.395768   18.641228   22.314772 C.3        1 MOL1        -0.1435
      12    H8      18.872641   17.798876   21.798045 H          1 MOL1         0.0948
      13    H9      17.391351   18.719258   21.876220 H          1 MOL1         0.0948
      14    C5      18.216629   18.297799   23.818096 C.3        1 MOL1        -0.1435
      15    H10     17.631454   19.082825   24.313764 H          1 MOL1         0.0948
      16    H11     17.593071   17.394706   23.872276 H          1 MOL1         0.0948
      17    C6      19.527372   18.010929   24.598752 C.3        1 MOL1        -0.1500
      18    H12     20.206361   17.431712   23.959276 H          1 MOL1         0.0948
      19    H13     19.293047   17.361062   25.452366 H          1 MOL1         0.0948
      20    C7      20.248684   19.269609   25.133113 C.3        1 MOL1         0.1162
      21    H14     20.419583   19.957282   24.301915 H          1 MOL1         0.0910
      22    C8      21.614268   18.889541   25.726617 C.3        1 MOL1        -0.2491
      23    H15     21.501346   18.202255   26.574457 H          1 MOL1         0.0959
      24    H16     22.244876   18.401560   24.973013 H          1 MOL1         0.0959
      25    H17     22.146781   19.781783   26.078366 H          1 MOL1         0.0959
      26    N1      19.425279   20.016575   26.146570 N.4        1 MOL1        -0.5987
      27    H18     18.527534   20.312785   25.754566 H          1 MOL1         0.3605
      28    H19     19.909000   20.856731   26.476340 H          1 MOL1         0.3605
      29    H20     19.227130   19.436031   26.965874 H          1 MOL1         0.3605
@<TRIPOS>BOND
    1     1     2    1
    2     1     3    1
    3     1     4    1
    4     1     5    1
    5     5     6    1
    6     5     7    1
    7     5     8    1
    8     8     9    1
    9     8    10    1
   10     8    11    1
   11    11    12    1
   12    11    13    1
   13    11    14    1
   14    14    15    1
   15    14    16    1
   16    14    17    1
   17    17    18    1
   18    17    19    1
   19    17    20    1
   20    20    21    1
   21    20    22    1
   22    22    23    1
   23    22    24    1
   24    22    25    1
   25    20    26    1
   26    26    27    1
   27    26    28    1
   28    26    29    1
@<TRIPOS>SUBSTRUCTURE
       1 MOL1            1 RESIDUE      1      MOL     
@<SCITEGIC>MOL_PROPERTY
VM2 Rank
SciTegic.value.IntegerValue
203

@<SCITEGIC>MOL_PROPERTY
Conf_Id
SciTegic.value.IntegerValue
183

@<SCITEGIC>MOL_PROPERTY
Probability
SciTegic.value.DoubleValue
0.00

@<SCITEGIC>MOL_PROPERTY
Sum Probability
SciTegic.value.DoubleValue
100.00

@<SCITEGIC>MOL_PROPERTY
Delta G
SciTegic.value.DoubleValue
6.645

@<SCITEGIC>MOL_PROPERTY
G
SciTegic.value.DoubleValue
40.347

@<SCITEGIC>MOL_PROPERTY
E
SciTegic.value.DoubleValue
1.952

@<SCITEGIC>MOL_PROPERTY
-TS
SciTegic.value.DoubleValue
38.395

@<SCITEGIC>MOL_PROPERTY
U+W
SciTegic.value.DoubleValue
-22.192

@<SCITEGIC>MOL_PROPERTY
U
SciTegic.value.DoubleValue
30.560

@<SCITEGIC>MOL_PROPERTY
W
SciTegic.value.DoubleValue
-52.753

@<SCITEGIC>MOL_PROPERTY
W(PB)
SciTegic.value.DoubleValue
-55.117

@<SCITEGIC>MOL_PROPERTY
W(SA)
SciTegic.value.DoubleValue
2.365

@<SCITEGIC>MOL_PROPERTY
Valence
SciTegic.value.DoubleValue
8.893

@<SCITEGIC>MOL_PROPERTY
Coulomb
SciTegic.value.DoubleValue
21.063

@<SCITEGIC>MOL_PROPERTY
VdW
SciTegic.value.DoubleValue
0.604

@<SCITEGIC>MOL_PROPERTY
VdW6
SciTegic.value.DoubleValue
-12.044

@<SCITEGIC>MOL_PROPERTY
VdW12
SciTegic.value.DoubleValue
12.648

@<SCITEGIC>MOL_PROPERTY
Bond
SciTegic.value.DoubleValue
0.360

@<SCITEGIC>MOL_PROPERTY
Angle
SciTegic.value.DoubleValue
2.555

@<SCITEGIC>MOL_PROPERTY
Pdih
SciTegic.value.DoubleValue
5.978

@<SCITEGIC>MOL_PROPERTY
Idih
SciTegic.value.DoubleValue
0.000

@<SCITEGIC>MOL_PROPERTY
Tether
SciTegic.value.DoubleValue
0.000

@<TRIPOS>MOLECULE
guest-s15_vm2.mol2 : vm2 ligand conformer 204
          29          28           1
SMALL
USER_CHARGES
 
@<TRIPOS>ATOM
       1    C1      19.824624   20.534003   20.156126 C.3        1 MOL1        -0.2426
       2    H1      20.870358   20.802655   19.957941 H          1 MOL1         0.0959
       3    H2      19.215023   20.947131   19.342126 H          1 MOL1         0.0959
       4    H3      19.518469   21.030346   21.083347 H          1 MOL1         0.0959
       5    C2      19.654224   18.998824   20.232655 C.3        1 MOL1        -0.1410
       6    H4      19.943172   18.578421   19.259192 H          1 MOL1         0.0948
       7    H5      18.595809   18.738310   20.371978 H          1 MOL1         0.0948
       8    C3      20.521996   18.334560   21.332535 C.3        1 MOL1        -0.1435
       9    H6      20.840047   17.348760   20.965930 H          1 MOL1         0.0948
      10    H7      21.447883   18.906408   21.483496 H          1 MOL1         0.0948
      11    C4      19.802960   18.115972   22.688663 C.3        1 MOL1        -0.1435
      12    H8      20.480095   17.557897   23.346371 H          1 MOL1         0.0948
      13    H9      18.931156   17.464964   22.536042 H          1 MOL1         0.0948
      14    C5      19.347845   19.421722   23.386568 C.3        1 MOL1        -0.1435
      15    H10     20.161640   20.159819   23.392027 H          1 MOL1         0.0948
      16    H11     18.534233   19.861170   22.794845 H          1 MOL1         0.0948
      17    C6      18.824002   19.195965   24.829561 C.3        1 MOL1        -0.1500
      18    H12     18.425710   18.178146   24.935851 H          1 MOL1         0.0948
      19    H13     17.970221   19.868702   24.985183 H          1 MOL1         0.0948
      20    C7      19.855359   19.487390   25.946186 C.3        1 MOL1         0.1162
      21    H14     20.194624   20.521691   25.833554 H          1 MOL1         0.0910
      22    C8      21.087084   18.569019   25.876784 C.3        1 MOL1        -0.2491
      23    H15     21.660588   18.748293   24.959880 H          1 MOL1         0.0959
      24    H16     21.760415   18.760604   26.721289 H          1 MOL1         0.0959
      25    H17     20.796608   17.511522   25.905982 H          1 MOL1         0.0959
      26    N1      19.217907   19.398547   27.304923 N.4        1 MOL1        -0.5987
      27    H18     18.423325   20.038856   27.391480 H          1 MOL1         0.3605
      28    H19     19.883078   19.636565   28.046238 H          1 MOL1         0.3605
      29    H20     18.873811   18.453498   27.495152 H          1 MOL1         0.3605
@<TRIPOS>BOND
    1     1     2    1
    2     1     3    1
    3     1     4    1
    4     1     5    1
    5     5     6    1
    6     5     7    1
    7     5     8    1
    8     8     9    1
    9     8    10    1
   10     8    11    1
   11    11    12    1
   12    11    13    1
   13    11    14    1
   14    14    15    1
   15    14    16    1
   16    14    17    1
   17    17    18    1
   18    17    19    1
   19    17    20    1
   20    20    21    1
   21    20    22    1
   22    22    23    1
   23    22    24    1
   24    22    25    1
   25    20    26    1
   26    26    27    1
   27    26    28    1
   28    26    29    1
@<TRIPOS>SUBSTRUCTURE
       1 MOL1            1 RESIDUE      1      MOL     
@<SCITEGIC>MOL_PROPERTY
VM2 Rank
SciTegic.value.IntegerValue
204

@<SCITEGIC>MOL_PROPERTY
Conf_Id
SciTegic.value.IntegerValue
153

@<SCITEGIC>MOL_PROPERTY
Probability
SciTegic.value.DoubleValue
0.00

@<SCITEGIC>MOL_PROPERTY
Sum Probability
SciTegic.value.DoubleValue
100.00

@<SCITEGIC>MOL_PROPERTY
Delta G
SciTegic.value.DoubleValue
6.701

@<SCITEGIC>MOL_PROPERTY
G
SciTegic.value.DoubleValue
40.403

@<SCITEGIC>MOL_PROPERTY
E
SciTegic.value.DoubleValue
2.337

@<SCITEGIC>MOL_PROPERTY
-TS
SciTegic.value.DoubleValue
38.066

@<SCITEGIC>MOL_PROPERTY
U+W
SciTegic.value.DoubleValue
-21.808

@<SCITEGIC>MOL_PROPERTY
U
SciTegic.value.DoubleValue
30.372

@<SCITEGIC>MOL_PROPERTY
W
SciTegic.value.DoubleValue
-52.180

@<SCITEGIC>MOL_PROPERTY
W(PB)
SciTegic.value.DoubleValue
-54.600

@<SCITEGIC>MOL_PROPERTY
W(SA)
SciTegic.value.DoubleValue
2.420

@<SCITEGIC>MOL_PROPERTY
Valence
SciTegic.value.DoubleValue
9.265

@<SCITEGIC>MOL_PROPERTY
Coulomb
SciTegic.value.DoubleValue
19.847

@<SCITEGIC>MOL_PROPERTY
VdW
SciTegic.value.DoubleValue
1.260

@<SCITEGIC>MOL_PROPERTY
VdW6
SciTegic.value.DoubleValue
-10.647

@<SCITEGIC>MOL_PROPERTY
VdW12
SciTegic.value.DoubleValue
11.908

@<SCITEGIC>MOL_PROPERTY
Bond
SciTegic.value.DoubleValue
0.333

@<SCITEGIC>MOL_PROPERTY
Angle
SciTegic.value.DoubleValue
2.435

@<SCITEGIC>MOL_PROPERTY
Pdih
SciTegic.value.DoubleValue
6.497

@<SCITEGIC>MOL_PROPERTY
Idih
SciTegic.value.DoubleValue
0.000

@<SCITEGIC>MOL_PROPERTY
Tether
SciTegic.value.DoubleValue
0.000

@<TRIPOS>MOLECULE
guest-s15_vm2.mol2 : vm2 ligand conformer 205
          29          28           1
SMALL
USER_CHARGES
 
@<TRIPOS>ATOM
       1    C1      18.983024   20.426124   20.403365 C.3        1 MOL1        -0.2426
       2    H1      19.255186   21.122135   19.599391 H          1 MOL1         0.0959
       3    H2      17.924325   20.166330   20.274259 H          1 MOL1         0.0959
       4    H3      19.085771   20.961611   21.353378 H          1 MOL1         0.0959
       5    C2      19.872221   19.162039   20.347197 C.3        1 MOL1        -0.1410
       6    H4      20.933607   19.437963   20.416831 H          1 MOL1         0.0948
       7    H5      19.743827   18.702972   19.356933 H          1 MOL1         0.0948
       8    C3      19.517244   18.108368   21.427830 C.3        1 MOL1        -0.1435
       9    H6      18.446488   18.156933   21.669022 H          1 MOL1         0.0948
      10    H7      19.677777   17.110742   20.996183 H          1 MOL1         0.0948
      11    C4      20.360750   18.193997   22.725977 C.3        1 MOL1        -0.1435
      12    H8      21.421348   18.047371   22.479528 H          1 MOL1         0.0948
      13    H9      20.083002   17.348678   23.366479 H          1 MOL1         0.0948
      14    C5      20.196965   19.522137   23.505748 C.3        1 MOL1        -0.1435
      15    H10     20.646031   20.326113   22.908278 H          1 MOL1         0.0948
      16    H11     19.133529   19.772134   23.610283 H          1 MOL1         0.0948
      17    C6      20.897416   19.512785   24.893177 C.3        1 MOL1        -0.1500
      18    H12     21.322119   20.509363   25.072017 H          1 MOL1         0.0948
      19    H13     21.758303   18.831536   24.872746 H          1 MOL1         0.0948
      20    C7      19.996369   19.168233   26.105065 C.3        1 MOL1         0.1162
      21    H14     20.631256   19.194613   26.996094 H          1 MOL1         0.0910
      22    C8      19.385148   17.760651   26.014849 C.3        1 MOL1        -0.2491
      23    H15     18.655139   17.690891   25.199528 H          1 MOL1         0.0959
      24    H16     20.165039   17.006877   25.850779 H          1 MOL1         0.0959
      25    H17     18.868910   17.506393   26.948640 H          1 MOL1         0.0959
      26    N1      18.926863   20.201665   26.330792 N.4        1 MOL1        -0.5987
      27    H18     19.327273   21.137004   26.446923 H          1 MOL1         0.3605
      28    H19     18.380361   19.996172   27.172059 H          1 MOL1         0.3605
      29    H20     18.275475   20.240799   25.543106 H          1 MOL1         0.3605
@<TRIPOS>BOND
    1     1     2    1
    2     1     3    1
    3     1     4    1
    4     1     5    1
    5     5     6    1
    6     5     7    1
    7     5     8    1
    8     8     9    1
    9     8    10    1
   10     8    11    1
   11    11    12    1
   12    11    13    1
   13    11    14    1
   14    14    15    1
   15    14    16    1
   16    14    17    1
   17    17    18    1
   18    17    19    1
   19    17    20    1
   20    20    21    1
   21    20    22    1
   22    22    23    1
   23    22    24    1
   24    22    25    1
   25    20    26    1
   26    26    27    1
   27    26    28    1
   28    26    29    1
@<TRIPOS>SUBSTRUCTURE
       1 MOL1            1 RESIDUE      1      MOL     
@<SCITEGIC>MOL_PROPERTY
VM2 Rank
SciTegic.value.IntegerValue
205

@<SCITEGIC>MOL_PROPERTY
Conf_Id
SciTegic.value.IntegerValue
528

@<SCITEGIC>MOL_PROPERTY
Probability
SciTegic.value.DoubleValue
0.00

@<SCITEGIC>MOL_PROPERTY
Sum Probability
SciTegic.value.DoubleValue
100.00

@<SCITEGIC>MOL_PROPERTY
Delta G
SciTegic.value.DoubleValue
6.759

@<SCITEGIC>MOL_PROPERTY
G
SciTegic.value.DoubleValue
40.461

@<SCITEGIC>MOL_PROPERTY
E
SciTegic.value.DoubleValue
2.313

@<SCITEGIC>MOL_PROPERTY
-TS
SciTegic.value.DoubleValue
38.147

@<SCITEGIC>MOL_PROPERTY
U+W
SciTegic.value.DoubleValue
-21.831

@<SCITEGIC>MOL_PROPERTY
U
SciTegic.value.DoubleValue
30.788

@<SCITEGIC>MOL_PROPERTY
W
SciTegic.value.DoubleValue
-52.619

@<SCITEGIC>MOL_PROPERTY
W(PB)
SciTegic.value.DoubleValue
-55.022

@<SCITEGIC>MOL_PROPERTY
W(SA)
SciTegic.value.DoubleValue
2.402

@<SCITEGIC>MOL_PROPERTY
Valence
SciTegic.value.DoubleValue
9.278

@<SCITEGIC>MOL_PROPERTY
Coulomb
SciTegic.value.DoubleValue
20.293

@<SCITEGIC>MOL_PROPERTY
VdW
SciTegic.value.DoubleValue
1.217

@<SCITEGIC>MOL_PROPERTY
VdW6
SciTegic.value.DoubleValue
-11.113

@<SCITEGIC>MOL_PROPERTY
VdW12
SciTegic.value.DoubleValue
12.330

@<SCITEGIC>MOL_PROPERTY
Bond
SciTegic.value.DoubleValue
0.365

@<SCITEGIC>MOL_PROPERTY
Angle
SciTegic.value.DoubleValue
2.560

@<SCITEGIC>MOL_PROPERTY
Pdih
SciTegic.value.DoubleValue
6.353

@<SCITEGIC>MOL_PROPERTY
Idih
SciTegic.value.DoubleValue
0.000

@<SCITEGIC>MOL_PROPERTY
Tether
SciTegic.value.DoubleValue
0.000

@<TRIPOS>MOLECULE
guest-s15_vm2.mol2 : vm2 ligand conformer 206
          29          28           1
SMALL
USER_CHARGES
 
@<TRIPOS>ATOM
       1    C1      20.628111   18.851539   19.948401 C.3        1 MOL1        -0.2426
       2    H1      21.360759   18.649137   20.737716 H          1 MOL1         0.0959
       3    H2      20.296137   17.887292   19.542071 H          1 MOL1         0.0959
       4    H3      21.143951   19.391938   19.144187 H          1 MOL1         0.0959
       5    C2      19.425485   19.673039   20.468419 C.3        1 MOL1        -0.1410
       6    H4      18.738191   19.838495   19.626926 H          1 MOL1         0.0948
       7    H5      19.754397   20.671086   20.789790 H          1 MOL1         0.0948
       8    C3      18.650951   18.965607   21.610108 C.3        1 MOL1        -0.1435
       9    H6      17.578065   19.149259   21.459845 H          1 MOL1         0.0948
      10    H7      18.776616   17.876517   21.537128 H          1 MOL1         0.0948
      11    C4      19.011138   19.447196   23.039366 C.3        1 MOL1        -0.1435
      12    H8      18.349160   18.919221   23.734540 H          1 MOL1         0.0948
      13    H9      18.780295   20.517312   23.132484 H          1 MOL1         0.0948
      14    C5      20.485639   19.198177   23.440866 C.3        1 MOL1        -0.1435
      15    H10     20.721305   18.129978   23.345267 H          1 MOL1         0.0948
      16    H11     21.137527   19.717068   22.727431 H          1 MOL1         0.0948
      17    C6      20.870599   19.707389   24.858929 C.3        1 MOL1        -0.1500
      18    H12     20.741535   20.796829   24.900530 H          1 MOL1         0.0948
      19    H13     21.947493   19.537980   24.989736 H          1 MOL1         0.0948
      20    C7      20.151070   19.068035   26.074180 C.3        1 MOL1         0.1162
      21    H14     20.719821   19.357276   26.963310 H          1 MOL1         0.0910
      22    C8      20.145155   17.530625   26.015260 C.3        1 MOL1        -0.2491
      23    H15     19.514871   17.159202   25.198380 H          1 MOL1         0.0959
      24    H16     21.161345   17.143733   25.869599 H          1 MOL1         0.0959
      25    H17     19.760486   17.111685   26.953129 H          1 MOL1         0.0959
      26    N1      18.767853   19.614393   26.298472 N.4        1 MOL1        -0.5987
      27    H18     18.780965   20.632469   26.408219 H          1 MOL1         0.3605
      28    H19     18.344248   19.221594   27.144048 H          1 MOL1         0.3605
      29    H20     18.149563   19.396974   25.514478 H          1 MOL1         0.3605
@<TRIPOS>BOND
    1     1     2    1
    2     1     3    1
    3     1     4    1
    4     1     5    1
    5     5     6    1
    6     5     7    1
    7     5     8    1
    8     8     9    1
    9     8    10    1
   10     8    11    1
   11    11    12    1
   12    11    13    1
   13    11    14    1
   14    14    15    1
   15    14    16    1
   16    14    17    1
   17    17    18    1
   18    17    19    1
   19    17    20    1
   20    20    21    1
   21    20    22    1
   22    22    23    1
   23    22    24    1
   24    22    25    1
   25    20    26    1
   26    26    27    1
   27    26    28    1
   28    26    29    1
@<TRIPOS>SUBSTRUCTURE
       1 MOL1            1 RESIDUE      1      MOL     
@<SCITEGIC>MOL_PROPERTY
VM2 Rank
SciTegic.value.IntegerValue
206

@<SCITEGIC>MOL_PROPERTY
Conf_Id
SciTegic.value.IntegerValue
1651

@<SCITEGIC>MOL_PROPERTY
Probability
SciTegic.value.DoubleValue
0.00

@<SCITEGIC>MOL_PROPERTY
Sum Probability
SciTegic.value.DoubleValue
100.00

@<SCITEGIC>MOL_PROPERTY
Delta G
SciTegic.value.DoubleValue
6.812

@<SCITEGIC>MOL_PROPERTY
G
SciTegic.value.DoubleValue
40.514

@<SCITEGIC>MOL_PROPERTY
E
SciTegic.value.DoubleValue
2.306

@<SCITEGIC>MOL_PROPERTY
-TS
SciTegic.value.DoubleValue
38.209

@<SCITEGIC>MOL_PROPERTY
U+W
SciTegic.value.DoubleValue
-21.839

@<SCITEGIC>MOL_PROPERTY
U
SciTegic.value.DoubleValue
30.733

@<SCITEGIC>MOL_PROPERTY
W
SciTegic.value.DoubleValue
-52.571

@<SCITEGIC>MOL_PROPERTY
W(PB)
SciTegic.value.DoubleValue
-54.996

@<SCITEGIC>MOL_PROPERTY
W(SA)
SciTegic.value.DoubleValue
2.425

@<SCITEGIC>MOL_PROPERTY
Valence
SciTegic.value.DoubleValue
8.311

@<SCITEGIC>MOL_PROPERTY
Coulomb
SciTegic.value.DoubleValue
21.302

@<SCITEGIC>MOL_PROPERTY
VdW
SciTegic.value.DoubleValue
1.120

@<SCITEGIC>MOL_PROPERTY
VdW6
SciTegic.value.DoubleValue
-11.478

@<SCITEGIC>MOL_PROPERTY
VdW12
SciTegic.value.DoubleValue
12.598

@<SCITEGIC>MOL_PROPERTY
Bond
SciTegic.value.DoubleValue
0.388

@<SCITEGIC>MOL_PROPERTY
Angle
SciTegic.value.DoubleValue
3.090

@<SCITEGIC>MOL_PROPERTY
Pdih
SciTegic.value.DoubleValue
4.833

@<SCITEGIC>MOL_PROPERTY
Idih
SciTegic.value.DoubleValue
0.000

@<SCITEGIC>MOL_PROPERTY
Tether
SciTegic.value.DoubleValue
0.000

@<TRIPOS>MOLECULE
guest-s15_vm2.mol2 : vm2 ligand conformer 207
          29          28           1
SMALL
USER_CHARGES
 
@<TRIPOS>ATOM
       1    C1      18.036161   19.450576   21.558166 C.3        1 MOL1        -0.2426
       2    H1      17.835522   20.359478   20.976232 H          1 MOL1         0.0959
       3    H2      17.132724   18.828045   21.525765 H          1 MOL1         0.0959
       4    H3      18.199507   19.748725   22.598519 H          1 MOL1         0.0959
       5    C2      19.245248   18.681786   20.976644 C.3        1 MOL1        -0.1410
       6    H4      19.010488   18.427385   19.933572 H          1 MOL1         0.0948
       7    H5      19.382176   17.722449   21.493372 H          1 MOL1         0.0948
       8    C3      20.560758   19.500094   20.998592 C.3        1 MOL1        -0.1435
       9    H6      21.132808   19.238269   20.097719 H          1 MOL1         0.0948
      10    H7      20.341737   20.572503   20.903482 H          1 MOL1         0.0948
      11    C4      21.488363   19.252006   22.218919 C.3        1 MOL1        -0.1435
      12    H8      22.418142   19.808723   22.037302 H          1 MOL1         0.0948
      13    H9      21.784799   18.194838   22.257345 H          1 MOL1         0.0948
      14    C5      20.927930   19.704564   23.591575 C.3        1 MOL1        -0.1435
      15    H10     21.765485   20.070916   24.201413 H          1 MOL1         0.0948
      16    H11     20.258548   20.563006   23.453463 H          1 MOL1         0.0948
      17    C6      20.230648   18.563504   24.377561 C.3        1 MOL1        -0.1500
      18    H12     20.943657   17.737865   24.502957 H          1 MOL1         0.0948
      19    H13     19.388188   18.156741   23.807677 H          1 MOL1         0.0948
      20    C7      19.740856   19.007933   25.772538 C.3        1 MOL1         0.1162
      21    H14     20.593303   19.423282   26.318829 H          1 MOL1         0.0910
      22    C8      19.203962   17.801937   26.559635 C.3        1 MOL1        -0.2491
      23    H15     18.343354   17.347982   26.052457 H          1 MOL1         0.0959
      24    H16     19.978831   17.033347   26.671839 H          1 MOL1         0.0959
      25    H17     18.887602   18.104402   27.565533 H          1 MOL1         0.0959
      26    N1      18.702074   20.093599   25.700370 N.4        1 MOL1        -0.5987
      27    H18     19.058124   20.918878   25.210727 H          1 MOL1         0.3605
      28    H19     18.411593   20.393898   26.635386 H          1 MOL1         0.3605
      29    H20     17.864204   19.775475   25.206509 H          1 MOL1         0.3605
@<TRIPOS>BOND
    1     1     2    1
    2     1     3    1
    3     1     4    1
    4     1     5    1
    5     5     6    1
    6     5     7    1
    7     5     8    1
    8     8     9    1
    9     8    10    1
   10     8    11    1
   11    11    12    1
   12    11    13    1
   13    11    14    1
   14    14    15    1
   15    14    16    1
   16    14    17    1
   17    17    18    1
   18    17    19    1
   19    17    20    1
   20    20    21    1
   21    20    22    1
   22    22    23    1
   23    22    24    1
   24    22    25    1
   25    20    26    1
   26    26    27    1
   27    26    28    1
   28    26    29    1
@<TRIPOS>SUBSTRUCTURE
       1 MOL1            1 RESIDUE      1      MOL     
@<SCITEGIC>MOL_PROPERTY
VM2 Rank
SciTegic.value.IntegerValue
207

@<SCITEGIC>MOL_PROPERTY
Conf_Id
SciTegic.value.IntegerValue
1209

@<SCITEGIC>MOL_PROPERTY
Probability
SciTegic.value.DoubleValue
0.00

@<SCITEGIC>MOL_PROPERTY
Sum Probability
SciTegic.value.DoubleValue
100.00

@<SCITEGIC>MOL_PROPERTY
Delta G
SciTegic.value.DoubleValue
6.824

@<SCITEGIC>MOL_PROPERTY
G
SciTegic.value.DoubleValue
40.527

@<SCITEGIC>MOL_PROPERTY
E
SciTegic.value.DoubleValue
2.177

@<SCITEGIC>MOL_PROPERTY
-TS
SciTegic.value.DoubleValue
38.350

@<SCITEGIC>MOL_PROPERTY
U+W
SciTegic.value.DoubleValue
-21.968

@<SCITEGIC>MOL_PROPERTY
U
SciTegic.value.DoubleValue
30.724

@<SCITEGIC>MOL_PROPERTY
W
SciTegic.value.DoubleValue
-52.691

@<SCITEGIC>MOL_PROPERTY
W(PB)
SciTegic.value.DoubleValue
-55.086

@<SCITEGIC>MOL_PROPERTY
W(SA)
SciTegic.value.DoubleValue
2.395

@<SCITEGIC>MOL_PROPERTY
Valence
SciTegic.value.DoubleValue
8.746

@<SCITEGIC>MOL_PROPERTY
Coulomb
SciTegic.value.DoubleValue
21.258

@<SCITEGIC>MOL_PROPERTY
VdW
SciTegic.value.DoubleValue
0.720

@<SCITEGIC>MOL_PROPERTY
VdW6
SciTegic.value.DoubleValue
-11.140

@<SCITEGIC>MOL_PROPERTY
VdW12
SciTegic.value.DoubleValue
11.860

@<SCITEGIC>MOL_PROPERTY
Bond
SciTegic.value.DoubleValue
0.332

@<SCITEGIC>MOL_PROPERTY
Angle
SciTegic.value.DoubleValue
2.430

@<SCITEGIC>MOL_PROPERTY
Pdih
SciTegic.value.DoubleValue
5.984

@<SCITEGIC>MOL_PROPERTY
Idih
SciTegic.value.DoubleValue
0.000

@<SCITEGIC>MOL_PROPERTY
Tether
SciTegic.value.DoubleValue
0.000

@<TRIPOS>MOLECULE
guest-s15_vm2.mol2 : vm2 ligand conformer 208
          29          28           1
SMALL
USER_CHARGES
 
@<TRIPOS>ATOM
       1    C1      19.721899   17.847149   20.672659 C.3        1 MOL1        -0.2426
       2    H1      19.210767   18.071684   19.727474 H          1 MOL1         0.0959
       3    H2      20.315953   16.936523   20.522165 H          1 MOL1         0.0959
       4    H3      18.954159   17.627594   21.422745 H          1 MOL1         0.0959
       5    C2      20.630086   19.024268   21.097922 C.3        1 MOL1        -0.1410
       6    H4      21.236111   18.753640   21.972858 H          1 MOL1         0.0948
       7    H5      21.346542   19.207561   20.284948 H          1 MOL1         0.0948
       8    C3      19.843381   20.331151   21.367500 C.3        1 MOL1        -0.1435
       9    H6      20.444010   21.169360   20.987981 H          1 MOL1         0.0948
      10    H7      18.917157   20.345582   20.776695 H          1 MOL1         0.0948
      11    C4      19.527615   20.629046   22.857971 C.3        1 MOL1        -0.1435
      12    H8      19.062706   21.623981   22.893980 H          1 MOL1         0.0948
      13    H9      20.462654   20.729111   23.422775 H          1 MOL1         0.0948
      14    C5      18.558203   19.634415   23.552771 C.3        1 MOL1        -0.1435
      15    H10     17.953832   20.189332   24.282403 H          1 MOL1         0.0948
      16    H11     17.836358   19.253223   22.818176 H          1 MOL1         0.0948
      17    C6      19.239329   18.443741   24.283240 C.3        1 MOL1        -0.1500
      18    H12     19.783946   17.826932   23.560913 H          1 MOL1         0.0948
      19    H13     18.457964   17.795469   24.701402 H          1 MOL1         0.0948
      20    C7      20.209387   18.855226   25.414026 C.3        1 MOL1         0.1162
      21    H14     20.998867   19.478390   24.984816 H          1 MOL1         0.0910
      22    C8      20.868308   17.611182   26.030513 C.3        1 MOL1        -0.2491
      23    H15     21.412045   17.039958   25.267729 H          1 MOL1         0.0959
      24    H16     21.587825   17.897713   26.807411 H          1 MOL1         0.0959
      25    H17     20.120353   16.949234   26.484712 H          1 MOL1         0.0959
      26    N1      19.537792   19.679822   26.477397 N.4        1 MOL1        -0.5987
      27    H18     19.131880   20.533033   26.083509 H          1 MOL1         0.3605
      28    H19     20.199009   19.961599   27.206705 H          1 MOL1         0.3605
      29    H20     18.782732   19.159108   26.931416 H          1 MOL1         0.3605
@<TRIPOS>BOND
    1     1     2    1
    2     1     3    1
    3     1     4    1
    4     1     5    1
    5     5     6    1
    6     5     7    1
    7     5     8    1
    8     8     9    1
    9     8    10    1
   10     8    11    1
   11    11    12    1
   12    11    13    1
   13    11    14    1
   14    14    15    1
   15    14    16    1
   16    14    17    1
   17    17    18    1
   18    17    19    1
   19    17    20    1
   20    20    21    1
   21    20    22    1
   22    22    23    1
   23    22    24    1
   24    22    25    1
   25    20    26    1
   26    26    27    1
   27    26    28    1
   28    26    29    1
@<TRIPOS>SUBSTRUCTURE
       1 MOL1            1 RESIDUE      1      MOL     
@<SCITEGIC>MOL_PROPERTY
VM2 Rank
SciTegic.value.IntegerValue
208

@<SCITEGIC>MOL_PROPERTY
Conf_Id
SciTegic.value.IntegerValue
1688

@<SCITEGIC>MOL_PROPERTY
Probability
SciTegic.value.DoubleValue
0.00

@<SCITEGIC>MOL_PROPERTY
Sum Probability
SciTegic.value.DoubleValue
100.00

@<SCITEGIC>MOL_PROPERTY
Delta G
SciTegic.value.DoubleValue
6.934

@<SCITEGIC>MOL_PROPERTY
G
SciTegic.value.DoubleValue
40.636

@<SCITEGIC>MOL_PROPERTY
E
SciTegic.value.DoubleValue
2.377

@<SCITEGIC>MOL_PROPERTY
-TS
SciTegic.value.DoubleValue
38.259

@<SCITEGIC>MOL_PROPERTY
U+W
SciTegic.value.DoubleValue
-21.768

@<SCITEGIC>MOL_PROPERTY
U
SciTegic.value.DoubleValue
30.742

@<SCITEGIC>MOL_PROPERTY
W
SciTegic.value.DoubleValue
-52.510

@<SCITEGIC>MOL_PROPERTY
W(PB)
SciTegic.value.DoubleValue
-54.887

@<SCITEGIC>MOL_PROPERTY
W(SA)
SciTegic.value.DoubleValue
2.376

@<SCITEGIC>MOL_PROPERTY
Valence
SciTegic.value.DoubleValue
9.238

@<SCITEGIC>MOL_PROPERTY
Coulomb
SciTegic.value.DoubleValue
20.616

@<SCITEGIC>MOL_PROPERTY
VdW
SciTegic.value.DoubleValue
0.888

@<SCITEGIC>MOL_PROPERTY
VdW6
SciTegic.value.DoubleValue
-11.670

@<SCITEGIC>MOL_PROPERTY
VdW12
SciTegic.value.DoubleValue
12.558

@<SCITEGIC>MOL_PROPERTY
Bond
SciTegic.value.DoubleValue
0.382

@<SCITEGIC>MOL_PROPERTY
Angle
SciTegic.value.DoubleValue
2.765

@<SCITEGIC>MOL_PROPERTY
Pdih
SciTegic.value.DoubleValue
6.091

@<SCITEGIC>MOL_PROPERTY
Idih
SciTegic.value.DoubleValue
0.000

@<SCITEGIC>MOL_PROPERTY
Tether
SciTegic.value.DoubleValue
0.000

@<TRIPOS>MOLECULE
guest-s15_vm2.mol2 : vm2 ligand conformer 209
          29          28           1
SMALL
USER_CHARGES
 
@<TRIPOS>ATOM
       1    C1      19.335175   20.958117   20.189315 C.3        1 MOL1        -0.2426
       2    H1      20.299907   20.932579   19.665942 H          1 MOL1         0.0959
       3    H2      18.558714   21.201902   19.452606 H          1 MOL1         0.0959
       4    H3      19.367483   21.771128   20.926326 H          1 MOL1         0.0959
       5    C2      19.036538   19.604650   20.867730 C.3        1 MOL1        -0.1410
       6    H4      18.976290   18.818342   20.102118 H          1 MOL1         0.0948
       7    H5      18.051043   19.650514   21.351600 H          1 MOL1         0.0948
       8    C3      20.117765   19.236548   21.907264 C.3        1 MOL1        -0.1435
       9    H6      21.095593   19.181109   21.408788 H          1 MOL1         0.0948
      10    H7      20.203438   20.039311   22.648856 H          1 MOL1         0.0948
      11    C4      19.822056   17.878259   22.590167 C.3        1 MOL1        -0.1435
      12    H8      19.915330   17.091602   21.828403 H          1 MOL1         0.0948
      13    H9      18.782982   17.825210   22.941062 H          1 MOL1         0.0948
      14    C5      20.797547   17.556548   23.750922 C.3        1 MOL1        -0.1435
      15    H10     21.007667   16.478236   23.726579 H          1 MOL1         0.0948
      16    H11     21.765822   18.046699   23.578508 H          1 MOL1         0.0948
      17    C6      20.280295   17.894188   25.176322 C.3        1 MOL1        -0.1500
      18    H12     21.041509   17.542610   25.885574 H          1 MOL1         0.0948
      19    H13     19.377387   17.309116   25.395715 H          1 MOL1         0.0948
      20    C7      20.008829   19.392465   25.447098 C.3        1 MOL1         0.1162
      21    H14     20.800893   19.978919   24.971601 H          1 MOL1         0.0910
      22    C8      20.037454   19.678971   26.957346 C.3        1 MOL1        -0.2491
      23    H15     19.269096   19.100483   27.485555 H          1 MOL1         0.0959
      24    H16     21.014229   19.421542   27.385616 H          1 MOL1         0.0959
      25    H17     19.860104   20.743478   27.154438 H          1 MOL1         0.0959
      26    N1      18.700341   19.856254   24.867838 N.4        1 MOL1        -0.5987
      27    H18     17.910218   19.369191   25.299568 H          1 MOL1         0.3605
      28    H19     18.664074   19.677911   23.859660 H          1 MOL1         0.3605
      29    H20     18.560324   20.860154   25.015101 H          1 MOL1         0.3605
@<TRIPOS>BOND
    1     1     2    1
    2     1     3    1
    3     1     4    1
    4     1     5    1
    5     5     6    1
    6     5     7    1
    7     5     8    1
    8     8     9    1
    9     8    10    1
   10     8    11    1
   11    11    12    1
   12    11    13    1
   13    11    14    1
   14    14    15    1
   15    14    16    1
   16    14    17    1
   17    17    18    1
   18    17    19    1
   19    17    20    1
   20    20    21    1
   21    20    22    1
   22    22    23    1
   23    22    24    1
   24    22    25    1
   25    20    26    1
   26    26    27    1
   27    26    28    1
   28    26    29    1
@<TRIPOS>SUBSTRUCTURE
       1 MOL1            1 RESIDUE      1      MOL     
@<SCITEGIC>MOL_PROPERTY
VM2 Rank
SciTegic.value.IntegerValue
209

@<SCITEGIC>MOL_PROPERTY
Conf_Id
SciTegic.value.IntegerValue
610

@<SCITEGIC>MOL_PROPERTY
Probability
SciTegic.value.DoubleValue
0.00

@<SCITEGIC>MOL_PROPERTY
Sum Probability
SciTegic.value.DoubleValue
100.00

@<SCITEGIC>MOL_PROPERTY
Delta G
SciTegic.value.DoubleValue
7.120

@<SCITEGIC>MOL_PROPERTY
G
SciTegic.value.DoubleValue
40.822

@<SCITEGIC>MOL_PROPERTY
E
SciTegic.value.DoubleValue
2.728

@<SCITEGIC>MOL_PROPERTY
-TS
SciTegic.value.DoubleValue
38.094

@<SCITEGIC>MOL_PROPERTY
U+W
SciTegic.value.DoubleValue
-21.416

@<SCITEGIC>MOL_PROPERTY
U
SciTegic.value.DoubleValue
29.728

@<SCITEGIC>MOL_PROPERTY
W
SciTegic.value.DoubleValue
-51.144

@<SCITEGIC>MOL_PROPERTY
W(PB)
SciTegic.value.DoubleValue
-53.597

@<SCITEGIC>MOL_PROPERTY
W(SA)
SciTegic.value.DoubleValue
2.453

@<SCITEGIC>MOL_PROPERTY
Valence
SciTegic.value.DoubleValue
7.448

@<SCITEGIC>MOL_PROPERTY
Coulomb
SciTegic.value.DoubleValue
21.445

@<SCITEGIC>MOL_PROPERTY
VdW
SciTegic.value.DoubleValue
0.835

@<SCITEGIC>MOL_PROPERTY
VdW6
SciTegic.value.DoubleValue
-10.815

@<SCITEGIC>MOL_PROPERTY
VdW12
SciTegic.value.DoubleValue
11.650

@<SCITEGIC>MOL_PROPERTY
Bond
SciTegic.value.DoubleValue
0.282

@<SCITEGIC>MOL_PROPERTY
Angle
SciTegic.value.DoubleValue
2.108

@<SCITEGIC>MOL_PROPERTY
Pdih
SciTegic.value.DoubleValue
5.057

@<SCITEGIC>MOL_PROPERTY
Idih
SciTegic.value.DoubleValue
0.000

@<SCITEGIC>MOL_PROPERTY
Tether
SciTegic.value.DoubleValue
0.000

@<TRIPOS>MOLECULE
guest-s15_vm2.mol2 : vm2 ligand conformer 210
          29          28           1
SMALL
USER_CHARGES
 
@<TRIPOS>ATOM
       1    C1      20.185693   20.743859   20.072702 C.3        1 MOL1        -0.2426
       2    H1      20.704013   21.444430   20.740367 H          1 MOL1         0.0959
       3    H2      20.794248   20.629498   19.166273 H          1 MOL1         0.0959
       4    H3      19.228042   21.194348   19.780834 H          1 MOL1         0.0959
       5    C2      19.970547   19.378882   20.760075 C.3        1 MOL1        -0.1410
       6    H4      20.947978   18.940682   21.000799 H          1 MOL1         0.0948
       7    H5      19.481477   18.691453   20.055840 H          1 MOL1         0.0948
       8    C3      19.110816   19.514617   22.039143 C.3        1 MOL1        -0.1435
       9    H6      19.601118   20.212164   22.728733 H          1 MOL1         0.0948
      10    H7      18.147521   19.967828   21.766768 H          1 MOL1         0.0948
      11    C4      18.840483   18.153848   22.733400 C.3        1 MOL1        -0.1435
      12    H8      18.527410   17.432977   21.965319 H          1 MOL1         0.0948
      13    H9      17.981522   18.235628   23.412336 H          1 MOL1         0.0948
      14    C5      20.060325   17.572114   23.496947 C.3        1 MOL1        -0.1435
      15    H10     20.054693   16.482040   23.358906 H          1 MOL1         0.0948
      16    H11     21.000156   17.917208   23.047427 H          1 MOL1         0.0948
      17    C6      20.086708   17.843517   25.025847 C.3        1 MOL1        -0.1500
      18    H12     20.949146   17.299169   25.433254 H          1 MOL1         0.0948
      19    H13     19.202972   17.399251   25.502605 H          1 MOL1         0.0948
      20    C7      20.207133   19.331364   25.429544 C.3        1 MOL1         0.1162
      21    H14     20.896144   19.823047   24.736013 H          1 MOL1         0.0910
      22    C8      20.780509   19.458448   26.850433 C.3        1 MOL1        -0.2491
      23    H15     21.776703   19.002848   26.912128 H          1 MOL1         0.0959
      24    H16     20.880800   20.512844   27.136207 H          1 MOL1         0.0959
      25    H17     20.132346   18.964786   27.585423 H          1 MOL1         0.0959
      26    N1      18.893785   20.059351   25.345910 N.4        1 MOL1        -0.5987
      27    H18     18.493545   19.985254   24.406475 H          1 MOL1         0.3605
      28    H19     19.001931   21.054152   25.564219 H          1 MOL1         0.3605
      29    H20     18.212862   19.672669   26.005180 H          1 MOL1         0.3605
@<TRIPOS>BOND
    1     1     2    1
    2     1     3    1
    3     1     4    1
    4     1     5    1
    5     5     6    1
    6     5     7    1
    7     5     8    1
    8     8     9    1
    9     8    10    1
   10     8    11    1
   11    11    12    1
   12    11    13    1
   13    11    14    1
   14    14    15    1
   15    14    16    1
   16    14    17    1
   17    17    18    1
   18    17    19    1
   19    17    20    1
   20    20    21    1
   21    20    22    1
   22    22    23    1
   23    22    24    1
   24    22    25    1
   25    20    26    1
   26    26    27    1
   27    26    28    1
   28    26    29    1
@<TRIPOS>SUBSTRUCTURE
       1 MOL1            1 RESIDUE      1      MOL     
@<SCITEGIC>MOL_PROPERTY
VM2 Rank
SciTegic.value.IntegerValue
210

@<SCITEGIC>MOL_PROPERTY
Conf_Id
SciTegic.value.IntegerValue
1346

@<SCITEGIC>MOL_PROPERTY
Probability
SciTegic.value.DoubleValue
0.00

@<SCITEGIC>MOL_PROPERTY
Sum Probability
SciTegic.value.DoubleValue
100.00

@<SCITEGIC>MOL_PROPERTY
Delta G
SciTegic.value.DoubleValue
7.139

@<SCITEGIC>MOL_PROPERTY
G
SciTegic.value.DoubleValue
40.841

@<SCITEGIC>MOL_PROPERTY
E
SciTegic.value.DoubleValue
2.743

@<SCITEGIC>MOL_PROPERTY
-TS
SciTegic.value.DoubleValue
38.098

@<SCITEGIC>MOL_PROPERTY
U+W
SciTegic.value.DoubleValue
-21.401

@<SCITEGIC>MOL_PROPERTY
U
SciTegic.value.DoubleValue
30.662

@<SCITEGIC>MOL_PROPERTY
W
SciTegic.value.DoubleValue
-52.064

@<SCITEGIC>MOL_PROPERTY
W(PB)
SciTegic.value.DoubleValue
-54.500

@<SCITEGIC>MOL_PROPERTY
W(SA)
SciTegic.value.DoubleValue
2.436

@<SCITEGIC>MOL_PROPERTY
Valence
SciTegic.value.DoubleValue
8.199

@<SCITEGIC>MOL_PROPERTY
Coulomb
SciTegic.value.DoubleValue
21.430

@<SCITEGIC>MOL_PROPERTY
VdW
SciTegic.value.DoubleValue
1.034

@<SCITEGIC>MOL_PROPERTY
VdW6
SciTegic.value.DoubleValue
-11.039

@<SCITEGIC>MOL_PROPERTY
VdW12
SciTegic.value.DoubleValue
12.073

@<SCITEGIC>MOL_PROPERTY
Bond
SciTegic.value.DoubleValue
0.331

@<SCITEGIC>MOL_PROPERTY
Angle
SciTegic.value.DoubleValue
2.224

@<SCITEGIC>MOL_PROPERTY
Pdih
SciTegic.value.DoubleValue
5.644

@<SCITEGIC>MOL_PROPERTY
Idih
SciTegic.value.DoubleValue
0.000

@<SCITEGIC>MOL_PROPERTY
Tether
SciTegic.value.DoubleValue
0.000

@<TRIPOS>MOLECULE
guest-s15_vm2.mol2 : vm2 ligand conformer 211
          29          28           1
SMALL
USER_CHARGES
 
@<TRIPOS>ATOM
       1    C1      18.595921   20.104822   20.766200 C.3        1 MOL1        -0.2426
       2    H1      18.111689   19.124579   20.856576 H          1 MOL1         0.0959
       3    H2      18.275790   20.733236   21.606824 H          1 MOL1         0.0959
       4    H3      18.226913   20.568620   19.842286 H          1 MOL1         0.0959
       5    C2      20.133680   19.969645   20.723621 C.3        1 MOL1        -0.1410
       6    H4      20.567058   20.952539   20.491567 H          1 MOL1         0.0948
       7    H5      20.418434   19.308655   19.893131 H          1 MOL1         0.0948
       8    C3      20.765707   19.450844   22.040284 C.3        1 MOL1        -0.1435
       9    H6      21.856311   19.459285   21.907021 H          1 MOL1         0.0948
      10    H7      20.563833   20.159504   22.850164 H          1 MOL1         0.0948
      11    C4      20.342557   18.009305   22.433935 C.3        1 MOL1        -0.1435
      12    H8      21.192589   17.501354   22.909837 H          1 MOL1         0.0948
      13    H9      20.143662   17.437870   21.516833 H          1 MOL1         0.0948
      14    C5      19.109271   17.909490   23.373154 C.3        1 MOL1        -0.1435
      15    H10     18.376255   18.692566   23.148128 H          1 MOL1         0.0948
      16    H11     18.599076   16.960575   23.157763 H          1 MOL1         0.0948
      17    C6      19.458284   17.913823   24.885745 C.3        1 MOL1        -0.1500
      18    H12     20.149727   17.085457   25.089746 H          1 MOL1         0.0948
      19    H13     18.548600   17.696328   25.461105 H          1 MOL1         0.0948
      20    C7      20.077471   19.228918   25.404790 C.3        1 MOL1         0.1162
      21    H14     20.965721   19.451899   24.806825 H          1 MOL1         0.0910
      22    C8      20.514039   19.073664   26.870049 C.3        1 MOL1        -0.2491
      23    H15     19.657833   18.847713   27.517953 H          1 MOL1         0.0959
      24    H16     21.245345   18.262527   26.974852 H          1 MOL1         0.0959
      25    H17     20.984850   19.995007   27.234527 H          1 MOL1         0.0959
      26    N1      19.139071   20.395490   25.256222 N.4        1 MOL1        -0.5987
      27    H18     18.857044   20.522122   24.280493 H          1 MOL1         0.3605
      28    H19     19.573131   21.267989   25.571188 H          1 MOL1         0.3605
      29    H20     18.288339   20.259576   25.809009 H          1 MOL1         0.3605
@<TRIPOS>BOND
    1     1     2    1
    2     1     3    1
    3     1     4    1
    4     1     5    1
    5     5     6    1
    6     5     7    1
    7     5     8    1
    8     8     9    1
    9     8    10    1
   10     8    11    1
   11    11    12    1
   12    11    13    1
   13    11    14    1
   14    14    15    1
   15    14    16    1
   16    14    17    1
   17    17    18    1
   18    17    19    1
   19    17    20    1
   20    20    21    1
   21    20    22    1
   22    22    23    1
   23    22    24    1
   24    22    25    1
   25    20    26    1
   26    26    27    1
   27    26    28    1
   28    26    29    1
@<TRIPOS>SUBSTRUCTURE
       1 MOL1            1 RESIDUE      1      MOL     
@<SCITEGIC>MOL_PROPERTY
VM2 Rank
SciTegic.value.IntegerValue
211

@<SCITEGIC>MOL_PROPERTY
Conf_Id
SciTegic.value.IntegerValue
972

@<SCITEGIC>MOL_PROPERTY
Probability
SciTegic.value.DoubleValue
0.00

@<SCITEGIC>MOL_PROPERTY
Sum Probability
SciTegic.value.DoubleValue
100.00

@<SCITEGIC>MOL_PROPERTY
Delta G
SciTegic.value.DoubleValue
7.297

@<SCITEGIC>MOL_PROPERTY
G
SciTegic.value.DoubleValue
40.999

@<SCITEGIC>MOL_PROPERTY
E
SciTegic.value.DoubleValue
2.642

@<SCITEGIC>MOL_PROPERTY
-TS
SciTegic.value.DoubleValue
38.358

@<SCITEGIC>MOL_PROPERTY
U+W
SciTegic.value.DoubleValue
-21.503

@<SCITEGIC>MOL_PROPERTY
U
SciTegic.value.DoubleValue
30.703

@<SCITEGIC>MOL_PROPERTY
W
SciTegic.value.DoubleValue
-52.205

@<SCITEGIC>MOL_PROPERTY
W(PB)
SciTegic.value.DoubleValue
-54.613

@<SCITEGIC>MOL_PROPERTY
W(SA)
SciTegic.value.DoubleValue
2.408

@<SCITEGIC>MOL_PROPERTY
Valence
SciTegic.value.DoubleValue
8.590

@<SCITEGIC>MOL_PROPERTY
Coulomb
SciTegic.value.DoubleValue
21.433

@<SCITEGIC>MOL_PROPERTY
VdW
SciTegic.value.DoubleValue
0.679

@<SCITEGIC>MOL_PROPERTY
VdW6
SciTegic.value.DoubleValue
-11.711

@<SCITEGIC>MOL_PROPERTY
VdW12
SciTegic.value.DoubleValue
12.390

@<SCITEGIC>MOL_PROPERTY
Bond
SciTegic.value.DoubleValue
0.360

@<SCITEGIC>MOL_PROPERTY
Angle
SciTegic.value.DoubleValue
2.440

@<SCITEGIC>MOL_PROPERTY
Pdih
SciTegic.value.DoubleValue
5.790

@<SCITEGIC>MOL_PROPERTY
Idih
SciTegic.value.DoubleValue
0.000

@<SCITEGIC>MOL_PROPERTY
Tether
SciTegic.value.DoubleValue
0.000

@<TRIPOS>MOLECULE
guest-s15_vm2.mol2 : vm2 ligand conformer 212
          29          28           1
SMALL
USER_CHARGES
 
@<TRIPOS>ATOM
       1    C1      18.247328   19.382078   20.062831 C.3        1 MOL1        -0.2426
       2    H1      17.358422   19.390615   20.707023 H          1 MOL1         0.0959
       3    H2      18.453657   20.414182   19.750695 H          1 MOL1         0.0959
       4    H3      18.006341   18.799990   19.163871 H          1 MOL1         0.0959
       5    C2      19.459525   18.772135   20.797805 C.3        1 MOL1        -0.1410
       6    H4      20.322496   18.744256   20.117806 H          1 MOL1         0.0948
       7    H5      19.235103   17.730830   21.068293 H          1 MOL1         0.0948
       8    C3      19.821015   19.574360   22.066891 C.3        1 MOL1        -0.1435
       9    H6      20.048162   20.612727   21.788087 H          1 MOL1         0.0948
      10    H7      18.949284   19.611910   22.729576 H          1 MOL1         0.0948
      11    C4      21.037219   18.963916   22.804631 C.3        1 MOL1        -0.1435
      12    H8      21.900726   19.004347   22.126137 H          1 MOL1         0.0948
      13    H9      20.875013   17.897867   23.011178 H          1 MOL1         0.0948
      14    C5      21.403149   19.717921   24.108643 C.3        1 MOL1        -0.1435
      15    H10     22.493799   19.851953   24.114308 H          1 MOL1         0.0948
      16    H11     20.995801   20.737541   24.095867 H          1 MOL1         0.0948
      17    C6      21.030942   18.992122   25.434473 C.3        1 MOL1        -0.1500
      18    H12     21.505931   19.549549   26.252389 H          1 MOL1         0.0948
      19    H13     21.499220   17.999229   25.455875 H          1 MOL1         0.0948
      20    C7      19.528307   18.863719   25.792166 C.3        1 MOL1         0.1162
      21    H14     19.481015   18.681048   26.870175 H          1 MOL1         0.0910
      22    C8      18.850692   17.655087   25.121712 C.3        1 MOL1        -0.2491
      23    H15     18.773228   17.766618   24.036922 H          1 MOL1         0.0959
      24    H16     19.407084   16.733008   25.330214 H          1 MOL1         0.0959
      25    H17     17.835253   17.521909   25.514388 H          1 MOL1         0.0959
      26    N1      18.757822   20.134663   25.564849 N.4        1 MOL1        -0.5987
      27    H18     18.767972   20.397839   24.576901 H          1 MOL1         0.3605
      28    H19     19.158812   20.913033   26.096115 H          1 MOL1         0.3605
      29    H20     17.780163   20.037125   25.853726 H          1 MOL1         0.3605
@<TRIPOS>BOND
    1     1     2    1
    2     1     3    1
    3     1     4    1
    4     1     5    1
    5     5     6    1
    6     5     7    1
    7     5     8    1
    8     8     9    1
    9     8    10    1
   10     8    11    1
   11    11    12    1
   12    11    13    1
   13    11    14    1
   14    14    15    1
   15    14    16    1
   16    14    17    1
   17    17    18    1
   18    17    19    1
   19    17    20    1
   20    20    21    1
   21    20    22    1
   22    22    23    1
   23    22    24    1
   24    22    25    1
   25    20    26    1
   26    26    27    1
   27    26    28    1
   28    26    29    1
@<TRIPOS>SUBSTRUCTURE
       1 MOL1            1 RESIDUE      1      MOL     
@<SCITEGIC>MOL_PROPERTY
VM2 Rank
SciTegic.value.IntegerValue
212

@<SCITEGIC>MOL_PROPERTY
Conf_Id
SciTegic.value.IntegerValue
97

@<SCITEGIC>MOL_PROPERTY
Probability
SciTegic.value.DoubleValue
0.00

@<SCITEGIC>MOL_PROPERTY
Sum Probability
SciTegic.value.DoubleValue
100.00

@<SCITEGIC>MOL_PROPERTY
Delta G
SciTegic.value.DoubleValue
7.407

@<SCITEGIC>MOL_PROPERTY
G
SciTegic.value.DoubleValue
41.109

@<SCITEGIC>MOL_PROPERTY
E
SciTegic.value.DoubleValue
2.873

@<SCITEGIC>MOL_PROPERTY
-TS
SciTegic.value.DoubleValue
38.235

@<SCITEGIC>MOL_PROPERTY
U+W
SciTegic.value.DoubleValue
-21.271

@<SCITEGIC>MOL_PROPERTY
U
SciTegic.value.DoubleValue
31.280

@<SCITEGIC>MOL_PROPERTY
W
SciTegic.value.DoubleValue
-52.551

@<SCITEGIC>MOL_PROPERTY
W(PB)
SciTegic.value.DoubleValue
-54.969

@<SCITEGIC>MOL_PROPERTY
W(SA)
SciTegic.value.DoubleValue
2.418

@<SCITEGIC>MOL_PROPERTY
Valence
SciTegic.value.DoubleValue
9.217

@<SCITEGIC>MOL_PROPERTY
Coulomb
SciTegic.value.DoubleValue
21.424

@<SCITEGIC>MOL_PROPERTY
VdW
SciTegic.value.DoubleValue
0.639

@<SCITEGIC>MOL_PROPERTY
VdW6
SciTegic.value.DoubleValue
-11.253

@<SCITEGIC>MOL_PROPERTY
VdW12
SciTegic.value.DoubleValue
11.892

@<SCITEGIC>MOL_PROPERTY
Bond
SciTegic.value.DoubleValue
0.349

@<SCITEGIC>MOL_PROPERTY
Angle
SciTegic.value.DoubleValue
3.017

@<SCITEGIC>MOL_PROPERTY
Pdih
SciTegic.value.DoubleValue
5.851

@<SCITEGIC>MOL_PROPERTY
Idih
SciTegic.value.DoubleValue
0.000

@<SCITEGIC>MOL_PROPERTY
Tether
SciTegic.value.DoubleValue
0.000

@<TRIPOS>MOLECULE
guest-s15_vm2.mol2 : vm2 ligand conformer 213
          29          28           1
SMALL
USER_CHARGES
 
@<TRIPOS>ATOM
       1    C1      19.040692   19.660815   19.781148 C.3        1 MOL1        -0.2426
       2    H1      18.650497   18.643999   19.914153 H          1 MOL1         0.0959
       3    H2      18.340145   20.201415   19.131598 H          1 MOL1         0.0959
       4    H3      20.002482   19.594416   19.256170 H          1 MOL1         0.0959
       5    C2      19.196090   20.389651   21.134807 C.3        1 MOL1        -0.1410
       6    H4      18.224526   20.423540   21.646704 H          1 MOL1         0.0948
       7    H5      19.480172   21.434188   20.944573 H          1 MOL1         0.0948
       8    C3      20.257889   19.745084   22.057832 C.3        1 MOL1        -0.1435
       9    H6      21.231836   19.751640   21.548975 H          1 MOL1         0.0948
      10    H7      20.386780   20.378064   22.943803 H          1 MOL1         0.0948
      11    C4      19.911580   18.291311   22.472174 C.3        1 MOL1        -0.1435
      12    H8      20.033019   17.647542   21.590428 H          1 MOL1         0.0948
      13    H9      18.856526   18.199187   22.761690 H          1 MOL1         0.0948
      14    C5      20.827825   17.746146   23.597400 C.3        1 MOL1        -0.1435
      15    H10     21.025362   16.685684   23.387859 H          1 MOL1         0.0948
      16    H11     21.809209   18.239009   23.558543 H          1 MOL1         0.0948
      17    C6      20.248565   17.831913   25.036316 C.3        1 MOL1        -0.1500
      18    H12     20.968638   17.338233   25.702539 H          1 MOL1         0.0948
      19    H13     19.326246   17.240026   25.104794 H          1 MOL1         0.0948
      20    C7      19.990195   19.262338   25.564058 C.3        1 MOL1         0.1162
      21    H14     20.819748   19.902287   25.248348 H          1 MOL1         0.0910
      22    C8      19.935797   19.266373   27.100510 C.3        1 MOL1        -0.2491
      23    H15     19.767750   20.281568   27.480788 H          1 MOL1         0.0959
      24    H16     19.126808   18.624024   27.470568 H          1 MOL1         0.0959
      25    H17     20.880644   18.905870   27.526032 H          1 MOL1         0.0959
      26    N1      18.727367   19.862368   25.009755 N.4        1 MOL1        -0.5987
      27    H18     17.903744   19.330996   25.305078 H          1 MOL1         0.3605
      28    H19     18.745881   19.865999   23.985417 H          1 MOL1         0.3605
      29    H20     18.600536   20.828064   25.326736 H          1 MOL1         0.3605
@<TRIPOS>BOND
    1     1     2    1
    2     1     3    1
    3     1     4    1
    4     1     5    1
    5     5     6    1
    6     5     7    1
    7     5     8    1
    8     8     9    1
    9     8    10    1
   10     8    11    1
   11    11    12    1
   12    11    13    1
   13    11    14    1
   14    14    15    1
   15    14    16    1
   16    14    17    1
   17    17    18    1
   18    17    19    1
   19    17    20    1
   20    20    21    1
   21    20    22    1
   22    22    23    1
   23    22    24    1
   24    22    25    1
   25    20    26    1
   26    26    27    1
   27    26    28    1
   28    26    29    1
@<TRIPOS>SUBSTRUCTURE
       1 MOL1            1 RESIDUE      1      MOL     
@<SCITEGIC>MOL_PROPERTY
VM2 Rank
SciTegic.value.IntegerValue
213

@<SCITEGIC>MOL_PROPERTY
Conf_Id
SciTegic.value.IntegerValue
549

@<SCITEGIC>MOL_PROPERTY
Probability
SciTegic.value.DoubleValue
0.00

@<SCITEGIC>MOL_PROPERTY
Sum Probability
SciTegic.value.DoubleValue
100.00

@<SCITEGIC>MOL_PROPERTY
Delta G
SciTegic.value.DoubleValue
7.689

@<SCITEGIC>MOL_PROPERTY
G
SciTegic.value.DoubleValue
41.391

@<SCITEGIC>MOL_PROPERTY
E
SciTegic.value.DoubleValue
3.120

@<SCITEGIC>MOL_PROPERTY
-TS
SciTegic.value.DoubleValue
38.271

@<SCITEGIC>MOL_PROPERTY
U+W
SciTegic.value.DoubleValue
-21.025

@<SCITEGIC>MOL_PROPERTY
U
SciTegic.value.DoubleValue
30.361

@<SCITEGIC>MOL_PROPERTY
W
SciTegic.value.DoubleValue
-51.386

@<SCITEGIC>MOL_PROPERTY
W(PB)
SciTegic.value.DoubleValue
-53.825

@<SCITEGIC>MOL_PROPERTY
W(SA)
SciTegic.value.DoubleValue
2.439

@<SCITEGIC>MOL_PROPERTY
Valence
SciTegic.value.DoubleValue
7.956

@<SCITEGIC>MOL_PROPERTY
Coulomb
SciTegic.value.DoubleValue
21.427

@<SCITEGIC>MOL_PROPERTY
VdW
SciTegic.value.DoubleValue
0.978

@<SCITEGIC>MOL_PROPERTY
VdW6
SciTegic.value.DoubleValue
-11.470

@<SCITEGIC>MOL_PROPERTY
VdW12
SciTegic.value.DoubleValue
12.448

@<SCITEGIC>MOL_PROPERTY
Bond
SciTegic.value.DoubleValue
0.321

@<SCITEGIC>MOL_PROPERTY
Angle
SciTegic.value.DoubleValue
2.290

@<SCITEGIC>MOL_PROPERTY
Pdih
SciTegic.value.DoubleValue
5.345

@<SCITEGIC>MOL_PROPERTY
Idih
SciTegic.value.DoubleValue
0.000

@<SCITEGIC>MOL_PROPERTY
Tether
SciTegic.value.DoubleValue
0.000

@<TRIPOS>MOLECULE
guest-s15_vm2.mol2 : vm2 ligand conformer 214
          29          28           1
SMALL
USER_CHARGES
 
@<TRIPOS>ATOM
       1    C1      19.787437   18.327338   20.261455 C.3        1 MOL1        -0.2426
       2    H1      19.614724   18.055973   19.211998 H          1 MOL1         0.0959
       3    H2      20.867972   18.463073   20.387080 H          1 MOL1         0.0959
       4    H3      19.462854   17.484434   20.885197 H          1 MOL1         0.0959
       5    C2      19.016714   19.616633   20.617633 C.3        1 MOL1        -0.1410
       6    H4      17.984012   19.516807   20.255268 H          1 MOL1         0.0948
       7    H5      19.449633   20.465015   20.069506 H          1 MOL1         0.0948
       8    C3      18.970200   19.940322   22.132612 C.3        1 MOL1        -0.1435
       9    H6      18.338153   20.831146   22.251679 H          1 MOL1         0.0948
      10    H7      18.446499   19.137749   22.664828 H          1 MOL1         0.0948
      11    C4      20.348375   20.244730   22.783681 C.3        1 MOL1        -0.1435
      12    H8      20.214461   20.985124   23.581948 H          1 MOL1         0.0948
      13    H9      20.988693   20.747494   22.045872 H          1 MOL1         0.0948
      14    C5      21.114103   19.023353   23.364669 C.3        1 MOL1        -0.1435
      15    H10     21.412110   18.354587   22.549651 H          1 MOL1         0.0948
      16    H11     22.057042   19.387553   23.795287 H          1 MOL1         0.0948
      17    C6      20.382065   18.176888   24.443180 C.3        1 MOL1        -0.1500
      18    H12     21.067197   17.367990   24.729964 H          1 MOL1         0.0948
      19    H13     19.504687   17.674939   24.017177 H          1 MOL1         0.0948
      20    C7      19.983507   18.955885   25.718626 C.3        1 MOL1         0.1162
      21    H14     20.794275   19.647893   25.966124 H          1 MOL1         0.0910
      22    C8      19.794216   17.991543   26.901043 C.3        1 MOL1        -0.2491
      23    H15     19.526562   18.541325   27.811856 H          1 MOL1         0.0959
      24    H16     19.000212   17.262692   26.695326 H          1 MOL1         0.0959
      25    H17     20.719846   17.439894   27.107554 H          1 MOL1         0.0959
      26    N1      18.739383   19.779306   25.531101 N.4        1 MOL1        -0.5987
      27    H18     18.542416   20.354221   26.355486 H          1 MOL1         0.3605
      28    H19     17.922749   19.184065   25.369481 H          1 MOL1         0.3605
      29    H20     18.830123   20.404546   24.726138 H          1 MOL1         0.3605
@<TRIPOS>BOND
    1     1     2    1
    2     1     3    1
    3     1     4    1
    4     1     5    1
    5     5     6    1
    6     5     7    1
    7     5     8    1
    8     8     9    1
    9     8    10    1
   10     8    11    1
   11    11    12    1
   12    11    13    1
   13    11    14    1
   14    14    15    1
   15    14    16    1
   16    14    17    1
   17    17    18    1
   18    17    19    1
   19    17    20    1
   20    20    21    1
   21    20    22    1
   22    22    23    1
   23    22    24    1
   24    22    25    1
   25    20    26    1
   26    26    27    1
   27    26    28    1
   28    26    29    1
@<TRIPOS>SUBSTRUCTURE
       1 MOL1            1 RESIDUE      1      MOL     
@<SCITEGIC>MOL_PROPERTY
VM2 Rank
SciTegic.value.IntegerValue
214

@<SCITEGIC>MOL_PROPERTY
Conf_Id
SciTegic.value.IntegerValue
1018

@<SCITEGIC>MOL_PROPERTY
Probability
SciTegic.value.DoubleValue
0.00

@<SCITEGIC>MOL_PROPERTY
Sum Probability
SciTegic.value.DoubleValue
100.00

@<SCITEGIC>MOL_PROPERTY
Delta G
SciTegic.value.DoubleValue
7.736

@<SCITEGIC>MOL_PROPERTY
G
SciTegic.value.DoubleValue
41.438

@<SCITEGIC>MOL_PROPERTY
E
SciTegic.value.DoubleValue
3.267

@<SCITEGIC>MOL_PROPERTY
-TS
SciTegic.value.DoubleValue
38.171

@<SCITEGIC>MOL_PROPERTY
U+W
SciTegic.value.DoubleValue
-20.878

@<SCITEGIC>MOL_PROPERTY
U
SciTegic.value.DoubleValue
31.242

@<SCITEGIC>MOL_PROPERTY
W
SciTegic.value.DoubleValue
-52.120

@<SCITEGIC>MOL_PROPERTY
W(PB)
SciTegic.value.DoubleValue
-54.504

@<SCITEGIC>MOL_PROPERTY
W(SA)
SciTegic.value.DoubleValue
2.384

@<SCITEGIC>MOL_PROPERTY
Valence
SciTegic.value.DoubleValue
8.665

@<SCITEGIC>MOL_PROPERTY
Coulomb
SciTegic.value.DoubleValue
21.669

@<SCITEGIC>MOL_PROPERTY
VdW
SciTegic.value.DoubleValue
0.908

@<SCITEGIC>MOL_PROPERTY
VdW6
SciTegic.value.DoubleValue
-12.026

@<SCITEGIC>MOL_PROPERTY
VdW12
SciTegic.value.DoubleValue
12.934

@<SCITEGIC>MOL_PROPERTY
Bond
SciTegic.value.DoubleValue
0.415

@<SCITEGIC>MOL_PROPERTY
Angle
SciTegic.value.DoubleValue
3.382

@<SCITEGIC>MOL_PROPERTY
Pdih
SciTegic.value.DoubleValue
4.867

@<SCITEGIC>MOL_PROPERTY
Idih
SciTegic.value.DoubleValue
0.000

@<SCITEGIC>MOL_PROPERTY
Tether
SciTegic.value.DoubleValue
0.000

@<TRIPOS>MOLECULE
guest-s15_vm2.mol2 : vm2 ligand conformer 215
          29          28           1
SMALL
USER_CHARGES
 
@<TRIPOS>ATOM
       1    C1      18.174214   19.326892   20.125000 C.3        1 MOL1        -0.2426
       2    H1      17.907084   20.027975   19.323633 H          1 MOL1         0.0959
       3    H2      18.369078   18.348925   19.665775 H          1 MOL1         0.0959
       4    H3      17.305075   19.226230   20.788070 H          1 MOL1         0.0959
       5    C2      19.409460   19.831273   20.900390 C.3        1 MOL1        -0.1410
       6    H4      19.195732   20.824904   21.318353 H          1 MOL1         0.0948
       7    H5      20.251167   19.955336   20.204561 H          1 MOL1         0.0948
       8    C3      19.808661   18.859640   22.032394 C.3        1 MOL1        -0.1435
       9    H6      18.955455   18.714785   22.703837 H          1 MOL1         0.0948
      10    H7      20.031012   17.873078   21.602335 H          1 MOL1         0.0948
      11    C4      21.047304   19.363808   22.812457 C.3        1 MOL1        -0.1435
      12    H8      20.910825   20.403558   23.137799 H          1 MOL1         0.0948
      13    H9      21.898061   19.384534   22.117042 H          1 MOL1         0.0948
      14    C5      21.422948   18.463763   24.018914 C.3        1 MOL1        -0.1435
      15    H10     21.013794   17.452673   23.892639 H          1 MOL1         0.0948
      16    H11     22.513613   18.330919   24.004324 H          1 MOL1         0.0948
      17    C6      21.054928   19.038653   25.417661 C.3        1 MOL1        -0.1500
      18    H12     21.523072   20.024494   25.537102 H          1 MOL1         0.0948
      19    H13     21.526637   18.401234   26.177148 H          1 MOL1         0.0948
      20    C7      19.551927   19.151479   25.774144 C.3        1 MOL1         0.1162
      21    H14     19.497057   19.469967   26.819725 H          1 MOL1         0.0910
      22    C8      18.826171   17.797973   25.676895 C.3        1 MOL1        -0.2491
      23    H15     18.777070   17.430451   24.646229 H          1 MOL1         0.0959
      24    H16     19.337353   17.040838   26.284285 H          1 MOL1         0.0959
      25    H17     17.799015   17.885342   26.051590 H          1 MOL1         0.0959
      26    N1      18.840387   20.222519   24.996144 N.4        1 MOL1        -0.5987
      27    H18     18.903754   20.044687   23.990420 H          1 MOL1         0.3605
      28    H19     19.249873   21.144520   25.172688 H          1 MOL1         0.3605
      29    H20     17.849049   20.273614   25.248298 H          1 MOL1         0.3605
@<TRIPOS>BOND
    1     1     2    1
    2     1     3    1
    3     1     4    1
    4     1     5    1
    5     5     6    1
    6     5     7    1
    7     5     8    1
    8     8     9    1
    9     8    10    1
   10     8    11    1
   11    11    12    1
   12    11    13    1
   13    11    14    1
   14    14    15    1
   15    14    16    1
   16    14    17    1
   17    17    18    1
   18    17    19    1
   19    17    20    1
   20    20    21    1
   21    20    22    1
   22    22    23    1
   23    22    24    1
   24    22    25    1
   25    20    26    1
   26    26    27    1
   27    26    28    1
   28    26    29    1
@<TRIPOS>SUBSTRUCTURE
       1 MOL1            1 RESIDUE      1      MOL     
@<SCITEGIC>MOL_PROPERTY
VM2 Rank
SciTegic.value.IntegerValue
215

@<SCITEGIC>MOL_PROPERTY
Conf_Id
SciTegic.value.IntegerValue
954

@<SCITEGIC>MOL_PROPERTY
Probability
SciTegic.value.DoubleValue
0.00

@<SCITEGIC>MOL_PROPERTY
Sum Probability
SciTegic.value.DoubleValue
100.00

@<SCITEGIC>MOL_PROPERTY
Delta G
SciTegic.value.DoubleValue
7.849

@<SCITEGIC>MOL_PROPERTY
G
SciTegic.value.DoubleValue
41.551

@<SCITEGIC>MOL_PROPERTY
E
SciTegic.value.DoubleValue
3.005

@<SCITEGIC>MOL_PROPERTY
-TS
SciTegic.value.DoubleValue
38.546

@<SCITEGIC>MOL_PROPERTY
U+W
SciTegic.value.DoubleValue
-21.140

@<SCITEGIC>MOL_PROPERTY
U
SciTegic.value.DoubleValue
30.268

@<SCITEGIC>MOL_PROPERTY
W
SciTegic.value.DoubleValue
-51.408

@<SCITEGIC>MOL_PROPERTY
W(PB)
SciTegic.value.DoubleValue
-53.817

@<SCITEGIC>MOL_PROPERTY
W(SA)
SciTegic.value.DoubleValue
2.410

@<SCITEGIC>MOL_PROPERTY
Valence
SciTegic.value.DoubleValue
8.045

@<SCITEGIC>MOL_PROPERTY
Coulomb
SciTegic.value.DoubleValue
21.611

@<SCITEGIC>MOL_PROPERTY
VdW
SciTegic.value.DoubleValue
0.612

@<SCITEGIC>MOL_PROPERTY
VdW6
SciTegic.value.DoubleValue
-11.609

@<SCITEGIC>MOL_PROPERTY
VdW12
SciTegic.value.DoubleValue
12.221

@<SCITEGIC>MOL_PROPERTY
Bond
SciTegic.value.DoubleValue
0.344

@<SCITEGIC>MOL_PROPERTY
Angle
SciTegic.value.DoubleValue
2.670

@<SCITEGIC>MOL_PROPERTY
Pdih
SciTegic.value.DoubleValue
5.031

@<SCITEGIC>MOL_PROPERTY
Idih
SciTegic.value.DoubleValue
0.000

@<SCITEGIC>MOL_PROPERTY
Tether
SciTegic.value.DoubleValue
0.000

@<TRIPOS>MOLECULE
guest-s15_vm2.mol2 : vm2 ligand conformer 216
          29          28           1
SMALL
USER_CHARGES
 
@<TRIPOS>ATOM
       1    C1      19.953892   20.323462   20.030372 C.3        1 MOL1        -0.2426
       2    H1      20.659833   20.426805   19.196195 H          1 MOL1         0.0959
       3    H2      18.998220   20.761337   19.714076 H          1 MOL1         0.0959
       4    H3      20.336038   20.919508   20.866725 H          1 MOL1         0.0959
       5    C2      19.778232   18.834678   20.410158 C.3        1 MOL1        -0.1410
       6    H4      20.752674   18.380449   20.637538 H          1 MOL1         0.0948
       7    H5      19.395809   18.302146   19.528100 H          1 MOL1         0.0948
       8    C3      18.792725   18.617378   21.587173 C.3        1 MOL1        -0.1435
       9    H6      18.071148   19.444450   21.636713 H          1 MOL1         0.0948
      10    H7      18.197224   17.719205   21.372519 H          1 MOL1         0.0948
      11    C4      19.463117   18.412803   22.970414 C.3        1 MOL1        -0.1435
      12    H8      20.101015   17.518854   22.938670 H          1 MOL1         0.0948
      13    H9      18.663769   18.202588   23.689505 H          1 MOL1         0.0948
      14    C5      20.293277   19.623858   23.460194 C.3        1 MOL1        -0.1435
      15    H10     21.073061   19.838616   22.719230 H          1 MOL1         0.0948
      16    H11     19.657504   20.518403   23.497755 H          1 MOL1         0.0948
      17    C6      21.011983   19.420152   24.824635 C.3        1 MOL1        -0.1500
      18    H12     21.601457   20.325753   25.018715 H          1 MOL1         0.0948
      19    H13     21.749694   18.611893   24.734339 H          1 MOL1         0.0948
      20    C7      20.125434   19.177567   26.073879 C.3        1 MOL1         0.1162
      21    H14     20.689375   19.550045   26.934666 H          1 MOL1         0.0910
      22    C8      19.873697   17.681429   26.338809 C.3        1 MOL1        -0.2491
      23    H15     19.332675   17.546761   27.283438 H          1 MOL1         0.0959
      24    H16     19.285224   17.207342   25.547912 H          1 MOL1         0.0959
      25    H17     20.823158   17.138737   26.425088 H          1 MOL1         0.0959
      26    N1      18.843643   19.964674   26.058366 N.4        1 MOL1        -0.5987
      27    H18     19.024581   20.969187   25.975700 H          1 MOL1         0.3605
      28    H19     18.303135   19.819111   26.915863 H          1 MOL1         0.3605
      29    H20     18.254419   19.691709   25.267888 H          1 MOL1         0.3605
@<TRIPOS>BOND
    1     1     2    1
    2     1     3    1
    3     1     4    1
    4     1     5    1
    5     5     6    1
    6     5     7    1
    7     5     8    1
    8     8     9    1
    9     8    10    1
   10     8    11    1
   11    11    12    1
   12    11    13    1
   13    11    14    1
   14    14    15    1
   15    14    16    1
   16    14    17    1
   17    17    18    1
   18    17    19    1
   19    17    20    1
   20    20    21    1
   21    20    22    1
   22    22    23    1
   23    22    24    1
   24    22    25    1
   25    20    26    1
   26    26    27    1
   27    26    28    1
   28    26    29    1
@<TRIPOS>SUBSTRUCTURE
       1 MOL1            1 RESIDUE      1      MOL     
@<SCITEGIC>MOL_PROPERTY
VM2 Rank
SciTegic.value.IntegerValue
216

@<SCITEGIC>MOL_PROPERTY
Conf_Id
SciTegic.value.IntegerValue
105

@<SCITEGIC>MOL_PROPERTY
Probability
SciTegic.value.DoubleValue
0.00

@<SCITEGIC>MOL_PROPERTY
Sum Probability
SciTegic.value.DoubleValue
100.00

@<SCITEGIC>MOL_PROPERTY
Delta G
SciTegic.value.DoubleValue
7.858

@<SCITEGIC>MOL_PROPERTY
G
SciTegic.value.DoubleValue
41.560

@<SCITEGIC>MOL_PROPERTY
E
SciTegic.value.DoubleValue
3.396

@<SCITEGIC>MOL_PROPERTY
-TS
SciTegic.value.DoubleValue
38.164

@<SCITEGIC>MOL_PROPERTY
U+W
SciTegic.value.DoubleValue
-20.748

@<SCITEGIC>MOL_PROPERTY
U
SciTegic.value.DoubleValue
31.582

@<SCITEGIC>MOL_PROPERTY
W
SciTegic.value.DoubleValue
-52.331

@<SCITEGIC>MOL_PROPERTY
W(PB)
SciTegic.value.DoubleValue
-54.756

@<SCITEGIC>MOL_PROPERTY
W(SA)
SciTegic.value.DoubleValue
2.425

@<SCITEGIC>MOL_PROPERTY
Valence
SciTegic.value.DoubleValue
9.578

@<SCITEGIC>MOL_PROPERTY
Coulomb
SciTegic.value.DoubleValue
20.656

@<SCITEGIC>MOL_PROPERTY
VdW
SciTegic.value.DoubleValue
1.349

@<SCITEGIC>MOL_PROPERTY
VdW6
SciTegic.value.DoubleValue
-11.327

@<SCITEGIC>MOL_PROPERTY
VdW12
SciTegic.value.DoubleValue
12.676

@<SCITEGIC>MOL_PROPERTY
Bond
SciTegic.value.DoubleValue
0.393

@<SCITEGIC>MOL_PROPERTY
Angle
SciTegic.value.DoubleValue
3.220

@<SCITEGIC>MOL_PROPERTY
Pdih
SciTegic.value.DoubleValue
5.965

@<SCITEGIC>MOL_PROPERTY
Idih
SciTegic.value.DoubleValue
0.000

@<SCITEGIC>MOL_PROPERTY
Tether
SciTegic.value.DoubleValue
0.000

@<TRIPOS>MOLECULE
guest-s15_vm2.mol2 : vm2 ligand conformer 217
          29          28           1
SMALL
USER_CHARGES
 
@<TRIPOS>ATOM
       1    C1      18.764152   18.046872   20.675779 C.3        1 MOL1        -0.2426
       2    H1      18.427011   17.768746   19.668860 H          1 MOL1         0.0959
       3    H2      19.581297   17.367934   20.948563 H          1 MOL1         0.0959
       4    H3      17.928647   17.876653   21.366872 H          1 MOL1         0.0959
       5    C2      19.217065   19.524287   20.704003 C.3        1 MOL1        -0.1410
       6    H4      18.397670   20.151461   20.325856 H          1 MOL1         0.0948
       7    H5      20.058042   19.667301   20.011171 H          1 MOL1         0.0948
       8    C3      19.611116   20.019975   22.115977 C.3        1 MOL1        -0.1435
       9    H6      19.778662   21.104777   22.065879 H          1 MOL1         0.0948
      10    H7      18.766705   19.872547   22.798446 H          1 MOL1         0.0948
      11    C4      20.891115   19.342395   22.669395 C.3        1 MOL1        -0.1435
      12    H8      21.705524   19.524190   21.954520 H          1 MOL1         0.0948
      13    H9      20.778621   18.252443   22.716227 H          1 MOL1         0.0948
      14    C5      21.325003   19.892670   24.052479 C.3        1 MOL1        -0.1435
      15    H10     22.409975   20.061928   24.011373 H          1 MOL1         0.0948
      16    H11     20.893658   20.886787   24.229274 H          1 MOL1         0.0948
      17    C6      21.061310   18.954597   25.266438 C.3        1 MOL1        -0.1500
      18    H12     21.572296   19.395557   26.132324 H          1 MOL1         0.0948
      19    H13     21.558556   17.989505   25.102361 H          1 MOL1         0.0948
      20    C7      19.589527   18.714216   25.688360 C.3        1 MOL1         0.1162
      21    H14     19.616048   18.375086   26.728547 H          1 MOL1         0.0910
      22    C8      18.911097   17.589183   24.886618 C.3        1 MOL1        -0.2491
      23    H15     18.769313   17.852704   23.835485 H          1 MOL1         0.0959
      24    H16     19.506218   16.668706   24.929190 H          1 MOL1         0.0959
      25    H17     17.924224   17.362414   25.308141 H          1 MOL1         0.0959
      26    N1      18.765615   19.971805   25.694951 N.4        1 MOL1        -0.5987
      27    H18     19.173250   20.680468   26.311803 H          1 MOL1         0.3605
      28    H19     17.811235   19.793259   26.020580 H          1 MOL1         0.3605
      29    H20     18.706986   20.375678   24.757442 H          1 MOL1         0.3605
@<TRIPOS>BOND
    1     1     2    1
    2     1     3    1
    3     1     4    1
    4     1     5    1
    5     5     6    1
    6     5     7    1
    7     5     8    1
    8     8     9    1
    9     8    10    1
   10     8    11    1
   11    11    12    1
   12    11    13    1
   13    11    14    1
   14    14    15    1
   15    14    16    1
   16    14    17    1
   17    17    18    1
   18    17    19    1
   19    17    20    1
   20    20    21    1
   21    20    22    1
   22    22    23    1
   23    22    24    1
   24    22    25    1
   25    20    26    1
   26    26    27    1
   27    26    28    1
   28    26    29    1
@<TRIPOS>SUBSTRUCTURE
       1 MOL1            1 RESIDUE      1      MOL     
@<SCITEGIC>MOL_PROPERTY
VM2 Rank
SciTegic.value.IntegerValue
217

@<SCITEGIC>MOL_PROPERTY
Conf_Id
SciTegic.value.IntegerValue
682

@<SCITEGIC>MOL_PROPERTY
Probability
SciTegic.value.DoubleValue
0.00

@<SCITEGIC>MOL_PROPERTY
Sum Probability
SciTegic.value.DoubleValue
100.00

@<SCITEGIC>MOL_PROPERTY
Delta G
SciTegic.value.DoubleValue
8.133

@<SCITEGIC>MOL_PROPERTY
G
SciTegic.value.DoubleValue
41.835

@<SCITEGIC>MOL_PROPERTY
E
SciTegic.value.DoubleValue
3.358

@<SCITEGIC>MOL_PROPERTY
-TS
SciTegic.value.DoubleValue
38.477

@<SCITEGIC>MOL_PROPERTY
U+W
SciTegic.value.DoubleValue
-20.787

@<SCITEGIC>MOL_PROPERTY
U
SciTegic.value.DoubleValue
31.790

@<SCITEGIC>MOL_PROPERTY
W
SciTegic.value.DoubleValue
-52.577

@<SCITEGIC>MOL_PROPERTY
W(PB)
SciTegic.value.DoubleValue
-54.949

@<SCITEGIC>MOL_PROPERTY
W(SA)
SciTegic.value.DoubleValue
2.373

@<SCITEGIC>MOL_PROPERTY
Valence
SciTegic.value.DoubleValue
9.763

@<SCITEGIC>MOL_PROPERTY
Coulomb
SciTegic.value.DoubleValue
21.416

@<SCITEGIC>MOL_PROPERTY
VdW
SciTegic.value.DoubleValue
0.611

@<SCITEGIC>MOL_PROPERTY
VdW6
SciTegic.value.DoubleValue
-12.189

@<SCITEGIC>MOL_PROPERTY
VdW12
SciTegic.value.DoubleValue
12.800

@<SCITEGIC>MOL_PROPERTY
Bond
SciTegic.value.DoubleValue
0.394

@<SCITEGIC>MOL_PROPERTY
Angle
SciTegic.value.DoubleValue
3.287

@<SCITEGIC>MOL_PROPERTY
Pdih
SciTegic.value.DoubleValue
6.083

@<SCITEGIC>MOL_PROPERTY
Idih
SciTegic.value.DoubleValue
0.000

@<SCITEGIC>MOL_PROPERTY
Tether
SciTegic.value.DoubleValue
0.000

@<TRIPOS>MOLECULE
guest-s15_vm2.mol2 : vm2 ligand conformer 218
          29          28           1
SMALL
USER_CHARGES
 
@<TRIPOS>ATOM
       1    C1      18.096099   19.864961   21.114921 C.3        1 MOL1        -0.2426
       2    H1      17.038562   19.573045   21.077225 H          1 MOL1         0.0959
       3    H2      18.190109   20.670222   21.852184 H          1 MOL1         0.0959
       4    H3      18.363745   20.272559   20.131399 H          1 MOL1         0.0959
       5    C2      18.980655   18.646390   21.466120 C.3        1 MOL1        -0.1410
       6    H4      18.776321   17.851066   20.735735 H          1 MOL1         0.0948
       7    H5      18.684252   18.238716   22.438040 H          1 MOL1         0.0948
       8    C3      20.499431   18.956659   21.433648 C.3        1 MOL1        -0.1435
       9    H6      21.065958   18.017005   21.488619 H          1 MOL1         0.0948
      10    H7      20.735517   19.381422   20.448158 H          1 MOL1         0.0948
      11    C4      21.011700   19.934214   22.527319 C.3        1 MOL1        -0.1435
      12    H8      20.249870   20.671729   22.794021 H          1 MOL1         0.0948
      13    H9      21.821444   20.527184   22.079909 H          1 MOL1         0.0948
      14    C5      21.607950   19.251670   23.789547 C.3        1 MOL1        -0.1435
      15    H10     22.466430   18.646245   23.467294 H          1 MOL1         0.0948
      16    H11     22.028611   20.024246   24.447937 H          1 MOL1         0.0948
      17    C6      20.667274   18.339769   24.623226 C.3        1 MOL1        -0.1500
      18    H12     21.309122   17.733167   25.275912 H          1 MOL1         0.0948
      19    H13     20.150071   17.618410   23.981474 H          1 MOL1         0.0948
      20    C7      19.664396   19.090523   25.531493 C.3        1 MOL1         0.1162
      21    H14     20.224696   19.817422   26.127435 H          1 MOL1         0.0910
      22    C8      18.982522   18.105283   26.494596 C.3        1 MOL1        -0.2491
      23    H15     18.296853   18.632776   27.169178 H          1 MOL1         0.0959
      24    H16     18.407954   17.348042   25.946521 H          1 MOL1         0.0959
      25    H17     19.724906   17.587938   27.115028 H          1 MOL1         0.0959
      26    N1      18.625974   19.866531   24.773129 N.4        1 MOL1        -0.5987
      27    H18     18.001386   20.372902   25.407567 H          1 MOL1         0.3605
      28    H19     18.049085   19.249852   24.195535 H          1 MOL1         0.3605
      29    H20     19.063249   20.553141   24.154466 H          1 MOL1         0.3605
@<TRIPOS>BOND
    1     1     2    1
    2     1     3    1
    3     1     4    1
    4     1     5    1
    5     5     6    1
    6     5     7    1
    7     5     8    1
    8     8     9    1
    9     8    10    1
   10     8    11    1
   11    11    12    1
   12    11    13    1
   13    11    14    1
   14    14    15    1
   15    14    16    1
   16    14    17    1
   17    17    18    1
   18    17    19    1
   19    17    20    1
   20    20    21    1
   21    20    22    1
   22    22    23    1
   23    22    24    1
   24    22    25    1
   25    20    26    1
   26    26    27    1
   27    26    28    1
   28    26    29    1
@<TRIPOS>SUBSTRUCTURE
       1 MOL1            1 RESIDUE      1      MOL     
@<SCITEGIC>MOL_PROPERTY
VM2 Rank
SciTegic.value.IntegerValue
218

@<SCITEGIC>MOL_PROPERTY
Conf_Id
SciTegic.value.IntegerValue
982

@<SCITEGIC>MOL_PROPERTY
Probability
SciTegic.value.DoubleValue
0.00

@<SCITEGIC>MOL_PROPERTY
Sum Probability
SciTegic.value.DoubleValue
100.00

@<SCITEGIC>MOL_PROPERTY
Delta G
SciTegic.value.DoubleValue
9.172

@<SCITEGIC>MOL_PROPERTY
G
SciTegic.value.DoubleValue
42.874

@<SCITEGIC>MOL_PROPERTY
E
SciTegic.value.DoubleValue
4.509

@<SCITEGIC>MOL_PROPERTY
-TS
SciTegic.value.DoubleValue
38.365

@<SCITEGIC>MOL_PROPERTY
U+W
SciTegic.value.DoubleValue
-19.635

@<SCITEGIC>MOL_PROPERTY
U
SciTegic.value.DoubleValue
31.754

@<SCITEGIC>MOL_PROPERTY
W
SciTegic.value.DoubleValue
-51.390

@<SCITEGIC>MOL_PROPERTY
W(PB)
SciTegic.value.DoubleValue
-53.731

@<SCITEGIC>MOL_PROPERTY
W(SA)
SciTegic.value.DoubleValue
2.341

@<SCITEGIC>MOL_PROPERTY
Valence
SciTegic.value.DoubleValue
9.082

@<SCITEGIC>MOL_PROPERTY
Coulomb
SciTegic.value.DoubleValue
22.210

@<SCITEGIC>MOL_PROPERTY
VdW
SciTegic.value.DoubleValue
0.463

@<SCITEGIC>MOL_PROPERTY
VdW6
SciTegic.value.DoubleValue
-12.280

@<SCITEGIC>MOL_PROPERTY
VdW12
SciTegic.value.DoubleValue
12.742

@<SCITEGIC>MOL_PROPERTY
Bond
SciTegic.value.DoubleValue
0.434

@<SCITEGIC>MOL_PROPERTY
Angle
SciTegic.value.DoubleValue
3.629

@<SCITEGIC>MOL_PROPERTY
Pdih
SciTegic.value.DoubleValue
5.018

@<SCITEGIC>MOL_PROPERTY
Idih
SciTegic.value.DoubleValue
0.000

@<SCITEGIC>MOL_PROPERTY
Tether
SciTegic.value.DoubleValue
0.000

@<TRIPOS>MOLECULE
guest-s15_vm2.mol2 : vm2 ligand conformer 219
          29          28           1
SMALL
USER_CHARGES
 
@<TRIPOS>ATOM
       1    C1      20.753047   19.664209   20.366508 C.3        1 MOL1        -0.2426
       2    H1      20.905903   18.582422   20.466887 H          1 MOL1         0.0959
       3    H2      20.995155   19.936802   19.331179 H          1 MOL1         0.0959
       4    H3      21.465292   20.178933   21.024180 H          1 MOL1         0.0959
       5    C2      19.298736   20.060550   20.703441 C.3        1 MOL1        -0.1410
       6    H4      18.609116   19.515671   20.043686 H          1 MOL1         0.0948
       7    H5      19.161525   21.126403   20.473503 H          1 MOL1         0.0948
       8    C3      18.904560   19.818580   22.182497 C.3        1 MOL1        -0.1435
       9    H6      19.547746   20.425507   22.832865 H          1 MOL1         0.0948
      10    H7      17.883060   20.199946   22.318254 H          1 MOL1         0.0948
      11    C4      18.932994   18.325813   22.612015 C.3        1 MOL1        -0.1435
      12    H8      18.737303   17.701592   21.729120 H          1 MOL1         0.0948
      13    H9      18.100901   18.113253   23.296396 H          1 MOL1         0.0948
      14    C5      20.266379   17.874140   23.266237 C.3        1 MOL1        -0.1435
      15    H10     20.461969   16.839970   22.950874 H          1 MOL1         0.0948
      16    H11     21.106909   18.463031   22.877635 H          1 MOL1         0.0948
      17    C6      20.292359   17.897786   24.818914 C.3        1 MOL1        -0.1500
      18    H12     21.242691   17.444725   25.131439 H          1 MOL1         0.0948
      19    H13     19.505501   17.244931   25.219271 H          1 MOL1         0.0948
      20    C7      20.185262   19.301703   25.457868 C.3        1 MOL1         0.1162
      21    H14     20.797926   19.994622   24.873132 H          1 MOL1         0.0910
      22    C8      20.723287   19.279205   26.897877 C.3        1 MOL1        -0.2491
      23    H15     20.150165   18.584484   27.524697 H          1 MOL1         0.0959
      24    H16     21.775469   18.968889   26.917233 H          1 MOL1         0.0959
      25    H17     20.664137   20.276770   27.350467 H          1 MOL1         0.0959
      26    N1      18.779377   19.834013   25.448642 N.4        1 MOL1        -0.5987
      27    H18     18.402740   19.848082   24.496681 H          1 MOL1         0.3605
      28    H19     18.736538   20.787767   25.819491 H          1 MOL1         0.3605
      29    H20     18.159411   19.253508   26.020008 H          1 MOL1         0.3605
@<TRIPOS>BOND
    1     1     2    1
    2     1     3    1
    3     1     4    1
    4     1     5    1
    5     5     6    1
    6     5     7    1
    7     5     8    1
    8     8     9    1
    9     8    10    1
   10     8    11    1
   11    11    12    1
   12    11    13    1
   13    11    14    1
   14    14    15    1
   15    14    16    1
   16    14    17    1
   17    17    18    1
   18    17    19    1
   19    17    20    1
   20    20    21    1
   21    20    22    1
   22    22    23    1
   23    22    24    1
   24    22    25    1
   25    20    26    1
   26    26    27    1
   27    26    28    1
   28    26    29    1
@<TRIPOS>SUBSTRUCTURE
       1 MOL1            1 RESIDUE      1      MOL     
@<SCITEGIC>MOL_PROPERTY
VM2 Rank
SciTegic.value.IntegerValue
219

@<SCITEGIC>MOL_PROPERTY
Conf_Id
SciTegic.value.IntegerValue
700

@<SCITEGIC>MOL_PROPERTY
Probability
SciTegic.value.DoubleValue
0.00

@<SCITEGIC>MOL_PROPERTY
Sum Probability
SciTegic.value.DoubleValue
100.00

@<SCITEGIC>MOL_PROPERTY
Delta G
SciTegic.value.DoubleValue
9.373

@<SCITEGIC>MOL_PROPERTY
G
SciTegic.value.DoubleValue
43.075

@<SCITEGIC>MOL_PROPERTY
E
SciTegic.value.DoubleValue
4.609

@<SCITEGIC>MOL_PROPERTY
-TS
SciTegic.value.DoubleValue
38.467

@<SCITEGIC>MOL_PROPERTY
U+W
SciTegic.value.DoubleValue
-19.536

@<SCITEGIC>MOL_PROPERTY
U
SciTegic.value.DoubleValue
32.302

@<SCITEGIC>MOL_PROPERTY
W
SciTegic.value.DoubleValue
-51.838

@<SCITEGIC>MOL_PROPERTY
W(PB)
SciTegic.value.DoubleValue
-54.236

@<SCITEGIC>MOL_PROPERTY
W(SA)
SciTegic.value.DoubleValue
2.398

@<SCITEGIC>MOL_PROPERTY
Valence
SciTegic.value.DoubleValue
9.851

@<SCITEGIC>MOL_PROPERTY
Coulomb
SciTegic.value.DoubleValue
21.477

@<SCITEGIC>MOL_PROPERTY
VdW
SciTegic.value.DoubleValue
0.974

@<SCITEGIC>MOL_PROPERTY
VdW6
SciTegic.value.DoubleValue
-12.184

@<SCITEGIC>MOL_PROPERTY
VdW12
SciTegic.value.DoubleValue
13.159

@<SCITEGIC>MOL_PROPERTY
Bond
SciTegic.value.DoubleValue
0.376

@<SCITEGIC>MOL_PROPERTY
Angle
SciTegic.value.DoubleValue
2.508

@<SCITEGIC>MOL_PROPERTY
Pdih
SciTegic.value.DoubleValue
6.967

@<SCITEGIC>MOL_PROPERTY
Idih
SciTegic.value.DoubleValue
0.000

@<SCITEGIC>MOL_PROPERTY
Tether
SciTegic.value.DoubleValue
0.000

