VeraChem MOL file


 29 28  0  0  0  0  0  0  0  0999 V2000     
   19.5306   19.9313   18.7439 C   0  0  0  0  0  0  0  0  0  0  0  0
   20.3586   20.6519   18.7240 H   0  0  0  0  0  0  0  0  0  0  0  0
   19.5232   19.3997   17.7835 H   0  0  0  0  0  0  0  0  0  0  0  0
   18.5906   20.4925   18.8259 H   0  0  0  0  0  0  0  0  0  0  0  0
   19.6877   18.9384   19.9150 C   0  0  0  0  0  0  0  0  0  0  0  0
   20.6190   18.3689   19.7877 H   0  0  0  0  0  0  0  0  0  0  0  0
   18.8646   18.2106   19.8888 H   0  0  0  0  0  0  0  0  0  0  0  0
   19.7011   19.6615   21.2799 C   0  0  0  0  0  0  0  0  0  0  0  0
   20.5239   20.3896   21.3005 H   0  0  0  0  0  0  0  0  0  0  0  0
   18.7694   20.2312   21.4015 H   0  0  0  0  0  0  0  0  0  0  0  0
   19.8584   18.6705   22.4551 C   0  0  0  0  0  0  0  0  0  0  0  0
   20.7897   18.1006   22.3314 H   0  0  0  0  0  0  0  0  0  0  0  0
   19.0351   17.9429   22.4339 H   0  0  0  0  0  0  0  0  0  0  0  0
   19.8724   19.3943   23.8204 C   0  0  0  0  0  0  0  0  0  0  0  0
   20.6981   20.1192   23.8421 H   0  0  0  0  0  0  0  0  0  0  0  0
   18.9418   19.9662   23.9337 H   0  0  0  0  0  0  0  0  0  0  0  0
   20.0289   18.3991   24.9958 C   0  0  0  0  0  0  0  0  0  0  0  0
   20.9354   17.8003   24.8354 H   0  0  0  0  0  0  0  0  0  0  0  0
   19.1855   17.6957   25.0018 H   0  0  0  0  0  0  0  0  0  0  0  0
   20.1314   19.0989   26.3682 C   0  0  2  0  0  0  0  0  0  0  0  0
   20.9619   19.8106   26.3292 H   0  0  0  0  0  0  0  0  0  0  0  0
   20.4281   18.0708   27.4715 C   0  0  0  0  0  0  0  0  0  0  0  0
   19.6208   17.3322   27.5534 H   0  0  0  0  0  0  0  0  0  0  0  0
   21.3623   17.5344   27.2636 H   0  0  0  0  0  0  0  0  0  0  0  0
   20.5384   18.5660   28.4442 H   0  0  0  0  0  0  0  0  0  0  0  0
   18.8975   19.8911   26.7041 N   0  3  0  0  0  0  0  0  0  0  0  0
   18.7120   20.6104   25.9999 H   0  0  0  0  0  0  0  0  0  0  0  0
   18.9909   20.3638   27.6077 H   0  0  0  0  0  0  0  0  0  0  0  0
   18.0710   19.2897   26.7566 H   0  0  0  0  0  0  0  0  0  0  0  0
  1  2  1  0  0  0  0
  1  3  1  0  0  0  0
  1  4  1  0  0  0  0
  1  5  1  0  0  0  0
  5  6  1  0  0  0  0
  5  7  1  0  0  0  0
  5  8  1  0  0  0  0
  8  9  1  0  0  0  0
  8 10  1  0  0  0  0
  8 11  1  0  0  0  0
 11 12  1  0  0  0  0
 11 13  1  0  0  0  0
 11 14  1  0  0  0  0
 14 15  1  0  0  0  0
 14 16  1  0  0  0  0
 14 17  1  0  0  0  0
 17 18  1  0  0  0  0
 17 19  1  0  0  0  0
 17 20  1  0  0  0  0
 20 21  1  0  0  0  0
 20 22  1  0  0  0  0
 22 23  1  0  0  0  0
 22 24  1  0  0  0  0
 22 25  1  0  0  0  0
 20 26  1  0  0  0  0
 26 27  1  0  0  0  0
 26 28  1  0  0  0  0
 26 29  1  0  0  0  0
M  END
> <VM2 Rank>
1

> <Conf_Id>
715

> <Probability>
10.34

> <Sum Probability>
10.34

> <Delta G>
0.000

> <G>
33.702

> <E>
-3.682

> <-TS>
37.385

> <U+W>
-27.827

> <U>
23.963

> <W>
-51.787

> <W(PB)>
-54.341

> <W(SA)>
2.554

> <Valence>
3.166

> <Coulomb>
19.734

> <VdW>
1.062

> <VdW6>
-7.938

> <VdW12>
9.001

> <Bond>
0.188

> <Angle>
0.880

> <Pdih>
2.098

> <Idih>
0.000

> <Tether>
0.000

$$$$
VeraChem MOL file


 29 28  0  0  0  0  0  0  0  0999 V2000     
   19.0308   19.3522   18.8498 C   0  0  0  0  0  0  0  0  0  0  0  0
   19.5318   19.4841   17.8820 H   0  0  0  0  0  0  0  0  0  0  0  0
   18.5004   18.3913   18.8267 H   0  0  0  0  0  0  0  0  0  0  0  0
   18.2857   20.1516   18.9554 H   0  0  0  0  0  0  0  0  0  0  0  0
   20.0549   19.3928   20.0036 C   0  0  0  0  0  0  0  0  0  0  0  0
   20.5926   20.3511   19.9804 H   0  0  0  0  0  0  0  0  0  0  0  0
   20.8055   18.6043   19.8528 H   0  0  0  0  0  0  0  0  0  0  0  0
   19.3751   19.2095   21.3785 C   0  0  0  0  0  0  0  0  0  0  0  0
   18.6243   19.9985   21.5238 H   0  0  0  0  0  0  0  0  0  0  0  0
   18.8370   18.2516   21.3959 H   0  0  0  0  0  0  0  0  0  0  0  0
   20.3977   19.2492   22.5364 C   0  0  0  0  0  0  0  0  0  0  0  0
   20.9355   20.2073   22.5174 H   0  0  0  0  0  0  0  0  0  0  0  0
   21.1482   18.4601   22.3898 H   0  0  0  0  0  0  0  0  0  0  0  0
   19.7173   19.0656   23.9118 C   0  0  0  0  0  0  0  0  0  0  0  0
   18.9679   19.8559   24.0512 H   0  0  0  0  0  0  0  0  0  0  0  0
   19.1791   18.1087   23.9191 H   0  0  0  0  0  0  0  0  0  0  0  0
   20.7490   19.1031   25.0692 C   0  0  0  0  0  0  0  0  0  0  0  0
   21.3131   20.0438   25.0189 H   0  0  0  0  0  0  0  0  0  0  0  0
   21.4854   18.3015   24.9249 H   0  0  0  0  0  0  0  0  0  0  0  0
   20.1434   18.9722   26.4866 C   0  0  2  0  0  0  0  0  0  0  0  0
   20.9693   19.0447   27.2010 H   0  0  0  0  0  0  0  0  0  0  0  0
   19.4613   17.6099   26.7012 C   0  0  0  0  0  0  0  0  0  0  0  0
   18.5612   17.5050   26.0839 H   0  0  0  0  0  0  0  0  0  0  0  0
   20.1453   16.7883   26.4550 H   0  0  0  0  0  0  0  0  0  0  0  0
   19.1634   17.4914   27.7502 H   0  0  0  0  0  0  0  0  0  0  0  0
   19.2066   20.1014   26.8169 N   0  3  0  0  0  0  0  0  0  0  0  0
   18.3912   20.0999   26.1990 H   0  0  0  0  0  0  0  0  0  0  0  0
   19.6664   21.0113   26.7196 H   0  0  0  0  0  0  0  0  0  0  0  0
   18.8632   20.0332   27.7793 H   0  0  0  0  0  0  0  0  0  0  0  0
  1  2  1  0  0  0  0
  1  3  1  0  0  0  0
  1  4  1  0  0  0  0
  1  5  1  0  0  0  0
  5  6  1  0  0  0  0
  5  7  1  0  0  0  0
  5  8  1  0  0  0  0
  8  9  1  0  0  0  0
  8 10  1  0  0  0  0
  8 11  1  0  0  0  0
 11 12  1  0  0  0  0
 11 13  1  0  0  0  0
 11 14  1  0  0  0  0
 14 15  1  0  0  0  0
 14 16  1  0  0  0  0
 14 17  1  0  0  0  0
 17 18  1  0  0  0  0
 17 19  1  0  0  0  0
 17 20  1  0  0  0  0
 20 21  1  0  0  0  0
 20 22  1  0  0  0  0
 22 23  1  0  0  0  0
 22 24  1  0  0  0  0
 22 25  1  0  0  0  0
 20 26  1  0  0  0  0
 26 27  1  0  0  0  0
 26 28  1  0  0  0  0
 26 29  1  0  0  0  0
M  END
> <VM2 Rank>
2

> <Conf_Id>
441

> <Probability>
5.07

> <Sum Probability>
15.41

> <Delta G>
0.424

> <G>
34.126

> <E>
-3.404

> <-TS>
37.530

> <U+W>
-27.549

> <U>
24.513

> <W>
-52.062

> <W(PB)>
-54.559

> <W(SA)>
2.497

> <Valence>
3.677

> <Coulomb>
19.662

> <VdW>
1.174

> <VdW6>
-8.570

> <VdW12>
9.743

> <Bond>
0.224

> <Angle>
1.211

> <Pdih>
2.243

> <Idih>
0.000

> <Tether>
0.000

$$$$
VeraChem MOL file


 29 28  0  0  0  0  0  0  0  0999 V2000     
   20.2031   19.4673   18.6904 C   0  0  0  0  0  0  0  0  0  0  0  0
   20.5985   20.4914   18.7045 H   0  0  0  0  0  0  0  0  0  0  0  0
   21.0525   18.7734   18.6438 H   0  0  0  0  0  0  0  0  0  0  0  0
   19.6169   19.3449   17.7704 H   0  0  0  0  0  0  0  0  0  0  0  0
   19.3302   19.1928   19.9333 C   0  0  0  0  0  0  0  0  0  0  0  0
   18.9221   18.1741   19.8744 H   0  0  0  0  0  0  0  0  0  0  0  0
   18.4716   19.8789   19.9345 H   0  0  0  0  0  0  0  0  0  0  0  0
   20.1320   19.3585   21.2431 C   0  0  0  0  0  0  0  0  0  0  0  0
   20.9904   18.6726   21.2360 H   0  0  0  0  0  0  0  0  0  0  0  0
   20.5398   20.3775   21.2964 H   0  0  0  0  0  0  0  0  0  0  0  0
   19.2613   19.0843   22.4899 C   0  0  0  0  0  0  0  0  0  0  0  0
   18.8541   18.0651   22.4360 H   0  0  0  0  0  0  0  0  0  0  0  0
   18.4026   19.7701   22.4947 H   0  0  0  0  0  0  0  0  0  0  0  0
   20.0638   19.2507   23.8002 C   0  0  0  0  0  0  0  0  0  0  0  0
   20.9233   18.5679   23.7813 H   0  0  0  0  0  0  0  0  0  0  0  0
   20.4666   20.2716   23.8563 H   0  0  0  0  0  0  0  0  0  0  0  0
   19.1902   18.9708   25.0478 C   0  0  0  0  0  0  0  0  0  0  0  0
   18.8392   17.9305   25.0284 H   0  0  0  0  0  0  0  0  0  0  0  0
   18.2937   19.6028   24.9953 H   0  0  0  0  0  0  0  0  0  0  0  0
   19.9086   19.2524   26.3872 C   0  0  2  0  0  0  0  0  0  0  0  0
   20.2851   20.2797   26.3655 H   0  0  0  0  0  0  0  0  0  0  0  0
   21.0972   18.3024   26.6195 C   0  0  0  0  0  0  0  0  0  0  0  0
   20.7789   17.2530   26.5862 H   0  0  0  0  0  0  0  0  0  0  0  0
   21.8787   18.4491   25.8651 H   0  0  0  0  0  0  0  0  0  0  0  0
   21.5542   18.4881   27.5993 H   0  0  0  0  0  0  0  0  0  0  0  0
   18.9496   19.1767   27.5426 N   0  3  0  0  0  0  0  0  0  0  0  0
   19.4123   19.4013   28.4281 H   0  0  0  0  0  0  0  0  0  0  0  0
   18.5499   18.2390   27.6361 H   0  0  0  0  0  0  0  0  0  0  0  0
   18.1715   19.8332   27.4306 H   0  0  0  0  0  0  0  0  0  0  0  0
  1  2  1  0  0  0  0
  1  3  1  0  0  0  0
  1  4  1  0  0  0  0
  1  5  1  0  0  0  0
  5  6  1  0  0  0  0
  5  7  1  0  0  0  0
  5  8  1  0  0  0  0
  8  9  1  0  0  0  0
  8 10  1  0  0  0  0
  8 11  1  0  0  0  0
 11 12  1  0  0  0  0
 11 13  1  0  0  0  0
 11 14  1  0  0  0  0
 14 15  1  0  0  0  0
 14 16  1  0  0  0  0
 14 17  1  0  0  0  0
 17 18  1  0  0  0  0
 17 19  1  0  0  0  0
 17 20  1  0  0  0  0
 20 21  1  0  0  0  0
 20 22  1  0  0  0  0
 22 23  1  0  0  0  0
 22 24  1  0  0  0  0
 22 25  1  0  0  0  0
 20 26  1  0  0  0  0
 26 27  1  0  0  0  0
 26 28  1  0  0  0  0
 26 29  1  0  0  0  0
M  END
> <VM2 Rank>
3

> <Conf_Id>
58

> <Probability>
5.05

> <Sum Probability>
20.46

> <Delta G>
0.427

> <G>
34.129

> <E>
-3.270

> <-TS>
37.399

> <U+W>
-27.414

> <U>
24.279

> <W>
-51.694

> <W(PB)>
-54.271

> <W(SA)>
2.577

> <Valence>
3.709

> <Coulomb>
19.380

> <VdW>
1.191

> <VdW6>
-8.093

> <VdW12>
9.284

> <Bond>
0.200

> <Angle>
1.161

> <Pdih>
2.348

> <Idih>
0.000

> <Tether>
0.000

$$$$
VeraChem MOL file


 29 28  0  0  0  0  0  0  0  0999 V2000     
   18.8286   18.7944   19.4039 C   0  0  0  0  0  0  0  0  0  0  0  0
   17.9438   19.4300   19.5384 H   0  0  0  0  0  0  0  0  0  0  0  0
   18.8813   18.5120   18.3444 H   0  0  0  0  0  0  0  0  0  0  0  0
   18.6829   17.8743   19.9832 H   0  0  0  0  0  0  0  0  0  0  0  0
   20.1156   19.5361   19.8304 C   0  0  0  0  0  0  0  0  0  0  0  0
   20.2824   20.3786   19.1447 H   0  0  0  0  0  0  0  0  0  0  0  0
   20.9818   18.8696   19.7151 H   0  0  0  0  0  0  0  0  0  0  0  0
   20.0616   20.0783   21.2790 C   0  0  0  0  0  0  0  0  0  0  0  0
   20.9618   20.6820   21.4590 H   0  0  0  0  0  0  0  0  0  0  0  0
   19.2062   20.7598   21.3838 H   0  0  0  0  0  0  0  0  0  0  0  0
   19.9771   18.9655   22.3510 C   0  0  0  0  0  0  0  0  0  0  0  0
   20.8047   18.2568   22.2093 H   0  0  0  0  0  0  0  0  0  0  0  0
   19.0455   18.3976   22.2275 H   0  0  0  0  0  0  0  0  0  0  0  0
   20.0309   19.5438   23.7832 C   0  0  0  0  0  0  0  0  0  0  0  0
   20.9659   20.1055   23.9168 H   0  0  0  0  0  0  0  0  0  0  0  0
   19.2071   20.2582   23.9131 H   0  0  0  0  0  0  0  0  0  0  0  0
   19.9408   18.4306   24.8551 C   0  0  0  0  0  0  0  0  0  0  0  0
   20.7389   17.6982   24.6739 H   0  0  0  0  0  0  0  0  0  0  0  0
   18.9902   17.8906   24.7512 H   0  0  0  0  0  0  0  0  0  0  0  0
   20.0775   18.9690   26.2957 C   0  0  2  0  0  0  0  0  0  0  0  0
   21.0190   19.5222   26.3673 H   0  0  0  0  0  0  0  0  0  0  0  0
   20.1237   17.8056   27.2990 C   0  0  0  0  0  0  0  0  0  0  0  0
   20.2574   18.1796   28.3215 H   0  0  0  0  0  0  0  0  0  0  0  0
   19.1976   17.2178   27.2682 H   0  0  0  0  0  0  0  0  0  0  0  0
   20.9624   17.1336   27.0784 H   0  0  0  0  0  0  0  0  0  0  0  0
   18.9803   19.9328   26.6566 N   0  3  0  0  0  0  0  0  0  0  0  0
   18.9654   20.7364   26.0228 H   0  0  0  0  0  0  0  0  0  0  0  0
   19.0979   20.2946   27.6074 H   0  0  0  0  0  0  0  0  0  0  0  0
   18.0609   19.4856   26.6100 H   0  0  0  0  0  0  0  0  0  0  0  0
  1  2  1  0  0  0  0
  1  3  1  0  0  0  0
  1  4  1  0  0  0  0
  1  5  1  0  0  0  0
  5  6  1  0  0  0  0
  5  7  1  0  0  0  0
  5  8  1  0  0  0  0
  8  9  1  0  0  0  0
  8 10  1  0  0  0  0
  8 11  1  0  0  0  0
 11 12  1  0  0  0  0
 11 13  1  0  0  0  0
 11 14  1  0  0  0  0
 14 15  1  0  0  0  0
 14 16  1  0  0  0  0
 14 17  1  0  0  0  0
 17 18  1  0  0  0  0
 17 19  1  0  0  0  0
 17 20  1  0  0  0  0
 20 21  1  0  0  0  0
 20 22  1  0  0  0  0
 22 23  1  0  0  0  0
 22 24  1  0  0  0  0
 22 25  1  0  0  0  0
 20 26  1  0  0  0  0
 26 27  1  0  0  0  0
 26 28  1  0  0  0  0
 26 29  1  0  0  0  0
M  END
> <VM2 Rank>
4

> <Conf_Id>
1629

> <Probability>
3.88

> <Sum Probability>
24.34

> <Delta G>
0.584

> <G>
34.287

> <E>
-3.209

> <-TS>
37.496

> <U+W>
-27.354

> <U>
24.589

> <W>
-51.942

> <W(PB)>
-54.477

> <W(SA)>
2.535

> <Valence>
3.670

> <Coulomb>
19.723

> <VdW>
1.196

> <VdW6>
-8.561

> <VdW12>
9.756

> <Bond>
0.223

> <Angle>
1.119

> <Pdih>
2.328

> <Idih>
0.000

> <Tether>
0.000

$$$$
VeraChem MOL file


 29 28  0  0  0  0  0  0  0  0999 V2000     
   20.4854   18.8969   19.3013 C   0  0  0  0  0  0  0  0  0  0  0  0
   21.2784   19.6554   19.3313 H   0  0  0  0  0  0  0  0  0  0  0  0
   20.8280   18.0183   19.8619 H   0  0  0  0  0  0  0  0  0  0  0  0
   20.3537   18.5900   18.2556 H   0  0  0  0  0  0  0  0  0  0  0  0
   19.1617   19.4540   19.8721 C   0  0  0  0  0  0  0  0  0  0  0  0
   18.3938   18.6679   19.8592 H   0  0  0  0  0  0  0  0  0  0  0  0
   18.7975   20.2506   19.2083 H   0  0  0  0  0  0  0  0  0  0  0  0
   19.3013   20.0258   21.3035 C   0  0  0  0  0  0  0  0  0  0  0  0
   20.0555   20.8249   21.3072 H   0  0  0  0  0  0  0  0  0  0  0  0
   18.3496   20.4976   21.5846 H   0  0  0  0  0  0  0  0  0  0  0  0
   19.6677   18.9573   22.3612 C   0  0  0  0  0  0  0  0  0  0  0  0
   20.6508   18.5262   22.1311 H   0  0  0  0  0  0  0  0  0  0  0  0
   18.9402   18.1350   22.3190 H   0  0  0  0  0  0  0  0  0  0  0  0
   19.6952   19.5493   23.7885 C   0  0  0  0  0  0  0  0  0  0  0  0
   20.4230   20.3717   23.8293 H   0  0  0  0  0  0  0  0  0  0  0  0
   18.7119   19.9807   24.0183 H   0  0  0  0  0  0  0  0  0  0  0  0
   20.0645   18.4806   24.8459 C   0  0  0  0  0  0  0  0  0  0  0  0
   21.0241   18.0241   24.5688 H   0  0  0  0  0  0  0  0  0  0  0  0
   19.3190   17.6743   24.8351 H   0  0  0  0  0  0  0  0  0  0  0  0
   20.1827   19.0599   26.2722 C   0  0  2  0  0  0  0  0  0  0  0  0
   20.9119   19.8757   26.2517 H   0  0  0  0  0  0  0  0  0  0  0  0
   20.6891   17.9839   27.2458 C   0  0  0  0  0  0  0  0  0  0  0  0
   19.9895   17.1407   27.3045 H   0  0  0  0  0  0  0  0  0  0  0  0
   21.6647   17.5968   26.9260 H   0  0  0  0  0  0  0  0  0  0  0  0
   20.8102   18.3986   28.2541 H   0  0  0  0  0  0  0  0  0  0  0  0
   18.8884   19.6482   26.7637 N   0  3  0  0  0  0  0  0  0  0  0  0
   18.9903   20.0449   27.7023 H   0  0  0  0  0  0  0  0  0  0  0  0
   18.1503   18.9406   26.8082 H   0  0  0  0  0  0  0  0  0  0  0  0
   18.5610   20.3977   26.1483 H   0  0  0  0  0  0  0  0  0  0  0  0
  1  2  1  0  0  0  0
  1  3  1  0  0  0  0
  1  4  1  0  0  0  0
  1  5  1  0  0  0  0
  5  6  1  0  0  0  0
  5  7  1  0  0  0  0
  5  8  1  0  0  0  0
  8  9  1  0  0  0  0
  8 10  1  0  0  0  0
  8 11  1  0  0  0  0
 11 12  1  0  0  0  0
 11 13  1  0  0  0  0
 11 14  1  0  0  0  0
 14 15  1  0  0  0  0
 14 16  1  0  0  0  0
 14 17  1  0  0  0  0
 17 18  1  0  0  0  0
 17 19  1  0  0  0  0
 17 20  1  0  0  0  0
 20 21  1  0  0  0  0
 20 22  1  0  0  0  0
 22 23  1  0  0  0  0
 22 24  1  0  0  0  0
 22 25  1  0  0  0  0
 20 26  1  0  0  0  0
 26 27  1  0  0  0  0
 26 28  1  0  0  0  0
 26 29  1  0  0  0  0
M  END
> <VM2 Rank>
5

> <Conf_Id>
1243

> <Probability>
3.83

> <Sum Probability>
28.17

> <Delta G>
0.591

> <G>
34.293

> <E>
-3.202

> <-TS>
37.495

> <U+W>
-27.346

> <U>
24.574

> <W>
-51.920

> <W(PB)>
-54.457

> <W(SA)>
2.537

> <Valence>
3.669

> <Coulomb>
19.705

> <VdW>
1.200

> <VdW6>
-8.560

> <VdW12>
9.760

> <Bond>
0.223

> <Angle>
1.119

> <Pdih>
2.327

> <Idih>
0.000

> <Tether>
0.000

$$$$
VeraChem MOL file


 29 28  0  0  0  0  0  0  0  0999 V2000     
   20.6750   18.9877   19.1354 C   0  0  0  0  0  0  0  0  0  0  0  0
   20.3357   18.8402   18.1019 H   0  0  0  0  0  0  0  0  0  0  0  0
   21.3260   19.8715   19.1535 H   0  0  0  0  0  0  0  0  0  0  0  0
   21.2759   18.1144   19.4208 H   0  0  0  0  0  0  0  0  0  0  0  0
   19.4708   19.1666   20.0839 C   0  0  0  0  0  0  0  0  0  0  0  0
   18.8214   18.2823   20.0197 H   0  0  0  0  0  0  0  0  0  0  0  0
   18.8707   20.0256   19.7525 H   0  0  0  0  0  0  0  0  0  0  0  0
   19.9211   19.3772   21.5465 C   0  0  0  0  0  0  0  0  0  0  0  0
   20.5270   18.5174   21.8603 H   0  0  0  0  0  0  0  0  0  0  0  0
   20.5678   20.2635   21.6058 H   0  0  0  0  0  0  0  0  0  0  0  0
   18.7137   19.5521   22.4989 C   0  0  0  0  0  0  0  0  0  0  0  0
   18.0965   18.6432   22.4866 H   0  0  0  0  0  0  0  0  0  0  0  0
   18.0758   20.3625   22.1197 H   0  0  0  0  0  0  0  0  0  0  0  0
   19.1143   19.8878   23.9567 C   0  0  0  0  0  0  0  0  0  0  0  0
   19.7293   20.7984   23.9681 H   0  0  0  0  0  0  0  0  0  0  0  0
   18.1985   20.1264   24.5131 H   0  0  0  0  0  0  0  0  0  0  0  0
   19.8699   18.7379   24.6716 C   0  0  0  0  0  0  0  0  0  0  0  0
   20.7969   18.5194   24.1273 H   0  0  0  0  0  0  0  0  0  0  0  0
   19.2649   17.8220   24.6440 H   0  0  0  0  0  0  0  0  0  0  0  0
   20.2342   19.0751   26.1339 C   0  0  2  0  0  0  0  0  0  0  0  0
   20.8046   20.0091   26.1387 H   0  0  0  0  0  0  0  0  0  0  0  0
   21.1160   17.9681   26.7336 C   0  0  0  0  0  0  0  0  0  0  0  0
   22.0356   17.8419   26.1485 H   0  0  0  0  0  0  0  0  0  0  0  0
   21.4076   18.2178   27.7612 H   0  0  0  0  0  0  0  0  0  0  0  0
   20.5881   17.0064   26.7520 H   0  0  0  0  0  0  0  0  0  0  0  0
   19.0210   19.3034   26.9936 N   0  3  0  0  0  0  0  0  0  0  0  0
   18.4311   18.4680   27.0355 H   0  0  0  0  0  0  0  0  0  0  0  0
   18.4460   20.0697   26.6334 H   0  0  0  0  0  0  0  0  0  0  0  0
   19.2830   19.5426   27.9542 H   0  0  0  0  0  0  0  0  0  0  0  0
  1  2  1  0  0  0  0
  1  3  1  0  0  0  0
  1  4  1  0  0  0  0
  1  5  1  0  0  0  0
  5  6  1  0  0  0  0
  5  7  1  0  0  0  0
  5  8  1  0  0  0  0
  8  9  1  0  0  0  0
  8 10  1  0  0  0  0
  8 11  1  0  0  0  0
 11 12  1  0  0  0  0
 11 13  1  0  0  0  0
 11 14  1  0  0  0  0
 14 15  1  0  0  0  0
 14 16  1  0  0  0  0
 14 17  1  0  0  0  0
 17 18  1  0  0  0  0
 17 19  1  0  0  0  0
 17 20  1  0  0  0  0
 20 21  1  0  0  0  0
 20 22  1  0  0  0  0
 22 23  1  0  0  0  0
 22 24  1  0  0  0  0
 22 25  1  0  0  0  0
 20 26  1  0  0  0  0
 26 27  1  0  0  0  0
 26 28  1  0  0  0  0
 26 29  1  0  0  0  0
M  END
> <VM2 Rank>
6

> <Conf_Id>
986

> <Probability>
3.47

> <Sum Probability>
31.64

> <Delta G>
0.651

> <G>
34.353

> <E>
-3.102

> <-TS>
37.455

> <U+W>
-27.247

> <U>
24.711

> <W>
-51.957

> <W(PB)>
-54.510

> <W(SA)>
2.553

> <Valence>
3.735

> <Coulomb>
19.760

> <VdW>
1.216

> <VdW6>
-8.624

> <VdW12>
9.840

> <Bond>
0.236

> <Angle>
1.168

> <Pdih>
2.331

> <Idih>
0.000

> <Tether>
0.000

$$$$
VeraChem MOL file


 29 28  0  0  0  0  0  0  0  0999 V2000     
   19.7045   20.0255   19.0213 C   0  0  0  0  0  0  0  0  0  0  0  0
   19.2423   19.1299   18.5858 H   0  0  0  0  0  0  0  0  0  0  0  0
   18.9303   20.7980   19.1164 H   0  0  0  0  0  0  0  0  0  0  0  0
   20.4611   20.3916   18.3152 H   0  0  0  0  0  0  0  0  0  0  0  0
   20.3440   19.7098   20.3899 C   0  0  0  0  0  0  0  0  0  0  0  0
   20.8267   20.6150   20.7842 H   0  0  0  0  0  0  0  0  0  0  0  0
   21.1363   18.9597   20.2578 H   0  0  0  0  0  0  0  0  0  0  0  0
   19.2995   19.1920   21.4033 C   0  0  0  0  0  0  0  0  0  0  0  0
   18.5086   19.9442   21.5305 H   0  0  0  0  0  0  0  0  0  0  0  0
   18.8179   18.2890   21.0033 H   0  0  0  0  0  0  0  0  0  0  0  0
   19.9363   18.8743   22.7749 C   0  0  0  0  0  0  0  0  0  0  0  0
   20.4224   19.7790   23.1635 H   0  0  0  0  0  0  0  0  0  0  0  0
   20.7242   18.1193   22.6463 H   0  0  0  0  0  0  0  0  0  0  0  0
   18.8871   18.3578   23.7884 C   0  0  0  0  0  0  0  0  0  0  0  0
   18.1091   19.1181   23.9389 H   0  0  0  0  0  0  0  0  0  0  0  0
   18.3772   17.4826   23.3625 H   0  0  0  0  0  0  0  0  0  0  0  0
   19.5032   17.9515   25.1516 C   0  0  0  0  0  0  0  0  0  0  0  0
   20.2036   17.1214   24.9890 H   0  0  0  0  0  0  0  0  0  0  0  0
   18.7089   17.5594   25.8006 H   0  0  0  0  0  0  0  0  0  0  0  0
   20.2407   19.0964   25.8814 C   0  0  2  0  0  0  0  0  0  0  0  0
   21.0408   19.4615   25.2308 H   0  0  0  0  0  0  0  0  0  0  0  0
   20.8785   18.5794   27.1805 C   0  0  0  0  0  0  0  0  0  0  0  0
   21.4368   19.3784   27.6836 H   0  0  0  0  0  0  0  0  0  0  0  0
   20.1166   18.2048   27.8754 H   0  0  0  0  0  0  0  0  0  0  0  0
   21.5812   17.7631   26.9713 H   0  0  0  0  0  0  0  0  0  0  0  0
   19.3422   20.2693   26.1627 N   0  3  0  0  0  0  0  0  0  0  0  0
   18.9411   20.6448   25.2990 H   0  0  0  0  0  0  0  0  0  0  0  0
   19.8512   21.0297   26.6225 H   0  0  0  0  0  0  0  0  0  0  0  0
   18.5657   20.0052   26.7749 H   0  0  0  0  0  0  0  0  0  0  0  0
  1  2  1  0  0  0  0
  1  3  1  0  0  0  0
  1  4  1  0  0  0  0
  1  5  1  0  0  0  0
  5  6  1  0  0  0  0
  5  7  1  0  0  0  0
  5  8  1  0  0  0  0
  8  9  1  0  0  0  0
  8 10  1  0  0  0  0
  8 11  1  0  0  0  0
 11 12  1  0  0  0  0
 11 13  1  0  0  0  0
 11 14  1  0  0  0  0
 14 15  1  0  0  0  0
 14 16  1  0  0  0  0
 14 17  1  0  0  0  0
 17 18  1  0  0  0  0
 17 19  1  0  0  0  0
 17 20  1  0  0  0  0
 20 21  1  0  0  0  0
 20 22  1  0  0  0  0
 22 23  1  0  0  0  0
 22 24  1  0  0  0  0
 22 25  1  0  0  0  0
 20 26  1  0  0  0  0
 26 27  1  0  0  0  0
 26 28  1  0  0  0  0
 26 29  1  0  0  0  0
M  END
> <VM2 Rank>
7

> <Conf_Id>
1223

> <Probability>
3.44

> <Sum Probability>
35.08

> <Delta G>
0.656

> <G>
34.358

> <E>
-3.220

> <-TS>
37.578

> <U+W>
-27.365

> <U>
24.672

> <W>
-52.037

> <W(PB)>
-54.587

> <W(SA)>
2.550

> <Valence>
3.465

> <Coulomb>
20.280

> <VdW>
0.927

> <VdW6>
-8.843

> <VdW12>
9.770

> <Bond>
0.217

> <Angle>
1.094

> <Pdih>
2.153

> <Idih>
0.000

> <Tether>
0.000

$$$$
VeraChem MOL file


 29 28  0  0  0  0  0  0  0  0999 V2000     
   18.6216   18.9169   19.2919 C   0  0  0  0  0  0  0  0  0  0  0  0
   17.8748   19.7128   19.4098 H   0  0  0  0  0  0  0  0  0  0  0  0
   18.8573   18.8314   18.2232 H   0  0  0  0  0  0  0  0  0  0  0  0
   18.1669   17.9708   19.6134 H   0  0  0  0  0  0  0  0  0  0  0  0
   19.8948   19.2259   20.1076 C   0  0  0  0  0  0  0  0  0  0  0  0
   20.3454   20.1585   19.7402 H   0  0  0  0  0  0  0  0  0  0  0  0
   20.6349   18.4301   19.9440 H   0  0  0  0  0  0  0  0  0  0  0  0
   19.5905   19.3521   21.6168 C   0  0  0  0  0  0  0  0  0  0  0  0
   18.8519   20.1499   21.7755 H   0  0  0  0  0  0  0  0  0  0  0  0
   19.1330   18.4183   21.9687 H   0  0  0  0  0  0  0  0  0  0  0  0
   20.8673   19.6578   22.4362 C   0  0  0  0  0  0  0  0  0  0  0  0
   21.3525   20.5525   22.0221 H   0  0  0  0  0  0  0  0  0  0  0  0
   21.5872   18.8358   22.3211 H   0  0  0  0  0  0  0  0  0  0  0  0
   20.5927   19.9007   23.9405 C   0  0  0  0  0  0  0  0  0  0  0  0
   21.5311   20.2134   24.4191 H   0  0  0  0  0  0  0  0  0  0  0  0
   19.8939   20.7411   24.0481 H   0  0  0  0  0  0  0  0  0  0  0  0
   20.0437   18.6517   24.6762 C   0  0  0  0  0  0  0  0  0  0  0  0
   20.7003   17.7973   24.4647 H   0  0  0  0  0  0  0  0  0  0  0  0
   19.0507   18.3900   24.2894 H   0  0  0  0  0  0  0  0  0  0  0  0
   19.9584   18.8475   26.2052 C   0  0  2  0  0  0  0  0  0  0  0  0
   20.9521   19.1233   26.5716 H   0  0  0  0  0  0  0  0  0  0  0  0
   19.5378   17.5373   26.8897 C   0  0  0  0  0  0  0  0  0  0  0  0
   18.5424   17.2173   26.5572 H   0  0  0  0  0  0  0  0  0  0  0  0
   20.2488   16.7331   26.6625 H   0  0  0  0  0  0  0  0  0  0  0  0
   19.5113   17.6597   27.9795 H   0  0  0  0  0  0  0  0  0  0  0  0
   19.0292   19.9661   26.5900 N   0  3  0  0  0  0  0  0  0  0  0  0
   19.0015   20.0969   27.6053 H   0  0  0  0  0  0  0  0  0  0  0  0
   18.0723   19.7800   26.2783 H   0  0  0  0  0  0  0  0  0  0  0  0
   19.3222   20.8544   26.1744 H   0  0  0  0  0  0  0  0  0  0  0  0
  1  2  1  0  0  0  0
  1  3  1  0  0  0  0
  1  4  1  0  0  0  0
  1  5  1  0  0  0  0
  5  6  1  0  0  0  0
  5  7  1  0  0  0  0
  5  8  1  0  0  0  0
  8  9  1  0  0  0  0
  8 10  1  0  0  0  0
  8 11  1  0  0  0  0
 11 12  1  0  0  0  0
 11 13  1  0  0  0  0
 11 14  1  0  0  0  0
 14 15  1  0  0  0  0
 14 16  1  0  0  0  0
 14 17  1  0  0  0  0
 17 18  1  0  0  0  0
 17 19  1  0  0  0  0
 17 20  1  0  0  0  0
 20 21  1  0  0  0  0
 20 22  1  0  0  0  0
 22 23  1  0  0  0  0
 22 24  1  0  0  0  0
 22 25  1  0  0  0  0
 20 26  1  0  0  0  0
 26 27  1  0  0  0  0
 26 28  1  0  0  0  0
 26 29  1  0  0  0  0
M  END
> <VM2 Rank>
8

> <Conf_Id>
1132

> <Probability>
3.40

> <Sum Probability>
38.48

> <Delta G>
0.663

> <G>
34.365

> <E>
-3.137

> <-TS>
37.502

> <U+W>
-27.282

> <U>
24.741

> <W>
-52.022

> <W(PB)>
-54.547

> <W(SA)>
2.525

> <Valence>
3.693

> <Coulomb>
19.919

> <VdW>
1.129

> <VdW6>
-8.666

> <VdW12>
9.794

> <Bond>
0.229

> <Angle>
1.104

> <Pdih>
2.361

> <Idih>
0.000

> <Tether>
0.000

$$$$
VeraChem MOL file


 29 28  0  0  0  0  0  0  0  0999 V2000     
   19.1694   20.2659   19.2416 C   0  0  0  0  0  0  0  0  0  0  0  0
   19.9577   21.0292   19.2066 H   0  0  0  0  0  0  0  0  0  0  0  0
   19.3906   19.5104   18.4763 H   0  0  0  0  0  0  0  0  0  0  0  0
   18.2205   20.7485   18.9739 H   0  0  0  0  0  0  0  0  0  0  0  0
   19.0791   19.6264   20.6434 C   0  0  0  0  0  0  0  0  0  0  0  0
   18.2642   18.8892   20.6554 H   0  0  0  0  0  0  0  0  0  0  0  0
   18.8168   20.4041   21.3727 H   0  0  0  0  0  0  0  0  0  0  0  0
   20.4077   18.9431   21.0445 C   0  0  0  0  0  0  0  0  0  0  0  0
   20.6920   18.2285   20.2597 H   0  0  0  0  0  0  0  0  0  0  0  0
   21.2115   19.6912   21.0855 H   0  0  0  0  0  0  0  0  0  0  0  0
   20.3339   18.1857   22.3930 C   0  0  0  0  0  0  0  0  0  0  0  0
   21.2750   17.6362   22.5336 H   0  0  0  0  0  0  0  0  0  0  0  0
   19.5389   17.4287   22.3464 H   0  0  0  0  0  0  0  0  0  0  0  0
   20.1033   19.1116   23.6115 C   0  0  0  0  0  0  0  0  0  0  0  0
   20.8711   19.8977   23.6246 H   0  0  0  0  0  0  0  0  0  0  0  0
   19.1322   19.6123   23.5139 H   0  0  0  0  0  0  0  0  0  0  0  0
   20.1490   18.3245   24.9438 C   0  0  0  0  0  0  0  0  0  0  0  0
   21.1055   17.7887   25.0073 H   0  0  0  0  0  0  0  0  0  0  0  0
   19.3605   17.5602   24.9507 H   0  0  0  0  0  0  0  0  0  0  0  0
   20.0044   19.2313   26.1852 C   0  0  2  0  0  0  0  0  0  0  0  0
   20.7839   19.9983   26.1424 H   0  0  0  0  0  0  0  0  0  0  0  0
   20.2031   18.4126   27.4708 C   0  0  0  0  0  0  0  0  0  0  0  0
   19.4422   17.6275   27.5630 H   0  0  0  0  0  0  0  0  0  0  0  0
   21.1904   17.9343   27.4798 H   0  0  0  0  0  0  0  0  0  0  0  0
   20.1379   19.0575   28.3558 H   0  0  0  0  0  0  0  0  0  0  0  0
   18.6861   19.9549   26.2202 N   0  3  0  0  0  0  0  0  0  0  0  0
   18.5592   20.5409   25.3907 H   0  0  0  0  0  0  0  0  0  0  0  0
   18.6158   20.5646   27.0399 H   0  0  0  0  0  0  0  0  0  0  0  0
   17.9015   19.2987   26.2580 H   0  0  0  0  0  0  0  0  0  0  0  0
  1  2  1  0  0  0  0
  1  3  1  0  0  0  0
  1  4  1  0  0  0  0
  1  5  1  0  0  0  0
  5  6  1  0  0  0  0
  5  7  1  0  0  0  0
  5  8  1  0  0  0  0
  8  9  1  0  0  0  0
  8 10  1  0  0  0  0
  8 11  1  0  0  0  0
 11 12  1  0  0  0  0
 11 13  1  0  0  0  0
 11 14  1  0  0  0  0
 14 15  1  0  0  0  0
 14 16  1  0  0  0  0
 14 17  1  0  0  0  0
 17 18  1  0  0  0  0
 17 19  1  0  0  0  0
 17 20  1  0  0  0  0
 20 21  1  0  0  0  0
 20 22  1  0  0  0  0
 22 23  1  0  0  0  0
 22 24  1  0  0  0  0
 22 25  1  0  0  0  0
 20 26  1  0  0  0  0
 26 27  1  0  0  0  0
 26 28  1  0  0  0  0
 26 29  1  0  0  0  0
M  END
> <VM2 Rank>
9

> <Conf_Id>
1585

> <Probability>
3.25

> <Sum Probability>
41.74

> <Delta G>
0.689

> <G>
34.391

> <E>
-3.086

> <-TS>
37.478

> <U+W>
-27.231

> <U>
25.011

> <W>
-52.242

> <W(PB)>
-54.753

> <W(SA)>
2.511

> <Valence>
3.709

> <Coulomb>
20.124

> <VdW>
1.178

> <VdW6>
-8.623

> <VdW12>
9.801

> <Bond>
0.228

> <Angle>
1.140

> <Pdih>
2.340

> <Idih>
0.000

> <Tether>
0.000

$$$$
VeraChem MOL file


 29 28  0  0  0  0  0  0  0  0999 V2000     
   19.8088   20.3258   19.1845 C   0  0  0  0  0  0  0  0  0  0  0  0
   18.8776   20.9029   19.2548 H   0  0  0  0  0  0  0  0  0  0  0  0
   20.5941   20.9967   18.8128 H   0  0  0  0  0  0  0  0  0  0  0  0
   19.6638   19.5320   18.4401 H   0  0  0  0  0  0  0  0  0  0  0  0
   20.2001   19.7361   20.5561 C   0  0  0  0  0  0  0  0  0  0  0  0
   20.3759   20.5599   21.2605 H   0  0  0  0  0  0  0  0  0  0  0  0
   21.1489   19.1899   20.4603 H   0  0  0  0  0  0  0  0  0  0  0  0
   19.1054   18.7896   21.1026 C   0  0  0  0  0  0  0  0  0  0  0  0
   18.1710   19.3491   21.2484 H   0  0  0  0  0  0  0  0  0  0  0  0
   18.8895   18.0208   20.3479 H   0  0  0  0  0  0  0  0  0  0  0  0
   19.4991   18.0832   22.4231 C   0  0  0  0  0  0  0  0  0  0  0  0
   20.4242   17.5101   22.2711 H   0  0  0  0  0  0  0  0  0  0  0  0
   18.7192   17.3499   22.6705 H   0  0  0  0  0  0  0  0  0  0  0  0
   19.6745   19.0537   23.6157 C   0  0  0  0  0  0  0  0  0  0  0  0
   20.5057   19.7432   23.4180 H   0  0  0  0  0  0  0  0  0  0  0  0
   18.7676   19.6641   23.7190 H   0  0  0  0  0  0  0  0  0  0  0  0
   19.9535   18.2928   24.9346 C   0  0  0  0  0  0  0  0  0  0  0  0
   20.8286   17.6449   24.7917 H   0  0  0  0  0  0  0  0  0  0  0  0
   19.1085   17.6315   25.1685 H   0  0  0  0  0  0  0  0  0  0  0  0
   20.2211   19.2347   26.1284 C   0  0  2  0  0  0  0  0  0  0  0  0
   21.0499   19.8981   25.8628 H   0  0  0  0  0  0  0  0  0  0  0  0
   20.6303   18.4234   27.3680 C   0  0  0  0  0  0  0  0  0  0  0  0
   19.8291   17.7408   27.6780 H   0  0  0  0  0  0  0  0  0  0  0  0
   21.5280   17.8265   27.1644 H   0  0  0  0  0  0  0  0  0  0  0  0
   20.8574   19.0889   28.2100 H   0  0  0  0  0  0  0  0  0  0  0  0
   19.0433   20.1167   26.4409 N   0  3  0  0  0  0  0  0  0  0  0  0
   19.2454   20.7480   27.2215 H   0  0  0  0  0  0  0  0  0  0  0  0
   18.2214   19.5637   26.6984 H   0  0  0  0  0  0  0  0  0  0  0  0
   18.7864   20.6958   25.6370 H   0  0  0  0  0  0  0  0  0  0  0  0
  1  2  1  0  0  0  0
  1  3  1  0  0  0  0
  1  4  1  0  0  0  0
  1  5  1  0  0  0  0
  5  6  1  0  0  0  0
  5  7  1  0  0  0  0
  5  8  1  0  0  0  0
  8  9  1  0  0  0  0
  8 10  1  0  0  0  0
  8 11  1  0  0  0  0
 11 12  1  0  0  0  0
 11 13  1  0  0  0  0
 11 14  1  0  0  0  0
 14 15  1  0  0  0  0
 14 16  1  0  0  0  0
 14 17  1  0  0  0  0
 17 18  1  0  0  0  0
 17 19  1  0  0  0  0
 17 20  1  0  0  0  0
 20 21  1  0  0  0  0
 20 22  1  0  0  0  0
 22 23  1  0  0  0  0
 22 24  1  0  0  0  0
 22 25  1  0  0  0  0
 20 26  1  0  0  0  0
 26 27  1  0  0  0  0
 26 28  1  0  0  0  0
 26 29  1  0  0  0  0
M  END
> <VM2 Rank>
10

> <Conf_Id>
1118

> <Probability>
3.19

> <Sum Probability>
44.92

> <Delta G>
0.701

> <G>
34.404

> <E>
-3.082

> <-TS>
37.486

> <U+W>
-27.227

> <U>
24.820

> <W>
-52.047

> <W(PB)>
-54.562

> <W(SA)>
2.514

> <Valence>
3.711

> <Coulomb>
19.938

> <VdW>
1.171

> <VdW6>
-8.614

> <VdW12>
9.786

> <Bond>
0.226

> <Angle>
1.142

> <Pdih>
2.342

> <Idih>
0.000

> <Tether>
0.000

$$$$
VeraChem MOL file


 29 28  0  0  0  0  0  0  0  0999 V2000     
   20.2023   19.6773   18.9796 C   0  0  0  0  0  0  0  0  0  0  0  0
   21.2100   19.2438   18.9365 H   0  0  0  0  0  0  0  0  0  0  0  0
   19.4971   18.9456   18.5641 H   0  0  0  0  0  0  0  0  0  0  0  0
   20.1887   20.5638   18.3322 H   0  0  0  0  0  0  0  0  0  0  0  0
   19.8220   20.0539   20.4271 C   0  0  0  0  0  0  0  0  0  0  0  0
   18.8245   20.5152   20.4337 H   0  0  0  0  0  0  0  0  0  0  0  0
   20.5241   20.8112   20.8032 H   0  0  0  0  0  0  0  0  0  0  0  0
   19.8334   18.8228   21.3600 C   0  0  0  0  0  0  0  0  0  0  0  0
   19.1321   18.0679   20.9783 H   0  0  0  0  0  0  0  0  0  0  0  0
   20.8318   18.3640   21.3486 H   0  0  0  0  0  0  0  0  0  0  0  0
   19.4530   19.1960   22.8104 C   0  0  0  0  0  0  0  0  0  0  0  0
   18.4530   19.6513   22.8212 H   0  0  0  0  0  0  0  0  0  0  0  0
   20.1540   19.9555   23.1814 H   0  0  0  0  0  0  0  0  0  0  0  0
   19.4689   17.9614   23.7431 C   0  0  0  0  0  0  0  0  0  0  0  0
   18.8046   17.1901   23.3295 H   0  0  0  0  0  0  0  0  0  0  0  0
   20.4732   17.5178   23.7571 H   0  0  0  0  0  0  0  0  0  0  0  0
   19.0078   18.2815   25.1885 C   0  0  0  0  0  0  0  0  0  0  0  0
   19.0303   17.3586   25.7831 H   0  0  0  0  0  0  0  0  0  0  0  0
   17.9563   18.5961   25.1548 H   0  0  0  0  0  0  0  0  0  0  0  0
   19.8287   19.3748   25.9122 C   0  0  2  0  0  0  0  0  0  0  0  0
   19.7921   20.2887   25.3120 H   0  0  0  0  0  0  0  0  0  0  0  0
   21.3022   18.9685   26.0914 C   0  0  0  0  0  0  0  0  0  0  0  0
   21.8507   19.7384   26.6480 H   0  0  0  0  0  0  0  0  0  0  0  0
   21.3890   18.0235   26.6420 H   0  0  0  0  0  0  0  0  0  0  0  0
   21.8025   18.8496   25.1233 H   0  0  0  0  0  0  0  0  0  0  0  0
   19.2177   19.7197   27.2418 N   0  3  0  0  0  0  0  0  0  0  0  0
   18.2481   20.0339   27.1412 H   0  0  0  0  0  0  0  0  0  0  0  0
   19.7347   20.4710   27.7075 H   0  0  0  0  0  0  0  0  0  0  0  0
   19.2159   18.9137   27.8728 H   0  0  0  0  0  0  0  0  0  0  0  0
  1  2  1  0  0  0  0
  1  3  1  0  0  0  0
  1  4  1  0  0  0  0
  1  5  1  0  0  0  0
  5  6  1  0  0  0  0
  5  7  1  0  0  0  0
  5  8  1  0  0  0  0
  8  9  1  0  0  0  0
  8 10  1  0  0  0  0
  8 11  1  0  0  0  0
 11 12  1  0  0  0  0
 11 13  1  0  0  0  0
 11 14  1  0  0  0  0
 14 15  1  0  0  0  0
 14 16  1  0  0  0  0
 14 17  1  0  0  0  0
 17 18  1  0  0  0  0
 17 19  1  0  0  0  0
 17 20  1  0  0  0  0
 20 21  1  0  0  0  0
 20 22  1  0  0  0  0
 22 23  1  0  0  0  0
 22 24  1  0  0  0  0
 22 25  1  0  0  0  0
 20 26  1  0  0  0  0
 26 27  1  0  0  0  0
 26 28  1  0  0  0  0
 26 29  1  0  0  0  0
M  END
> <VM2 Rank>
11

> <Conf_Id>
1361

> <Probability>
2.24

> <Sum Probability>
47.16

> <Delta G>
0.912

> <G>
34.614

> <E>
-3.060

> <-TS>
37.674

> <U+W>
-27.205

> <U>
24.848

> <W>
-52.052

> <W(PB)>
-54.585

> <W(SA)>
2.533

> <Valence>
3.959

> <Coulomb>
19.891

> <VdW>
0.998

> <VdW6>
-9.070

> <VdW12>
10.067

> <Bond>
0.229

> <Angle>
1.422

> <Pdih>
2.308

> <Idih>
0.000

> <Tether>
0.000

$$$$
VeraChem MOL file


 29 28  0  0  0  0  0  0  0  0999 V2000     
   19.1000   20.0457   19.3977 C   0  0  0  0  0  0  0  0  0  0  0  0
   19.7033   20.9617   19.4438 H   0  0  0  0  0  0  0  0  0  0  0  0
   18.7343   19.9359   18.3685 H   0  0  0  0  0  0  0  0  0  0  0  0
   18.2249   20.1768   20.0461 H   0  0  0  0  0  0  0  0  0  0  0  0
   19.9326   18.8108   19.8102 C   0  0  0  0  0  0  0  0  0  0  0  0
   20.7226   18.6509   19.0632 H   0  0  0  0  0  0  0  0  0  0  0  0
   19.2994   17.9129   19.7852 H   0  0  0  0  0  0  0  0  0  0  0  0
   20.5891   18.9494   21.2049 C   0  0  0  0  0  0  0  0  0  0  0  0
   21.2468   18.0845   21.3679 H   0  0  0  0  0  0  0  0  0  0  0  0
   21.2365   19.8371   21.2189 H   0  0  0  0  0  0  0  0  0  0  0  0
   19.5656   19.0315   22.3627 C   0  0  0  0  0  0  0  0  0  0  0  0
   18.8875   18.1683   22.3147 H   0  0  0  0  0  0  0  0  0  0  0  0
   18.9464   19.9311   22.2501 H   0  0  0  0  0  0  0  0  0  0  0  0
   20.2619   19.0644   23.7422 C   0  0  0  0  0  0  0  0  0  0  0  0
   20.8823   18.1652   23.8508 H   0  0  0  0  0  0  0  0  0  0  0  0
   20.9389   19.9287   23.7901 H   0  0  0  0  0  0  0  0  0  0  0  0
   19.2374   19.1456   24.9005 C   0  0  0  0  0  0  0  0  0  0  0  0
   18.6006   18.2510   24.8950 H   0  0  0  0  0  0  0  0  0  0  0  0
   18.5734   20.0013   24.7203 H   0  0  0  0  0  0  0  0  0  0  0  0
   19.8847   19.3147   26.2940 C   0  0  2  0  0  0  0  0  0  0  0  0
   20.5457   20.1863   26.2620 H   0  0  0  0  0  0  0  0  0  0  0  0
   20.7177   18.0858   26.7004 C   0  0  0  0  0  0  0  0  0  0  0  0
   20.1106   17.1721   26.6851 H   0  0  0  0  0  0  0  0  0  0  0  0
   21.5718   17.9427   26.0285 H   0  0  0  0  0  0  0  0  0  0  0  0
   21.1200   18.2098   27.7134 H   0  0  0  0  0  0  0  0  0  0  0  0
   18.8468   19.6081   27.3414 N   0  3  0  0  0  0  0  0  0  0  0  0
   19.2745   19.7601   28.2594 H   0  0  0  0  0  0  0  0  0  0  0  0
   18.1836   18.8344   27.4377 H   0  0  0  0  0  0  0  0  0  0  0  0
   18.3082   20.4489   27.1135 H   0  0  0  0  0  0  0  0  0  0  0  0
  1  2  1  0  0  0  0
  1  3  1  0  0  0  0
  1  4  1  0  0  0  0
  1  5  1  0  0  0  0
  5  6  1  0  0  0  0
  5  7  1  0  0  0  0
  5  8  1  0  0  0  0
  8  9  1  0  0  0  0
  8 10  1  0  0  0  0
  8 11  1  0  0  0  0
 11 12  1  0  0  0  0
 11 13  1  0  0  0  0
 11 14  1  0  0  0  0
 14 15  1  0  0  0  0
 14 16  1  0  0  0  0
 14 17  1  0  0  0  0
 17 18  1  0  0  0  0
 17 19  1  0  0  0  0
 17 20  1  0  0  0  0
 20 21  1  0  0  0  0
 20 22  1  0  0  0  0
 22 23  1  0  0  0  0
 22 24  1  0  0  0  0
 22 25  1  0  0  0  0
 20 26  1  0  0  0  0
 26 27  1  0  0  0  0
 26 28  1  0  0  0  0
 26 29  1  0  0  0  0
M  END
> <VM2 Rank>
12

> <Conf_Id>
1356

> <Probability>
1.85

> <Sum Probability>
49.01

> <Delta G>
1.026

> <G>
34.728

> <E>
-2.781

> <-TS>
37.509

> <U+W>
-26.925

> <U>
24.926

> <W>
-51.852

> <W(PB)>
-54.366

> <W(SA)>
2.514

> <Valence>
4.212

> <Coulomb>
19.386

> <VdW>
1.329

> <VdW6>
-8.714

> <VdW12>
10.043

> <Bond>
0.235

> <Angle>
1.399

> <Pdih>
2.577

> <Idih>
0.000

> <Tether>
0.000

$$$$
VeraChem MOL file


 29 28  0  0  0  0  0  0  0  0999 V2000     
   18.9124   18.7261   19.3815 C   0  0  0  0  0  0  0  0  0  0  0  0
   18.0337   18.8028   20.0338 H   0  0  0  0  0  0  0  0  0  0  0  0
   18.5893   18.9751   18.3624 H   0  0  0  0  0  0  0  0  0  0  0  0
   19.2509   17.6819   19.3808 H   0  0  0  0  0  0  0  0  0  0  0  0
   20.0426   19.6764   19.8376 C   0  0  0  0  0  0  0  0  0  0  0  0
   19.6704   20.7102   19.8588 H   0  0  0  0  0  0  0  0  0  0  0  0
   20.8471   19.6545   19.0892 H   0  0  0  0  0  0  0  0  0  0  0  0
   20.6381   19.3061   21.2174 C   0  0  0  0  0  0  0  0  0  0  0  0
   21.0271   18.2790   21.1851 H   0  0  0  0  0  0  0  0  0  0  0  0
   21.5014   19.9578   21.4107 H   0  0  0  0  0  0  0  0  0  0  0  0
   19.6288   19.4460   22.3820 C   0  0  0  0  0  0  0  0  0  0  0  0
   18.7936   18.7479   22.2387 H   0  0  0  0  0  0  0  0  0  0  0  0
   19.2033   20.4589   22.3780 H   0  0  0  0  0  0  0  0  0  0  0  0
   20.2908   19.1681   23.7507 C   0  0  0  0  0  0  0  0  0  0  0  0
   20.7228   18.1589   23.7393 H   0  0  0  0  0  0  0  0  0  0  0  0
   21.1213   19.8707   23.9062 H   0  0  0  0  0  0  0  0  0  0  0  0
   19.2786   19.2999   24.9151 C   0  0  0  0  0  0  0  0  0  0  0  0
   18.4808   18.5544   24.7987 H   0  0  0  0  0  0  0  0  0  0  0  0
   18.7965   20.2843   24.8490 H   0  0  0  0  0  0  0  0  0  0  0  0
   19.9186   19.1623   26.3154 C   0  0  2  0  0  0  0  0  0  0  0  0
   20.7365   19.8854   26.3916 H   0  0  0  0  0  0  0  0  0  0  0  0
   20.4893   17.7534   26.5570 C   0  0  0  0  0  0  0  0  0  0  0  0
   19.7169   16.9849   26.4285 H   0  0  0  0  0  0  0  0  0  0  0  0
   21.3124   17.5326   25.8677 H   0  0  0  0  0  0  0  0  0  0  0  0
   20.8881   17.6676   27.5754 H   0  0  0  0  0  0  0  0  0  0  0  0
   18.9367   19.5176   27.3971 N   0  3  0  0  0  0  0  0  0  0  0  0
   18.5759   20.4691   27.2813 H   0  0  0  0  0  0  0  0  0  0  0  0
   19.3675   19.4662   28.3248 H   0  0  0  0  0  0  0  0  0  0  0  0
   18.1343   18.8821   27.3973 H   0  0  0  0  0  0  0  0  0  0  0  0
  1  2  1  0  0  0  0
  1  3  1  0  0  0  0
  1  4  1  0  0  0  0
  1  5  1  0  0  0  0
  5  6  1  0  0  0  0
  5  7  1  0  0  0  0
  5  8  1  0  0  0  0
  8  9  1  0  0  0  0
  8 10  1  0  0  0  0
  8 11  1  0  0  0  0
 11 12  1  0  0  0  0
 11 13  1  0  0  0  0
 11 14  1  0  0  0  0
 14 15  1  0  0  0  0
 14 16  1  0  0  0  0
 14 17  1  0  0  0  0
 17 18  1  0  0  0  0
 17 19  1  0  0  0  0
 17 20  1  0  0  0  0
 20 21  1  0  0  0  0
 20 22  1  0  0  0  0
 22 23  1  0  0  0  0
 22 24  1  0  0  0  0
 22 25  1  0  0  0  0
 20 26  1  0  0  0  0
 26 27  1  0  0  0  0
 26 28  1  0  0  0  0
 26 29  1  0  0  0  0
M  END
> <VM2 Rank>
13

> <Conf_Id>
1524

> <Probability>
1.68

> <Sum Probability>
50.69

> <Delta G>
1.082

> <G>
34.784

> <E>
-2.725

> <-TS>
37.509

> <U+W>
-26.870

> <U>
24.913

> <W>
-51.782

> <W(PB)>
-54.309

> <W(SA)>
2.527

> <Valence>
4.213

> <Coulomb>
19.377

> <VdW>
1.323

> <VdW6>
-8.715

> <VdW12>
10.039

> <Bond>
0.234

> <Angle>
1.400

> <Pdih>
2.579

> <Idih>
0.000

> <Tether>
0.000

$$$$
VeraChem MOL file


 29 28  0  0  0  0  0  0  0  0999 V2000     
   20.4593   19.9129   19.1358 C   0  0  0  0  0  0  0  0  0  0  0  0
   19.7393   19.4789   18.4298 H   0  0  0  0  0  0  0  0  0  0  0  0
   20.6833   20.9347   18.8028 H   0  0  0  0  0  0  0  0  0  0  0  0
   21.3874   19.3290   19.0801 H   0  0  0  0  0  0  0  0  0  0  0  0
   19.8941   19.9195   20.5719 C   0  0  0  0  0  0  0  0  0  0  0  0
   18.9837   20.5344   20.6022 H   0  0  0  0  0  0  0  0  0  0  0  0
   20.6238   20.3967   21.2393 H   0  0  0  0  0  0  0  0  0  0  0  0
   19.5746   18.4884   21.0649 C   0  0  0  0  0  0  0  0  0  0  0  0
   18.9065   18.0024   20.3405 H   0  0  0  0  0  0  0  0  0  0  0  0
   20.4954   17.8893   21.0848 H   0  0  0  0  0  0  0  0  0  0  0  0
   18.8991   18.4488   22.4577 C   0  0  0  0  0  0  0  0  0  0  0  0
   18.6062   17.4118   22.6724 H   0  0  0  0  0  0  0  0  0  0  0  0
   17.9688   19.0330   22.4311 H   0  0  0  0  0  0  0  0  0  0  0  0
   19.8074   18.9623   23.6008 C   0  0  0  0  0  0  0  0  0  0  0  0
   20.7584   18.4144   23.5747 H   0  0  0  0  0  0  0  0  0  0  0  0
   20.0423   20.0233   23.4448 H   0  0  0  0  0  0  0  0  0  0  0  0
   19.1346   18.7922   24.9850 C   0  0  0  0  0  0  0  0  0  0  0  0
   18.9611   17.7263   25.1845 H   0  0  0  0  0  0  0  0  0  0  0  0
   18.1455   19.2679   24.9531 H   0  0  0  0  0  0  0  0  0  0  0  0
   19.9389   19.4144   26.1492 C   0  0  2  0  0  0  0  0  0  0  0  0
   20.1330   20.4644   25.9096 H   0  0  0  0  0  0  0  0  0  0  0  0
   21.2884   18.7065   26.3662 C   0  0  0  0  0  0  0  0  0  0  0  0
   21.1489   17.6335   26.5476 H   0  0  0  0  0  0  0  0  0  0  0  0
   21.9459   18.8260   25.4974 H   0  0  0  0  0  0  0  0  0  0  0  0
   21.8132   19.1321   27.2303 H   0  0  0  0  0  0  0  0  0  0  0  0
   19.1396   19.4109   27.4225 N   0  3  0  0  0  0  0  0  0  0  0  0
   18.2549   19.9153   27.3139 H   0  0  0  0  0  0  0  0  0  0  0  0
   19.6530   19.8580   28.1876 H   0  0  0  0  0  0  0  0  0  0  0  0
   18.9157   18.4577   27.7209 H   0  0  0  0  0  0  0  0  0  0  0  0
  1  2  1  0  0  0  0
  1  3  1  0  0  0  0
  1  4  1  0  0  0  0
  1  5  1  0  0  0  0
  5  6  1  0  0  0  0
  5  7  1  0  0  0  0
  5  8  1  0  0  0  0
  8  9  1  0  0  0  0
  8 10  1  0  0  0  0
  8 11  1  0  0  0  0
 11 12  1  0  0  0  0
 11 13  1  0  0  0  0
 11 14  1  0  0  0  0
 14 15  1  0  0  0  0
 14 16  1  0  0  0  0
 14 17  1  0  0  0  0
 17 18  1  0  0  0  0
 17 19  1  0  0  0  0
 17 20  1  0  0  0  0
 20 21  1  0  0  0  0
 20 22  1  0  0  0  0
 22 23  1  0  0  0  0
 22 24  1  0  0  0  0
 22 25  1  0  0  0  0
 20 26  1  0  0  0  0
 26 27  1  0  0  0  0
 26 28  1  0  0  0  0
 26 29  1  0  0  0  0
M  END
> <VM2 Rank>
14

> <Conf_Id>
1512

> <Probability>
1.68

> <Sum Probability>
52.37

> <Delta G>
1.084

> <G>
34.786

> <E>
-2.715

> <-TS>
37.501

> <U+W>
-26.860

> <U>
25.087

> <W>
-51.946

> <W(PB)>
-54.500

> <W(SA)>
2.553

> <Valence>
4.250

> <Coulomb>
19.539

> <VdW>
1.297

> <VdW6>
-8.776

> <VdW12>
10.072

> <Bond>
0.238

> <Angle>
1.421

> <Pdih>
2.591

> <Idih>
0.000

> <Tether>
0.000

$$$$
VeraChem MOL file


 29 28  0  0  0  0  0  0  0  0999 V2000     
   20.6835   19.4593   19.1718 C   0  0  0  0  0  0  0  0  0  0  0  0
   21.3877   20.2462   19.4719 H   0  0  0  0  0  0  0  0  0  0  0  0
   21.2239   18.5038   19.1579 H   0  0  0  0  0  0  0  0  0  0  0  0
   20.3536   19.6750   18.1472 H   0  0  0  0  0  0  0  0  0  0  0  0
   19.4763   19.3996   20.1316 C   0  0  0  0  0  0  0  0  0  0  0  0
   18.7741   18.6281   19.7860 H   0  0  0  0  0  0  0  0  0  0  0  0
   18.9370   20.3567   20.0994 H   0  0  0  0  0  0  0  0  0  0  0  0
   19.9132   19.0963   21.5818 C   0  0  0  0  0  0  0  0  0  0  0  0
   20.4498   18.1379   21.6092 H   0  0  0  0  0  0  0  0  0  0  0  0
   20.6207   19.8685   21.9108 H   0  0  0  0  0  0  0  0  0  0  0  0
   18.7038   19.0405   22.5458 C   0  0  0  0  0  0  0  0  0  0  0  0
   17.9707   18.3199   22.1576 H   0  0  0  0  0  0  0  0  0  0  0  0
   18.1978   20.0156   22.5629 H   0  0  0  0  0  0  0  0  0  0  0  0
   19.0807   18.6257   23.9893 C   0  0  0  0  0  0  0  0  0  0  0  0
   18.1523   18.4982   24.5610 H   0  0  0  0  0  0  0  0  0  0  0  0
   19.5674   17.6417   23.9638 H   0  0  0  0  0  0  0  0  0  0  0  0
   19.9950   19.6561   24.7068 C   0  0  0  0  0  0  0  0  0  0  0  0
   19.5455   20.6546   24.6282 H   0  0  0  0  0  0  0  0  0  0  0  0
   20.9609   19.7160   24.1901 H   0  0  0  0  0  0  0  0  0  0  0  0
   20.2634   19.3559   26.2004 C   0  0  2  0  0  0  0  0  0  0  0  0
   20.9052   20.1559   26.5825 H   0  0  0  0  0  0  0  0  0  0  0  0
   21.0106   18.0254   26.3967 C   0  0  0  0  0  0  0  0  0  0  0  0
   21.9241   17.9981   25.7898 H   0  0  0  0  0  0  0  0  0  0  0  0
   21.3046   17.9017   27.4462 H   0  0  0  0  0  0  0  0  0  0  0  0
   20.3879   17.1663   26.1198 H   0  0  0  0  0  0  0  0  0  0  0  0
   19.0095   19.3972   27.0298 N   0  3  0  0  0  0  0  0  0  0  0  0
   19.2139   19.2591   28.0237 H   0  0  0  0  0  0  0  0  0  0  0  0
   18.3529   18.6656   26.7470 H   0  0  0  0  0  0  0  0  0  0  0  0
   18.5282   20.2964   26.9382 H   0  0  0  0  0  0  0  0  0  0  0  0
  1  2  1  0  0  0  0
  1  3  1  0  0  0  0
  1  4  1  0  0  0  0
  1  5  1  0  0  0  0
  5  6  1  0  0  0  0
  5  7  1  0  0  0  0
  5  8  1  0  0  0  0
  8  9  1  0  0  0  0
  8 10  1  0  0  0  0
  8 11  1  0  0  0  0
 11 12  1  0  0  0  0
 11 13  1  0  0  0  0
 11 14  1  0  0  0  0
 14 15  1  0  0  0  0
 14 16  1  0  0  0  0
 14 17  1  0  0  0  0
 17 18  1  0  0  0  0
 17 19  1  0  0  0  0
 17 20  1  0  0  0  0
 20 21  1  0  0  0  0
 20 22  1  0  0  0  0
 22 23  1  0  0  0  0
 22 24  1  0  0  0  0
 22 25  1  0  0  0  0
 20 26  1  0  0  0  0
 26 27  1  0  0  0  0
 26 28  1  0  0  0  0
 26 29  1  0  0  0  0
M  END
> <VM2 Rank>
15

> <Conf_Id>
1658

> <Probability>
1.66

> <Sum Probability>
54.03

> <Delta G>
1.090

> <G>
34.792

> <E>
-2.851

> <-TS>
37.643

> <U+W>
-26.995

> <U>
25.162

> <W>
-52.157

> <W(PB)>
-54.678

> <W(SA)>
2.521

> <Valence>
4.202

> <Coulomb>
19.686

> <VdW>
1.273

> <VdW6>
-9.288

> <VdW12>
10.561

> <Bond>
0.271

> <Angle>
1.436

> <Pdih>
2.495

> <Idih>
0.000

> <Tether>
0.000

$$$$
VeraChem MOL file


 29 28  0  0  0  0  0  0  0  0999 V2000     
   18.5742   19.2292   19.2953 C   0  0  0  0  0  0  0  0  0  0  0  0
   18.3249   18.1601   19.2836 H   0  0  0  0  0  0  0  0  0  0  0  0
   17.7172   19.7757   19.7103 H   0  0  0  0  0  0  0  0  0  0  0  0
   18.7103   19.5550   18.2559 H   0  0  0  0  0  0  0  0  0  0  0  0
   19.8518   19.4918   20.1203 C   0  0  0  0  0  0  0  0  0  0  0  0
   20.0942   20.5632   20.0863 H   0  0  0  0  0  0  0  0  0  0  0  0
   20.6973   18.9606   19.6612 H   0  0  0  0  0  0  0  0  0  0  0  0
   19.6871   19.0411   21.5886 C   0  0  0  0  0  0  0  0  0  0  0  0
   18.8347   19.5718   22.0324 H   0  0  0  0  0  0  0  0  0  0  0  0
   19.4469   17.9693   21.6175 H   0  0  0  0  0  0  0  0  0  0  0  0
   20.9663   19.3075   22.4178 C   0  0  0  0  0  0  0  0  0  0  0  0
   21.1798   20.3852   22.4338 H   0  0  0  0  0  0  0  0  0  0  0  0
   21.8219   18.8313   21.9193 H   0  0  0  0  0  0  0  0  0  0  0  0
   20.8838   18.7728   23.8686 C   0  0  0  0  0  0  0  0  0  0  0  0
   20.7020   17.6903   23.8413 H   0  0  0  0  0  0  0  0  0  0  0  0
   21.8629   18.9121   24.3477 H   0  0  0  0  0  0  0  0  0  0  0  0
   19.7987   19.4767   24.7236 C   0  0  0  0  0  0  0  0  0  0  0  0
   18.7998   19.2336   24.3398 H   0  0  0  0  0  0  0  0  0  0  0  0
   19.9197   20.5628   24.6180 H   0  0  0  0  0  0  0  0  0  0  0  0
   19.8678   19.1198   26.2258 C   0  0  2  0  0  0  0  0  0  0  0  0
   20.8793   19.3350   26.5836 H   0  0  0  0  0  0  0  0  0  0  0  0
   19.5666   17.6322   26.4816 C   0  0  0  0  0  0  0  0  0  0  0  0
   18.5824   17.3527   26.0854 H   0  0  0  0  0  0  0  0  0  0  0  0
   20.3206   16.9871   26.0157 H   0  0  0  0  0  0  0  0  0  0  0  0
   19.5744   17.4158   27.5570 H   0  0  0  0  0  0  0  0  0  0  0  0
   18.9397   19.9849   27.0324 N   0  3  0  0  0  0  0  0  0  0  0  0
   19.1504   20.9798   26.9107 H   0  0  0  0  0  0  0  0  0  0  0  0
   19.0116   19.7788   28.0329 H   0  0  0  0  0  0  0  0  0  0  0  0
   17.9634   19.8415   26.7603 H   0  0  0  0  0  0  0  0  0  0  0  0
  1  2  1  0  0  0  0
  1  3  1  0  0  0  0
  1  4  1  0  0  0  0
  1  5  1  0  0  0  0
  5  6  1  0  0  0  0
  5  7  1  0  0  0  0
  5  8  1  0  0  0  0
  8  9  1  0  0  0  0
  8 10  1  0  0  0  0
  8 11  1  0  0  0  0
 11 12  1  0  0  0  0
 11 13  1  0  0  0  0
 11 14  1  0  0  0  0
 14 15  1  0  0  0  0
 14 16  1  0  0  0  0
 14 17  1  0  0  0  0
 17 18  1  0  0  0  0
 17 19  1  0  0  0  0
 17 20  1  0  0  0  0
 20 21  1  0  0  0  0
 20 22  1  0  0  0  0
 22 23  1  0  0  0  0
 22 24  1  0  0  0  0
 22 25  1  0  0  0  0
 20 26  1  0  0  0  0
 26 27  1  0  0  0  0
 26 28  1  0  0  0  0
 26 29  1  0  0  0  0
M  END
> <VM2 Rank>
16

> <Conf_Id>
39

> <Probability>
1.59

> <Sum Probability>
55.62

> <Delta G>
1.115

> <G>
34.817

> <E>
-2.717

> <-TS>
37.534

> <U+W>
-26.861

> <U>
25.129

> <W>
-51.990

> <W(PB)>
-54.526

> <W(SA)>
2.536

> <Valence>
4.206

> <Coulomb>
19.678

> <VdW>
1.245

> <VdW6>
-8.834

> <VdW12>
10.079

> <Bond>
0.240

> <Angle>
1.353

> <Pdih>
2.613

> <Idih>
0.000

> <Tether>
0.000

$$$$
VeraChem MOL file


 29 28  0  0  0  0  0  0  0  0999 V2000     
   20.6587   19.2260   19.1207 C   0  0  0  0  0  0  0  0  0  0  0  0
   19.8016   19.2000   18.4353 H   0  0  0  0  0  0  0  0  0  0  0  0
   21.0753   20.2417   19.1090 H   0  0  0  0  0  0  0  0  0  0  0  0
   21.4238   18.5431   18.7293 H   0  0  0  0  0  0  0  0  0  0  0  0
   20.2407   18.8151   20.5485 C   0  0  0  0  0  0  0  0  0  0  0  0
   21.1298   18.8135   21.1927 H   0  0  0  0  0  0  0  0  0  0  0  0
   19.8555   17.7859   20.5331 H   0  0  0  0  0  0  0  0  0  0  0  0
   19.1651   19.7669   21.1233 C   0  0  0  0  0  0  0  0  0  0  0  0
   19.5698   20.7863   21.1896 H   0  0  0  0  0  0  0  0  0  0  0  0
   18.3209   19.8158   20.4217 H   0  0  0  0  0  0  0  0  0  0  0  0
   18.6264   19.3311   22.5081 C   0  0  0  0  0  0  0  0  0  0  0  0
   18.2096   18.3169   22.4378 H   0  0  0  0  0  0  0  0  0  0  0  0
   17.7896   19.9904   22.7771 H   0  0  0  0  0  0  0  0  0  0  0  0
   19.6907   19.3820   23.6307 C   0  0  0  0  0  0  0  0  0  0  0  0
   20.4968   18.6747   23.4014 H   0  0  0  0  0  0  0  0  0  0  0  0
   20.1405   20.3839   23.6643 H   0  0  0  0  0  0  0  0  0  0  0  0
   19.0803   19.0438   25.0131 C   0  0  0  0  0  0  0  0  0  0  0  0
   18.6845   18.0195   25.0023 H   0  0  0  0  0  0  0  0  0  0  0  0
   18.2229   19.7068   25.1888 H   0  0  0  0  0  0  0  0  0  0  0  0
   20.0710   19.2062   26.1886 C   0  0  2  0  0  0  0  0  0  0  0  0
   20.4830   20.2195   26.1528 H   0  0  0  0  0  0  0  0  0  0  0  0
   21.2360   18.2033   26.1098 C   0  0  0  0  0  0  0  0  0  0  0  0
   20.8686   17.1700   26.0765 H   0  0  0  0  0  0  0  0  0  0  0  0
   21.8537   18.3778   25.2214 H   0  0  0  0  0  0  0  0  0  0  0  0
   21.8912   18.3030   26.9840 H   0  0  0  0  0  0  0  0  0  0  0  0
   19.3670   19.0815   27.5112 N   0  3  0  0  0  0  0  0  0  0  0  0
   20.0117   19.2278   28.2933 H   0  0  0  0  0  0  0  0  0  0  0  0
   18.9513   18.1534   27.6275 H   0  0  0  0  0  0  0  0  0  0  0  0
   18.6144   19.7699   27.6042 H   0  0  0  0  0  0  0  0  0  0  0  0
  1  2  1  0  0  0  0
  1  3  1  0  0  0  0
  1  4  1  0  0  0  0
  1  5  1  0  0  0  0
  5  6  1  0  0  0  0
  5  7  1  0  0  0  0
  5  8  1  0  0  0  0
  8  9  1  0  0  0  0
  8 10  1  0  0  0  0
  8 11  1  0  0  0  0
 11 12  1  0  0  0  0
 11 13  1  0  0  0  0
 11 14  1  0  0  0  0
 14 15  1  0  0  0  0
 14 16  1  0  0  0  0
 14 17  1  0  0  0  0
 17 18  1  0  0  0  0
 17 19  1  0  0  0  0
 17 20  1  0  0  0  0
 20 21  1  0  0  0  0
 20 22  1  0  0  0  0
 22 23  1  0  0  0  0
 22 24  1  0  0  0  0
 22 25  1  0  0  0  0
 20 26  1  0  0  0  0
 26 27  1  0  0  0  0
 26 28  1  0  0  0  0
 26 29  1  0  0  0  0
M  END
> <VM2 Rank>
17

> <Conf_Id>
1539

> <Probability>
1.57

> <Sum Probability>
57.19

> <Delta G>
1.123

> <G>
34.825

> <E>
-2.668

> <-TS>
37.493

> <U+W>
-26.812

> <U>
25.086

> <W>
-51.898

> <W(PB)>
-54.409

> <W(SA)>
2.511

> <Valence>
4.252

> <Coulomb>
19.525

> <VdW>
1.309

> <VdW6>
-8.788

> <VdW12>
10.097

> <Bond>
0.241

> <Angle>
1.423

> <Pdih>
2.589

> <Idih>
0.000

> <Tether>
0.000

$$$$
VeraChem MOL file


 29 28  0  0  0  0  0  0  0  0999 V2000     
   20.3066   18.5733   19.5180 C   0  0  0  0  0  0  0  0  0  0  0  0
   20.2476   18.5625   18.4219 H   0  0  0  0  0  0  0  0  0  0  0  0
   21.2471   19.0667   19.7931 H   0  0  0  0  0  0  0  0  0  0  0  0
   20.3506   17.5318   19.8623 H   0  0  0  0  0  0  0  0  0  0  0  0
   19.0853   19.3057   20.1183 C   0  0  0  0  0  0  0  0  0  0  0  0
   18.1677   18.8485   19.7224 H   0  0  0  0  0  0  0  0  0  0  0  0
   19.0785   20.3513   19.7801 H   0  0  0  0  0  0  0  0  0  0  0  0
   19.0391   19.2549   21.6644 C   0  0  0  0  0  0  0  0  0  0  0  0
   18.0951   19.7053   22.0005 H   0  0  0  0  0  0  0  0  0  0  0  0
   19.0164   18.2060   21.9880 H   0  0  0  0  0  0  0  0  0  0  0  0
   20.2221   19.9950   22.3380 C   0  0  0  0  0  0  0  0  0  0  0  0
   20.3037   21.0039   21.9106 H   0  0  0  0  0  0  0  0  0  0  0  0
   21.1662   19.4838   22.1079 H   0  0  0  0  0  0  0  0  0  0  0  0
   20.0730   20.1219   23.8738 C   0  0  0  0  0  0  0  0  0  0  0  0
   20.8983   20.7400   24.2539 H   0  0  0  0  0  0  0  0  0  0  0  0
   19.1468   20.6657   24.1024 H   0  0  0  0  0  0  0  0  0  0  0  0
   20.0861   18.7563   24.6069 C   0  0  0  0  0  0  0  0  0  0  0  0
   20.9669   18.1868   24.2816 H   0  0  0  0  0  0  0  0  0  0  0  0
   19.2060   18.1656   24.3226 H   0  0  0  0  0  0  0  0  0  0  0  0
   20.1269   18.9022   26.1432 C   0  0  2  0  0  0  0  0  0  0  0  0
   21.0001   19.5067   26.4073 H   0  0  0  0  0  0  0  0  0  0  0  0
   20.2748   17.5242   26.8077 C   0  0  0  0  0  0  0  0  0  0  0  0
   19.4194   16.8775   26.5753 H   0  0  0  0  0  0  0  0  0  0  0  0
   21.1870   17.0213   26.4632 H   0  0  0  0  0  0  0  0  0  0  0  0
   20.3416   17.6241   27.8981 H   0  0  0  0  0  0  0  0  0  0  0  0
   18.9221   19.6225   26.6839 N   0  3  0  0  0  0  0  0  0  0  0  0
   18.8351   20.5592   26.2805 H   0  0  0  0  0  0  0  0  0  0  0  0
   18.9757   19.7302   27.7008 H   0  0  0  0  0  0  0  0  0  0  0  0
   18.0587   19.1145   26.4740 H   0  0  0  0  0  0  0  0  0  0  0  0
  1  2  1  0  0  0  0
  1  3  1  0  0  0  0
  1  4  1  0  0  0  0
  1  5  1  0  0  0  0
  5  6  1  0  0  0  0
  5  7  1  0  0  0  0
  5  8  1  0  0  0  0
  8  9  1  0  0  0  0
  8 10  1  0  0  0  0
  8 11  1  0  0  0  0
 11 12  1  0  0  0  0
 11 13  1  0  0  0  0
 11 14  1  0  0  0  0
 14 15  1  0  0  0  0
 14 16  1  0  0  0  0
 14 17  1  0  0  0  0
 17 18  1  0  0  0  0
 17 19  1  0  0  0  0
 17 20  1  0  0  0  0
 20 21  1  0  0  0  0
 20 22  1  0  0  0  0
 22 23  1  0  0  0  0
 22 24  1  0  0  0  0
 22 25  1  0  0  0  0
 20 26  1  0  0  0  0
 26 27  1  0  0  0  0
 26 28  1  0  0  0  0
 26 29  1  0  0  0  0
M  END
> <VM2 Rank>
18

> <Conf_Id>
679

> <Probability>
1.55

> <Sum Probability>
58.75

> <Delta G>
1.131

> <G>
34.833

> <E>
-2.803

> <-TS>
37.636

> <U+W>
-26.947

> <U>
25.271

> <W>
-52.218

> <W(PB)>
-54.704

> <W(SA)>
2.486

> <Valence>
4.168

> <Coulomb>
19.867

> <VdW>
1.235

> <VdW6>
-9.311

> <VdW12>
10.546

> <Bond>
0.263

> <Angle>
1.298

> <Pdih>
2.606

> <Idih>
0.000

> <Tether>
0.000

$$$$
VeraChem MOL file


 29 28  0  0  0  0  0  0  0  0999 V2000     
   20.9123   19.7236   19.6762 C   0  0  0  0  0  0  0  0  0  0  0  0
   20.8519   18.7261   19.2218 H   0  0  0  0  0  0  0  0  0  0  0  0
   20.8880   20.4648   18.8667 H   0  0  0  0  0  0  0  0  0  0  0  0
   21.8820   19.8102   20.1835 H   0  0  0  0  0  0  0  0  0  0  0  0
   19.7477   19.9552   20.6621 C   0  0  0  0  0  0  0  0  0  0  0  0
   18.7938   19.8969   20.1193 H   0  0  0  0  0  0  0  0  0  0  0  0
   19.8162   20.9714   21.0750 H   0  0  0  0  0  0  0  0  0  0  0  0
   19.7583   18.9237   21.8116 C   0  0  0  0  0  0  0  0  0  0  0  0
   19.6867   17.9097   21.3946 H   0  0  0  0  0  0  0  0  0  0  0  0
   20.7195   18.9855   22.3385 H   0  0  0  0  0  0  0  0  0  0  0  0
   18.5945   19.1581   22.8040 C   0  0  0  0  0  0  0  0  0  0  0  0
   17.6464   19.1612   22.2486 H   0  0  0  0  0  0  0  0  0  0  0  0
   18.6858   20.1569   23.2511 H   0  0  0  0  0  0  0  0  0  0  0  0
   18.5042   18.0823   23.9171 C   0  0  0  0  0  0  0  0  0  0  0  0
   17.6299   18.2952   24.5467 H   0  0  0  0  0  0  0  0  0  0  0  0
   18.3046   17.1057   23.4548 H   0  0  0  0  0  0  0  0  0  0  0  0
   19.7662   17.9606   24.8124 C   0  0  0  0  0  0  0  0  0  0  0  0
   20.5953   17.5620   24.2139 H   0  0  0  0  0  0  0  0  0  0  0  0
   19.5768   17.2148   25.5958 H   0  0  0  0  0  0  0  0  0  0  0  0
   20.2058   19.2888   25.4670 C   0  0  2  0  0  0  0  0  0  0  0  0
   20.3924   20.0182   24.6732 H   0  0  0  0  0  0  0  0  0  0  0  0
   21.5108   19.0922   26.2542 C   0  0  0  0  0  0  0  0  0  0  0  0
   21.3781   18.3692   27.0688 H   0  0  0  0  0  0  0  0  0  0  0  0
   22.3098   18.7251   25.5981 H   0  0  0  0  0  0  0  0  0  0  0  0
   21.8476   20.0407   26.6903 H   0  0  0  0  0  0  0  0  0  0  0  0
   19.1363   19.8715   26.3494 N   0  3  0  0  0  0  0  0  0  0  0  0
   18.2720   20.0346   25.8259 H   0  0  0  0  0  0  0  0  0  0  0  0
   19.4281   20.7672   26.7510 H   0  0  0  0  0  0  0  0  0  0  0  0
   18.9126   19.2445   27.1268 H   0  0  0  0  0  0  0  0  0  0  0  0
  1  2  1  0  0  0  0
  1  3  1  0  0  0  0
  1  4  1  0  0  0  0
  1  5  1  0  0  0  0
  5  6  1  0  0  0  0
  5  7  1  0  0  0  0
  5  8  1  0  0  0  0
  8  9  1  0  0  0  0
  8 10  1  0  0  0  0
  8 11  1  0  0  0  0
 11 12  1  0  0  0  0
 11 13  1  0  0  0  0
 11 14  1  0  0  0  0
 14 15  1  0  0  0  0
 14 16  1  0  0  0  0
 14 17  1  0  0  0  0
 17 18  1  0  0  0  0
 17 19  1  0  0  0  0
 17 20  1  0  0  0  0
 20 21  1  0  0  0  0
 20 22  1  0  0  0  0
 22 23  1  0  0  0  0
 22 24  1  0  0  0  0
 22 25  1  0  0  0  0
 20 26  1  0  0  0  0
 26 27  1  0  0  0  0
 26 28  1  0  0  0  0
 26 29  1  0  0  0  0
M  END
> <VM2 Rank>
19

> <Conf_Id>
1258

> <Probability>
1.54

> <Sum Probability>
60.29

> <Delta G>
1.133

> <G>
34.835

> <E>
-3.024

> <-TS>
37.860

> <U+W>
-27.169

> <U>
25.092

> <W>
-52.261

> <W(PB)>
-54.740

> <W(SA)>
2.480

> <Valence>
3.930

> <Coulomb>
20.383

> <VdW>
0.779

> <VdW6>
-9.976

> <VdW12>
10.755

> <Bond>
0.263

> <Angle>
1.407

> <Pdih>
2.259

> <Idih>
0.000

> <Tether>
0.000

$$$$
VeraChem MOL file


 29 28  0  0  0  0  0  0  0  0999 V2000     
   19.1179   20.2368   19.2406 C   0  0  0  0  0  0  0  0  0  0  0  0
   19.8412   21.0625   19.2567 H   0  0  0  0  0  0  0  0  0  0  0  0
   18.9617   19.9457   18.1938 H   0  0  0  0  0  0  0  0  0  0  0  0
   18.1630   20.6108   19.6325 H   0  0  0  0  0  0  0  0  0  0  0  0
   19.6262   19.0381   20.0694 C   0  0  0  0  0  0  0  0  0  0  0  0
   20.5632   18.6649   19.6327 H   0  0  0  0  0  0  0  0  0  0  0  0
   18.8983   18.2170   20.0076 H   0  0  0  0  0  0  0  0  0  0  0  0
   19.8553   19.4212   21.5482 C   0  0  0  0  0  0  0  0  0  0  0  0
   20.5852   20.2405   21.6047 H   0  0  0  0  0  0  0  0  0  0  0  0
   18.9148   19.8012   21.9675 H   0  0  0  0  0  0  0  0  0  0  0  0
   20.3613   18.2183   22.3805 C   0  0  0  0  0  0  0  0  0  0  0  0
   21.2541   17.8009   21.8946 H   0  0  0  0  0  0  0  0  0  0  0  0
   19.6067   17.4196   22.3760 H   0  0  0  0  0  0  0  0  0  0  0  0
   20.7259   18.5800   23.8417 C   0  0  0  0  0  0  0  0  0  0  0  0
   21.2102   17.7045   24.2926 H   0  0  0  0  0  0  0  0  0  0  0  0
   21.4744   19.3844   23.8455 H   0  0  0  0  0  0  0  0  0  0  0  0
   19.5037   18.9975   24.7006 C   0  0  0  0  0  0  0  0  0  0  0  0
   18.7608   18.1890   24.7060 H   0  0  0  0  0  0  0  0  0  0  0  0
   19.0186   19.8637   24.2349 H   0  0  0  0  0  0  0  0  0  0  0  0
   19.8659   19.3802   26.1542 C   0  0  2  0  0  0  0  0  0  0  0  0
   20.6498   20.1432   26.1233 H   0  0  0  0  0  0  0  0  0  0  0  0
   20.3865   18.1775   26.9618 C   0  0  0  0  0  0  0  0  0  0  0  0
   19.6594   17.3559   26.9635 H   0  0  0  0  0  0  0  0  0  0  0  0
   21.3312   17.8004   26.5541 H   0  0  0  0  0  0  0  0  0  0  0  0
   20.5764   18.4651   28.0033 H   0  0  0  0  0  0  0  0  0  0  0  0
   18.6933   20.0063   26.8569 N   0  3  0  0  0  0  0  0  0  0  0  0
   18.3564   20.8371   26.3619 H   0  0  0  0  0  0  0  0  0  0  0  0
   18.9391   20.2972   27.8076 H   0  0  0  0  0  0  0  0  0  0  0  0
   17.9091   19.3526   26.9307 H   0  0  0  0  0  0  0  0  0  0  0  0
  1  2  1  0  0  0  0
  1  3  1  0  0  0  0
  1  4  1  0  0  0  0
  1  5  1  0  0  0  0
  5  6  1  0  0  0  0
  5  7  1  0  0  0  0
  5  8  1  0  0  0  0
  8  9  1  0  0  0  0
  8 10  1  0  0  0  0
  8 11  1  0  0  0  0
 11 12  1  0  0  0  0
 11 13  1  0  0  0  0
 11 14  1  0  0  0  0
 14 15  1  0  0  0  0
 14 16  1  0  0  0  0
 14 17  1  0  0  0  0
 17 18  1  0  0  0  0
 17 19  1  0  0  0  0
 17 20  1  0  0  0  0
 20 21  1  0  0  0  0
 20 22  1  0  0  0  0
 22 23  1  0  0  0  0
 22 24  1  0  0  0  0
 22 25  1  0  0  0  0
 20 26  1  0  0  0  0
 26 27  1  0  0  0  0
 26 28  1  0  0  0  0
 26 29  1  0  0  0  0
M  END
> <VM2 Rank>
20

> <Conf_Id>
1214

> <Probability>
1.53

> <Sum Probability>
61.82

> <Delta G>
1.139

> <G>
34.841

> <E>
-2.579

> <-TS>
37.421

> <U+W>
-26.724

> <U>
25.442

> <W>
-52.166

> <W(PB)>
-54.688

> <W(SA)>
2.522

> <Valence>
4.342

> <Coulomb>
19.740

> <VdW>
1.360

> <VdW6>
-8.739

> <VdW12>
10.099

> <Bond>
0.251

> <Angle>
1.484

> <Pdih>
2.608

> <Idih>
0.000

> <Tether>
0.000

$$$$
VeraChem MOL file


 29 28  0  0  0  0  0  0  0  0999 V2000     
   19.8875   20.2403   19.4607 C   0  0  0  0  0  0  0  0  0  0  0  0
   19.0097   20.8840   19.6022 H   0  0  0  0  0  0  0  0  0  0  0  0
   20.7244   20.6704   20.0247 H   0  0  0  0  0  0  0  0  0  0  0  0
   20.1572   20.2691   18.3971 H   0  0  0  0  0  0  0  0  0  0  0  0
   19.5901   18.7899   19.9039 C   0  0  0  0  0  0  0  0  0  0  0  0
   20.4917   18.1736   19.7811 H   0  0  0  0  0  0  0  0  0  0  0  0
   18.8320   18.3630   19.2324 H   0  0  0  0  0  0  0  0  0  0  0  0
   19.0785   18.6846   21.3608 C   0  0  0  0  0  0  0  0  0  0  0  0
   18.1660   19.2862   21.4734 H   0  0  0  0  0  0  0  0  0  0  0  0
   18.7877   17.6427   21.5535 H   0  0  0  0  0  0  0  0  0  0  0  0
   20.1246   19.1204   22.4146 C   0  0  0  0  0  0  0  0  0  0  0  0
   20.3726   20.1811   22.2778 H   0  0  0  0  0  0  0  0  0  0  0  0
   21.0536   18.5529   22.2653 H   0  0  0  0  0  0  0  0  0  0  0  0
   19.6121   18.9017   23.8561 C   0  0  0  0  0  0  0  0  0  0  0  0
   18.6812   19.4669   23.9964 H   0  0  0  0  0  0  0  0  0  0  0  0
   19.3661   17.8403   23.9910 H   0  0  0  0  0  0  0  0  0  0  0  0
   20.6629   19.3406   24.9090 C   0  0  0  0  0  0  0  0  0  0  0  0
   20.9350   20.3893   24.7312 H   0  0  0  0  0  0  0  0  0  0  0  0
   21.5844   18.7610   24.7652 H   0  0  0  0  0  0  0  0  0  0  0  0
   20.2099   19.1965   26.3811 C   0  0  2  0  0  0  0  0  0  0  0  0
   21.0255   19.5670   27.0099 H   0  0  0  0  0  0  0  0  0  0  0  0
   19.9548   17.7292   26.7674 C   0  0  0  0  0  0  0  0  0  0  0  0
   19.7695   17.6433   27.8451 H   0  0  0  0  0  0  0  0  0  0  0  0
   19.0835   17.3175   26.2444 H   0  0  0  0  0  0  0  0  0  0  0  0
   20.8257   17.1061   26.5290 H   0  0  0  0  0  0  0  0  0  0  0  0
   19.0156   20.0529   26.7005 N   0  3  0  0  0  0  0  0  0  0  0  0
   18.1964   19.7632   26.1605 H   0  0  0  0  0  0  0  0  0  0  0  0
   19.1931   21.0388   26.4878 H   0  0  0  0  0  0  0  0  0  0  0  0
   18.7671   19.9934   27.6921 H   0  0  0  0  0  0  0  0  0  0  0  0
  1  2  1  0  0  0  0
  1  3  1  0  0  0  0
  1  4  1  0  0  0  0
  1  5  1  0  0  0  0
  5  6  1  0  0  0  0
  5  7  1  0  0  0  0
  5  8  1  0  0  0  0
  8  9  1  0  0  0  0
  8 10  1  0  0  0  0
  8 11  1  0  0  0  0
 11 12  1  0  0  0  0
 11 13  1  0  0  0  0
 11 14  1  0  0  0  0
 14 15  1  0  0  0  0
 14 16  1  0  0  0  0
 14 17  1  0  0  0  0
 17 18  1  0  0  0  0
 17 19  1  0  0  0  0
 17 20  1  0  0  0  0
 20 21  1  0  0  0  0
 20 22  1  0  0  0  0
 22 23  1  0  0  0  0
 22 24  1  0  0  0  0
 22 25  1  0  0  0  0
 20 26  1  0  0  0  0
 26 27  1  0  0  0  0
 26 28  1  0  0  0  0
 26 29  1  0  0  0  0
M  END
> <VM2 Rank>
21

> <Conf_Id>
688

> <Probability>
1.52

> <Sum Probability>
63.34

> <Delta G>
1.144

> <G>
34.846

> <E>
-2.795

> <-TS>
37.640

> <U+W>
-26.939

> <U>
25.147

> <W>
-52.086

> <W(PB)>
-54.575

> <W(SA)>
2.489

> <Valence>
4.181

> <Coulomb>
19.656

> <VdW>
1.310

> <VdW6>
-9.191

> <VdW12>
10.501

> <Bond>
0.259

> <Angle>
1.449

> <Pdih>
2.473

> <Idih>
0.000

> <Tether>
0.000

$$$$
VeraChem MOL file


 29 28  0  0  0  0  0  0  0  0999 V2000     
   20.4990   18.9696   19.3630 C   0  0  0  0  0  0  0  0  0  0  0  0
   20.4425   17.8733   19.3706 H   0  0  0  0  0  0  0  0  0  0  0  0
   20.6329   19.2917   18.3222 H   0  0  0  0  0  0  0  0  0  0  0  0
   21.3948   19.2720   19.9194 H   0  0  0  0  0  0  0  0  0  0  0  0
   19.2198   19.5961   19.9625 C   0  0  0  0  0  0  0  0  0  0  0  0
   18.3707   19.3656   19.3040 H   0  0  0  0  0  0  0  0  0  0  0  0
   19.3136   20.6910   19.9715 H   0  0  0  0  0  0  0  0  0  0  0  0
   18.8952   19.0870   21.3876 C   0  0  0  0  0  0  0  0  0  0  0  0
   17.9200   19.4935   21.6891 H   0  0  0  0  0  0  0  0  0  0  0  0
   18.7826   17.9942   21.3698 H   0  0  0  0  0  0  0  0  0  0  0  0
   19.9564   19.4855   22.4411 C   0  0  0  0  0  0  0  0  0  0  0  0
   20.1033   20.5741   22.4194 H   0  0  0  0  0  0  0  0  0  0  0  0
   20.9221   19.0275   22.1902 H   0  0  0  0  0  0  0  0  0  0  0  0
   19.5435   19.0479   23.8647 C   0  0  0  0  0  0  0  0  0  0  0  0
   18.5799   19.5088   24.1184 H   0  0  0  0  0  0  0  0  0  0  0  0
   19.3911   17.9606   23.8736 H   0  0  0  0  0  0  0  0  0  0  0  0
   20.6128   19.4427   24.9165 C   0  0  0  0  0  0  0  0  0  0  0  0
   20.7903   20.5248   24.8611 H   0  0  0  0  0  0  0  0  0  0  0  0
   21.5682   18.9665   24.6591 H   0  0  0  0  0  0  0  0  0  0  0  0
   20.2549   19.0807   26.3773 C   0  0  2  0  0  0  0  0  0  0  0  0
   21.0721   19.4394   27.0107 H   0  0  0  0  0  0  0  0  0  0  0  0
   20.1384   17.5606   26.5850 C   0  0  0  0  0  0  0  0  0  0  0  0
   19.2749   17.1433   26.0535 H   0  0  0  0  0  0  0  0  0  0  0  0
   21.0415   17.0483   26.2304 H   0  0  0  0  0  0  0  0  0  0  0  0
   20.0204   17.3272   27.6502 H   0  0  0  0  0  0  0  0  0  0  0  0
   19.0161   19.7860   26.8563 N   0  3  0  0  0  0  0  0  0  0  0  0
   19.1028   20.8021   26.7628 H   0  0  0  0  0  0  0  0  0  0  0  0
   18.8284   19.5842   27.8426 H   0  0  0  0  0  0  0  0  0  0  0  0
   18.1937   19.4959   26.3215 H   0  0  0  0  0  0  0  0  0  0  0  0
  1  2  1  0  0  0  0
  1  3  1  0  0  0  0
  1  4  1  0  0  0  0
  1  5  1  0  0  0  0
  5  6  1  0  0  0  0
  5  7  1  0  0  0  0
  5  8  1  0  0  0  0
  8  9  1  0  0  0  0
  8 10  1  0  0  0  0
  8 11  1  0  0  0  0
 11 12  1  0  0  0  0
 11 13  1  0  0  0  0
 11 14  1  0  0  0  0
 14 15  1  0  0  0  0
 14 16  1  0  0  0  0
 14 17  1  0  0  0  0
 17 18  1  0  0  0  0
 17 19  1  0  0  0  0
 17 20  1  0  0  0  0
 20 21  1  0  0  0  0
 20 22  1  0  0  0  0
 22 23  1  0  0  0  0
 22 24  1  0  0  0  0
 22 25  1  0  0  0  0
 20 26  1  0  0  0  0
 26 27  1  0  0  0  0
 26 28  1  0  0  0  0
 26 29  1  0  0  0  0
M  END
> <VM2 Rank>
22

> <Conf_Id>
968

> <Probability>
1.47

> <Sum Probability>
64.80

> <Delta G>
1.164

> <G>
34.866

> <E>
-2.775

> <-TS>
37.641

> <U+W>
-26.919

> <U>
25.121

> <W>
-52.040

> <W(PB)>
-54.555

> <W(SA)>
2.515

> <Valence>
4.180

> <Coulomb>
19.632

> <VdW>
1.309

> <VdW6>
-9.192

> <VdW12>
10.501

> <Bond>
0.259

> <Angle>
1.449

> <Pdih>
2.473

> <Idih>
0.000

> <Tether>
0.000

$$$$
VeraChem MOL file


 29 28  0  0  0  0  0  0  0  0999 V2000     
   18.7345   19.0239   19.3167 C   0  0  0  0  0  0  0  0  0  0  0  0
   18.0066   19.8412   19.4022 H   0  0  0  0  0  0  0  0  0  0  0  0
   19.4881   19.3133   18.5727 H   0  0  0  0  0  0  0  0  0  0  0  0
   18.2064   18.1405   18.9350 H   0  0  0  0  0  0  0  0  0  0  0  0
   19.3892   18.7201   20.6809 C   0  0  0  0  0  0  0  0  0  0  0  0
   20.0896   17.8805   20.5698 H   0  0  0  0  0  0  0  0  0  0  0  0
   18.6111   18.3956   21.3843 H   0  0  0  0  0  0  0  0  0  0  0  0
   20.1365   19.9532   21.2414 C   0  0  0  0  0  0  0  0  0  0  0  0
   20.8519   20.3095   20.4874 H   0  0  0  0  0  0  0  0  0  0  0  0
   19.4255   20.7750   21.4038 H   0  0  0  0  0  0  0  0  0  0  0  0
   20.9088   19.6679   22.5529 C   0  0  0  0  0  0  0  0  0  0  0  0
   21.4995   20.5585   22.8080 H   0  0  0  0  0  0  0  0  0  0  0  0
   21.6307   18.8567   22.3851 H   0  0  0  0  0  0  0  0  0  0  0  0
   19.9910   19.3122   23.7472 C   0  0  0  0  0  0  0  0  0  0  0  0
   19.2375   20.1012   23.8698 H   0  0  0  0  0  0  0  0  0  0  0  0
   19.4516   18.3826   23.5288 H   0  0  0  0  0  0  0  0  0  0  0  0
   20.8023   19.1458   25.0586 C   0  0  0  0  0  0  0  0  0  0  0  0
   21.3733   20.0641   25.2487 H   0  0  0  0  0  0  0  0  0  0  0  0
   21.5466   18.3495   24.9258 H   0  0  0  0  0  0  0  0  0  0  0  0
   19.9549   18.8301   26.3138 C   0  0  2  0  0  0  0  0  0  0  0  0
   20.6422   18.7716   27.1634 H   0  0  0  0  0  0  0  0  0  0  0  0
   19.2372   17.4737   26.2023 C   0  0  0  0  0  0  0  0  0  0  0  0
   18.7597   17.2135   27.1550 H   0  0  0  0  0  0  0  0  0  0  0  0
   18.4581   17.4887   25.4310 H   0  0  0  0  0  0  0  0  0  0  0  0
   19.9485   16.6751   25.9580 H   0  0  0  0  0  0  0  0  0  0  0  0
   18.9816   19.9291   26.6403 N   0  3  0  0  0  0  0  0  0  0  0  0
   19.4572   20.8280   26.7606 H   0  0  0  0  0  0  0  0  0  0  0  0
   18.4732   19.7331   27.5073 H   0  0  0  0  0  0  0  0  0  0  0  0
   18.2884   20.0438   25.8967 H   0  0  0  0  0  0  0  0  0  0  0  0
  1  2  1  0  0  0  0
  1  3  1  0  0  0  0
  1  4  1  0  0  0  0
  1  5  1  0  0  0  0
  5  6  1  0  0  0  0
  5  7  1  0  0  0  0
  5  8  1  0  0  0  0
  8  9  1  0  0  0  0
  8 10  1  0  0  0  0
  8 11  1  0  0  0  0
 11 12  1  0  0  0  0
 11 13  1  0  0  0  0
 11 14  1  0  0  0  0
 14 15  1  0  0  0  0
 14 16  1  0  0  0  0
 14 17  1  0  0  0  0
 17 18  1  0  0  0  0
 17 19  1  0  0  0  0
 17 20  1  0  0  0  0
 20 21  1  0  0  0  0
 20 22  1  0  0  0  0
 22 23  1  0  0  0  0
 22 24  1  0  0  0  0
 22 25  1  0  0  0  0
 20 26  1  0  0  0  0
 26 27  1  0  0  0  0
 26 28  1  0  0  0  0
 26 29  1  0  0  0  0
M  END
> <VM2 Rank>
23

> <Conf_Id>
210

> <Probability>
1.44

> <Sum Probability>
66.24

> <Delta G>
1.176

> <G>
34.878

> <E>
-2.751

> <-TS>
37.629

> <U+W>
-26.896

> <U>
25.354

> <W>
-52.250

> <W(PB)>
-54.738

> <W(SA)>
2.488

> <Valence>
4.222

> <Coulomb>
19.855

> <VdW>
1.278

> <VdW6>
-9.276

> <VdW12>
10.553

> <Bond>
0.264

> <Angle>
1.471

> <Pdih>
2.486

> <Idih>
0.000

> <Tether>
0.000

$$$$
VeraChem MOL file


 29 28  0  0  0  0  0  0  0  0999 V2000     
   19.7438   20.3594   19.2500 C   0  0  0  0  0  0  0  0  0  0  0  0
   18.7838   20.8790   19.3672 H   0  0  0  0  0  0  0  0  0  0  0  0
   20.5452   21.0528   19.5370 H   0  0  0  0  0  0  0  0  0  0  0  0
   19.8700   20.1202   18.1861 H   0  0  0  0  0  0  0  0  0  0  0  0
   19.7878   19.0759   20.1060 C   0  0  0  0  0  0  0  0  0  0  0  0
   20.7452   18.5614   19.9430 H   0  0  0  0  0  0  0  0  0  0  0  0
   18.9976   18.3887   19.7726 H   0  0  0  0  0  0  0  0  0  0  0  0
   19.6115   19.3846   21.6092 C   0  0  0  0  0  0  0  0  0  0  0  0
   20.4007   20.0787   21.9258 H   0  0  0  0  0  0  0  0  0  0  0  0
   18.6524   19.8967   21.7672 H   0  0  0  0  0  0  0  0  0  0  0  0
   19.6598   18.0982   22.4685 C   0  0  0  0  0  0  0  0  0  0  0  0
   20.6398   17.6141   22.3574 H   0  0  0  0  0  0  0  0  0  0  0  0
   18.9185   17.3846   22.0830 H   0  0  0  0  0  0  0  0  0  0  0  0
   19.3681   18.3421   23.9697 C   0  0  0  0  0  0  0  0  0  0  0  0
   18.3847   18.8194   24.0732 H   0  0  0  0  0  0  0  0  0  0  0  0
   19.2916   17.3637   24.4610 H   0  0  0  0  0  0  0  0  0  0  0  0
   20.4552   19.1961   24.6781 C   0  0  0  0  0  0  0  0  0  0  0  0
   20.5097   20.1857   24.2086 H   0  0  0  0  0  0  0  0  0  0  0  0
   21.4388   18.7328   24.5247 H   0  0  0  0  0  0  0  0  0  0  0  0
   20.2336   19.4029   26.1952 C   0  0  2  0  0  0  0  0  0  0  0  0
   21.0310   20.0617   26.5525 H   0  0  0  0  0  0  0  0  0  0  0  0
   20.3347   18.0848   26.9827 C   0  0  0  0  0  0  0  0  0  0  0  0
   19.5029   17.4086   26.7529 H   0  0  0  0  0  0  0  0  0  0  0  0
   21.2739   17.5655   26.7552 H   0  0  0  0  0  0  0  0  0  0  0  0
   20.3168   18.2814   28.0617 H   0  0  0  0  0  0  0  0  0  0  0  0
   18.9416   20.1119   26.4946 N   0  3  0  0  0  0  0  0  0  0  0  0
   18.8869   21.0127   26.0107 H   0  0  0  0  0  0  0  0  0  0  0  0
   18.8392   20.2956   27.4968 H   0  0  0  0  0  0  0  0  0  0  0  0
   18.1360   19.5540   26.2005 H   0  0  0  0  0  0  0  0  0  0  0  0
  1  2  1  0  0  0  0
  1  3  1  0  0  0  0
  1  4  1  0  0  0  0
  1  5  1  0  0  0  0
  5  6  1  0  0  0  0
  5  7  1  0  0  0  0
  5  8  1  0  0  0  0
  8  9  1  0  0  0  0
  8 10  1  0  0  0  0
  8 11  1  0  0  0  0
 11 12  1  0  0  0  0
 11 13  1  0  0  0  0
 11 14  1  0  0  0  0
 14 15  1  0  0  0  0
 14 16  1  0  0  0  0
 14 17  1  0  0  0  0
 17 18  1  0  0  0  0
 17 19  1  0  0  0  0
 17 20  1  0  0  0  0
 20 21  1  0  0  0  0
 20 22  1  0  0  0  0
 22 23  1  0  0  0  0
 22 24  1  0  0  0  0
 22 25  1  0  0  0  0
 20 26  1  0  0  0  0
 26 27  1  0  0  0  0
 26 28  1  0  0  0  0
 26 29  1  0  0  0  0
M  END
> <VM2 Rank>
24

> <Conf_Id>
262

> <Probability>
1.36

> <Sum Probability>
67.60

> <Delta G>
1.211

> <G>
34.913

> <E>
-2.677

> <-TS>
37.591

> <U+W>
-26.822

> <U>
25.474

> <W>
-52.296

> <W(PB)>
-54.793

> <W(SA)>
2.498

> <Valence>
4.286

> <Coulomb>
19.883

> <VdW>
1.305

> <VdW6>
-9.235

> <VdW12>
10.540

> <Bond>
0.276

> <Angle>
1.498

> <Pdih>
2.512

> <Idih>
0.000

> <Tether>
0.000

$$$$
VeraChem MOL file


 29 28  0  0  0  0  0  0  0  0999 V2000     
   18.6411   19.4585   19.3603 C   0  0  0  0  0  0  0  0  0  0  0  0
   19.4244   19.5571   18.5975 H   0  0  0  0  0  0  0  0  0  0  0  0
   18.2337   18.4406   19.3027 H   0  0  0  0  0  0  0  0  0  0  0  0
   17.8347   20.1592   19.1074 H   0  0  0  0  0  0  0  0  0  0  0  0
   19.1976   19.7537   20.7692 C   0  0  0  0  0  0  0  0  0  0  0  0
   18.3781   19.6855   21.4967 H   0  0  0  0  0  0  0  0  0  0  0  0
   19.5707   20.7868   20.8043 H   0  0  0  0  0  0  0  0  0  0  0  0
   20.3334   18.7748   21.1496 C   0  0  0  0  0  0  0  0  0  0  0  0
   19.9460   17.7469   21.1676 H   0  0  0  0  0  0  0  0  0  0  0  0
   21.1032   18.8001   20.3660 H   0  0  0  0  0  0  0  0  0  0  0  0
   21.0049   19.1005   22.5064 C   0  0  0  0  0  0  0  0  0  0  0  0
   21.4071   20.1227   22.4812 H   0  0  0  0  0  0  0  0  0  0  0  0
   21.8678   18.4326   22.6356 H   0  0  0  0  0  0  0  0  0  0  0  0
   20.0579   18.9407   23.7201 C   0  0  0  0  0  0  0  0  0  0  0  0
   19.2319   19.6579   23.6393 H   0  0  0  0  0  0  0  0  0  0  0  0
   19.6161   17.9360   23.6987 H   0  0  0  0  0  0  0  0  0  0  0  0
   20.8079   19.1617   25.0596 C   0  0  0  0  0  0  0  0  0  0  0  0
   21.2908   20.1476   25.0437 H   0  0  0  0  0  0  0  0  0  0  0  0
   21.6209   18.4287   25.1457 H   0  0  0  0  0  0  0  0  0  0  0  0
   19.9227   19.0713   26.3251 C   0  0  2  0  0  0  0  0  0  0  0  0
   20.5669   19.2707   27.1871 H   0  0  0  0  0  0  0  0  0  0  0  0
   19.3191   17.6683   26.5104 C   0  0  0  0  0  0  0  0  0  0  0  0
   20.1022   16.9004   26.4850 H   0  0  0  0  0  0  0  0  0  0  0  0
   18.8121   17.5941   27.4803 H   0  0  0  0  0  0  0  0  0  0  0  0
   18.5843   17.4364   25.7303 H   0  0  0  0  0  0  0  0  0  0  0  0
   18.8514   20.1264   26.3532 N   0  3  0  0  0  0  0  0  0  0  0  0
   19.2488   21.0669   26.2744 H   0  0  0  0  0  0  0  0  0  0  0  0
   18.3160   20.0924   27.2255 H   0  0  0  0  0  0  0  0  0  0  0  0
   18.1903   20.0047   25.5821 H   0  0  0  0  0  0  0  0  0  0  0  0
  1  2  1  0  0  0  0
  1  3  1  0  0  0  0
  1  4  1  0  0  0  0
  1  5  1  0  0  0  0
  5  6  1  0  0  0  0
  5  7  1  0  0  0  0
  5  8  1  0  0  0  0
  8  9  1  0  0  0  0
  8 10  1  0  0  0  0
  8 11  1  0  0  0  0
 11 12  1  0  0  0  0
 11 13  1  0  0  0  0
 11 14  1  0  0  0  0
 14 15  1  0  0  0  0
 14 16  1  0  0  0  0
 14 17  1  0  0  0  0
 17 18  1  0  0  0  0
 17 19  1  0  0  0  0
 17 20  1  0  0  0  0
 20 21  1  0  0  0  0
 20 22  1  0  0  0  0
 22 23  1  0  0  0  0
 22 24  1  0  0  0  0
 22 25  1  0  0  0  0
 20 26  1  0  0  0  0
 26 27  1  0  0  0  0
 26 28  1  0  0  0  0
 26 29  1  0  0  0  0
M  END
> <VM2 Rank>
25

> <Conf_Id>
1656

> <Probability>
1.32

> <Sum Probability>
68.92

> <Delta G>
1.226

> <G>
34.929

> <E>
-2.699

> <-TS>
37.628

> <U+W>
-26.844

> <U>
25.545

> <W>
-52.388

> <W(PB)>
-54.880

> <W(SA)>
2.492

> <Valence>
4.218

> <Coulomb>
20.055

> <VdW>
1.271

> <VdW6>
-9.272

> <VdW12>
10.543

> <Bond>
0.264

> <Angle>
1.469

> <Pdih>
2.486

> <Idih>
0.000

> <Tether>
0.000

$$$$
VeraChem MOL file


 29 28  0  0  0  0  0  0  0  0999 V2000     
   20.9140   19.7970   20.0854 C   0  0  0  0  0  0  0  0  0  0  0  0
   21.5381   19.5254   20.9458 H   0  0  0  0  0  0  0  0  0  0  0  0
   20.9597   18.9792   19.3547 H   0  0  0  0  0  0  0  0  0  0  0  0
   21.3588   20.6872   19.6222 H   0  0  0  0  0  0  0  0  0  0  0  0
   19.4557   20.0798   20.5114 C   0  0  0  0  0  0  0  0  0  0  0  0
   18.9012   20.4610   19.6426 H   0  0  0  0  0  0  0  0  0  0  0  0
   19.4369   20.8864   21.2564 H   0  0  0  0  0  0  0  0  0  0  0  0
   18.7192   18.8295   21.0561 C   0  0  0  0  0  0  0  0  0  0  0  0
   17.6863   19.1083   21.3059 H   0  0  0  0  0  0  0  0  0  0  0  0
   18.6432   18.0845   20.2522 H   0  0  0  0  0  0  0  0  0  0  0  0
   19.3738   18.1609   22.2925 C   0  0  0  0  0  0  0  0  0  0  0  0
   20.3666   17.7745   22.0268 H   0  0  0  0  0  0  0  0  0  0  0  0
   18.7726   17.2838   22.5691 H   0  0  0  0  0  0  0  0  0  0  0  0
   19.4866   19.1005   23.5167 C   0  0  0  0  0  0  0  0  0  0  0  0
   20.1482   19.9440   23.2790 H   0  0  0  0  0  0  0  0  0  0  0  0
   18.4969   19.5204   23.7399 H   0  0  0  0  0  0  0  0  0  0  0  0
   20.0403   18.3587   24.7573 C   0  0  0  0  0  0  0  0  0  0  0  0
   21.0020   17.8979   24.4946 H   0  0  0  0  0  0  0  0  0  0  0  0
   19.3643   17.5383   25.0326 H   0  0  0  0  0  0  0  0  0  0  0  0
   20.2492   19.2890   25.9716 C   0  0  2  0  0  0  0  0  0  0  0  0
   20.9057   20.1096   25.6661 H   0  0  0  0  0  0  0  0  0  0  0  0
   20.9316   18.5262   27.1182 C   0  0  0  0  0  0  0  0  0  0  0  0
   20.3105   17.6905   27.4640 H   0  0  0  0  0  0  0  0  0  0  0  0
   21.8995   18.1222   26.7960 H   0  0  0  0  0  0  0  0  0  0  0  0
   21.1161   19.1910   27.9711 H   0  0  0  0  0  0  0  0  0  0  0  0
   18.9656   19.9143   26.4449 N   0  3  0  0  0  0  0  0  0  0  0  0
   18.5213   20.4623   25.7033 H   0  0  0  0  0  0  0  0  0  0  0  0
   19.1255   20.5431   27.2371 H   0  0  0  0  0  0  0  0  0  0  0  0
   18.2943   19.2035   26.7479 H   0  0  0  0  0  0  0  0  0  0  0  0
  1  2  1  0  0  0  0
  1  3  1  0  0  0  0
  1  4  1  0  0  0  0
  1  5  1  0  0  0  0
  5  6  1  0  0  0  0
  5  7  1  0  0  0  0
  5  8  1  0  0  0  0
  8  9  1  0  0  0  0
  8 10  1  0  0  0  0
  8 11  1  0  0  0  0
 11 12  1  0  0  0  0
 11 13  1  0  0  0  0
 11 14  1  0  0  0  0
 14 15  1  0  0  0  0
 14 16  1  0  0  0  0
 14 17  1  0  0  0  0
 17 18  1  0  0  0  0
 17 19  1  0  0  0  0
 17 20  1  0  0  0  0
 20 21  1  0  0  0  0
 20 22  1  0  0  0  0
 22 23  1  0  0  0  0
 22 24  1  0  0  0  0
 22 25  1  0  0  0  0
 20 26  1  0  0  0  0
 26 27  1  0  0  0  0
 26 28  1  0  0  0  0
 26 29  1  0  0  0  0
M  END
> <VM2 Rank>
26

> <Conf_Id>
232

> <Probability>
1.28

> <Sum Probability>
70.19

> <Delta G>
1.246

> <G>
34.949

> <E>
-2.870

> <-TS>
37.818

> <U+W>
-27.014

> <U>
25.212

> <W>
-52.226

> <W(PB)>
-54.717

> <W(SA)>
2.490

> <Valence>
4.125

> <Coulomb>
19.951

> <VdW>
1.137

> <VdW6>
-9.556

> <VdW12>
10.693

> <Bond>
0.266

> <Angle>
1.520

> <Pdih>
2.339

> <Idih>
0.000

> <Tether>
0.000

$$$$
VeraChem MOL file


 29 28  0  0  0  0  0  0  0  0999 V2000     
   20.8438   19.4763   19.7588 C   0  0  0  0  0  0  0  0  0  0  0  0
   20.6281   18.4823   19.3460 H   0  0  0  0  0  0  0  0  0  0  0  0
   21.2608   20.0920   18.9513 H   0  0  0  0  0  0  0  0  0  0  0  0
   21.6202   19.3693   20.5263 H   0  0  0  0  0  0  0  0  0  0  0  0
   19.5655   20.1293   20.3315 C   0  0  0  0  0  0  0  0  0  0  0  0
   18.8681   20.3266   19.5053 H   0  0  0  0  0  0  0  0  0  0  0  0
   19.8131   21.1083   20.7651 H   0  0  0  0  0  0  0  0  0  0  0  0
   18.8486   19.2549   21.3882 C   0  0  0  0  0  0  0  0  0  0  0  0
   17.9014   19.7416   21.6589 H   0  0  0  0  0  0  0  0  0  0  0  0
   18.5823   18.2863   20.9428 H   0  0  0  0  0  0  0  0  0  0  0  0
   19.6848   19.0280   22.6702 C   0  0  0  0  0  0  0  0  0  0  0  0
   19.9975   20.0007   23.0720 H   0  0  0  0  0  0  0  0  0  0  0  0
   20.6000   18.4735   22.4248 H   0  0  0  0  0  0  0  0  0  0  0  0
   18.8888   18.2423   23.7398 C   0  0  0  0  0  0  0  0  0  0  0  0
   17.9847   18.8009   24.0165 H   0  0  0  0  0  0  0  0  0  0  0  0
   18.5391   17.2964   23.3035 H   0  0  0  0  0  0  0  0  0  0  0  0
   19.7221   17.9203   25.0067 C   0  0  0  0  0  0  0  0  0  0  0  0
   20.5637   17.2754   24.7211 H   0  0  0  0  0  0  0  0  0  0  0  0
   19.1065   17.3318   25.6999 H   0  0  0  0  0  0  0  0  0  0  0  0
   20.2688   19.1657   25.7399 C   0  0  2  0  0  0  0  0  0  0  0  0
   20.8956   19.7292   25.0425 H   0  0  0  0  0  0  0  0  0  0  0  0
   21.1403   18.7441   26.9334 C   0  0  0  0  0  0  0  0  0  0  0  0
   20.5574   18.1777   27.6705 H   0  0  0  0  0  0  0  0  0  0  0  0
   21.9762   18.1152   26.6024 H   0  0  0  0  0  0  0  0  0  0  0  0
   21.5635   19.6233   27.4348 H   0  0  0  0  0  0  0  0  0  0  0  0
   19.1735   20.0950   26.1857 N   0  3  0  0  0  0  0  0  0  0  0  0
   18.6094   20.4111   25.3921 H   0  0  0  0  0  0  0  0  0  0  0  0
   19.5524   20.9276   26.6459 H   0  0  0  0  0  0  0  0  0  0  0  0
   18.5436   19.6368   26.8496 H   0  0  0  0  0  0  0  0  0  0  0  0
  1  2  1  0  0  0  0
  1  3  1  0  0  0  0
  1  4  1  0  0  0  0
  1  5  1  0  0  0  0
  5  6  1  0  0  0  0
  5  7  1  0  0  0  0
  5  8  1  0  0  0  0
  8  9  1  0  0  0  0
  8 10  1  0  0  0  0
  8 11  1  0  0  0  0
 11 12  1  0  0  0  0
 11 13  1  0  0  0  0
 11 14  1  0  0  0  0
 14 15  1  0  0  0  0
 14 16  1  0  0  0  0
 14 17  1  0  0  0  0
 17 18  1  0  0  0  0
 17 19  1  0  0  0  0
 17 20  1  0  0  0  0
 20 21  1  0  0  0  0
 20 22  1  0  0  0  0
 22 23  1  0  0  0  0
 22 24  1  0  0  0  0
 22 25  1  0  0  0  0
 20 26  1  0  0  0  0
 26 27  1  0  0  0  0
 26 28  1  0  0  0  0
 26 29  1  0  0  0  0
M  END
> <VM2 Rank>
27

> <Conf_Id>
1186

> <Probability>
1.27

> <Sum Probability>
71.46

> <Delta G>
1.250

> <G>
34.953

> <E>
-2.739

> <-TS>
37.692

> <U+W>
-26.884

> <U>
25.266

> <W>
-52.150

> <W(PB)>
-54.659

> <W(SA)>
2.509

> <Valence>
3.966

> <Coulomb>
20.252

> <VdW>
1.048

> <VdW6>
-9.487

> <VdW12>
10.535

> <Bond>
0.252

> <Angle>
1.329

> <Pdih>
2.386

> <Idih>
0.000

> <Tether>
0.000

$$$$
VeraChem MOL file


 29 28  0  0  0  0  0  0  0  0999 V2000     
   18.3076   19.5302   20.2946 C   0  0  0  0  0  0  0  0  0  0  0  0
   17.6212   20.2972   19.9133 H   0  0  0  0  0  0  0  0  0  0  0  0
   18.3550   18.7224   19.5527 H   0  0  0  0  0  0  0  0  0  0  0  0
   17.8719   19.1257   21.2166 H   0  0  0  0  0  0  0  0  0  0  0  0
   19.7074   20.1339   20.5478 C   0  0  0  0  0  0  0  0  0  0  0  0
   19.6384   20.9249   21.3064 H   0  0  0  0  0  0  0  0  0  0  0  0
   20.0504   20.6292   19.6287 H   0  0  0  0  0  0  0  0  0  0  0  0
   20.7665   19.0818   20.9649 C   0  0  0  0  0  0  0  0  0  0  0  0
   20.9091   18.3747   20.1361 H   0  0  0  0  0  0  0  0  0  0  0  0
   21.7331   19.5867   21.0985 H   0  0  0  0  0  0  0  0  0  0  0  0
   20.4352   18.2797   22.2499 C   0  0  0  0  0  0  0  0  0  0  0  0
   21.2472   17.5609   22.4260 H   0  0  0  0  0  0  0  0  0  0  0  0
   19.5295   17.6791   22.0931 H   0  0  0  0  0  0  0  0  0  0  0  0
   20.2647   19.1666   23.5064 C   0  0  0  0  0  0  0  0  0  0  0  0
   21.1565   19.7955   23.6346 H   0  0  0  0  0  0  0  0  0  0  0  0
   19.4122   19.8423   23.3638 H   0  0  0  0  0  0  0  0  0  0  0  0
   20.0448   18.3161   24.7810 C   0  0  0  0  0  0  0  0  0  0  0  0
   20.8804   17.6113   24.8862 H   0  0  0  0  0  0  0  0  0  0  0  0
   19.1356   17.7102   24.6707 H   0  0  0  0  0  0  0  0  0  0  0  0
   19.9489   19.1682   26.0651 C   0  0  2  0  0  0  0  0  0  0  0  0
   20.8529   19.7806   26.1387 H   0  0  0  0  0  0  0  0  0  0  0  0
   19.8780   18.2614   27.3040 C   0  0  0  0  0  0  0  0  0  0  0  0
   18.9843   17.6252   27.2797 H   0  0  0  0  0  0  0  0  0  0  0  0
   20.7593   17.6105   27.3617 H   0  0  0  0  0  0  0  0  0  0  0  0
   19.8463   18.8605   28.2224 H   0  0  0  0  0  0  0  0  0  0  0  0
   18.7828   20.1182   26.0403 N   0  3  0  0  0  0  0  0  0  0  0  0
   18.8399   20.7592   25.2444 H   0  0  0  0  0  0  0  0  0  0  0  0
   18.7465   20.6877   26.8907 H   0  0  0  0  0  0  0  0  0  0  0  0
   17.8940   19.6157   25.9695 H   0  0  0  0  0  0  0  0  0  0  0  0
  1  2  1  0  0  0  0
  1  3  1  0  0  0  0
  1  4  1  0  0  0  0
  1  5  1  0  0  0  0
  5  6  1  0  0  0  0
  5  7  1  0  0  0  0
  5  8  1  0  0  0  0
  8  9  1  0  0  0  0
  8 10  1  0  0  0  0
  8 11  1  0  0  0  0
 11 12  1  0  0  0  0
 11 13  1  0  0  0  0
 11 14  1  0  0  0  0
 14 15  1  0  0  0  0
 14 16  1  0  0  0  0
 14 17  1  0  0  0  0
 17 18  1  0  0  0  0
 17 19  1  0  0  0  0
 17 20  1  0  0  0  0
 20 21  1  0  0  0  0
 20 22  1  0  0  0  0
 22 23  1  0  0  0  0
 22 24  1  0  0  0  0
 22 25  1  0  0  0  0
 20 26  1  0  0  0  0
 26 27  1  0  0  0  0
 26 28  1  0  0  0  0
 26 29  1  0  0  0  0
M  END
> <VM2 Rank>
28

> <Conf_Id>
1136

> <Probability>
1.24

> <Sum Probability>
72.71

> <Delta G>
1.262

> <G>
34.964

> <E>
-2.857

> <-TS>
37.821

> <U+W>
-27.002

> <U>
25.448

> <W>
-52.449

> <W(PB)>
-54.941

> <W(SA)>
2.491

> <Valence>
4.118

> <Coulomb>
20.194

> <VdW>
1.135

> <VdW6>
-9.587

> <VdW12>
10.722

> <Bond>
0.268

> <Angle>
1.523

> <Pdih>
2.327

> <Idih>
0.000

> <Tether>
0.000

$$$$
VeraChem MOL file


 29 28  0  0  0  0  0  0  0  0999 V2000     
   19.6013   19.8388   19.2620 C   0  0  0  0  0  0  0  0  0  0  0  0
   19.6556   19.5572   18.2024 H   0  0  0  0  0  0  0  0  0  0  0  0
   18.7401   20.5078   19.3876 H   0  0  0  0  0  0  0  0  0  0  0  0
   20.5122   20.4017   19.4997 H   0  0  0  0  0  0  0  0  0  0  0  0
   19.4617   18.5806   20.1487 C   0  0  0  0  0  0  0  0  0  0  0  0
   20.3506   17.9449   20.0320 H   0  0  0  0  0  0  0  0  0  0  0  0
   18.6102   17.9875   19.7870 H   0  0  0  0  0  0  0  0  0  0  0  0
   19.2404   18.9016   21.6467 C   0  0  0  0  0  0  0  0  0  0  0  0
   18.3499   19.5353   21.7580 H   0  0  0  0  0  0  0  0  0  0  0  0
   19.0181   17.9602   22.1652 H   0  0  0  0  0  0  0  0  0  0  0  0
   20.4582   19.5873   22.3168 C   0  0  0  0  0  0  0  0  0  0  0  0
   20.6816   20.5263   21.7943 H   0  0  0  0  0  0  0  0  0  0  0  0
   21.3483   18.9529   22.2066 H   0  0  0  0  0  0  0  0  0  0  0  0
   20.2360   19.9150   23.8139 C   0  0  0  0  0  0  0  0  0  0  0  0
   21.0912   20.5063   24.1698 H   0  0  0  0  0  0  0  0  0  0  0  0
   19.3510   20.5574   23.9148 H   0  0  0  0  0  0  0  0  0  0  0  0
   20.0890   18.6571   24.7079 C   0  0  0  0  0  0  0  0  0  0  0  0
   20.9276   17.9774   24.5062 H   0  0  0  0  0  0  0  0  0  0  0  0
   19.1720   18.1127   24.4498 H   0  0  0  0  0  0  0  0  0  0  0  0
   20.0724   18.9934   26.2146 C   0  0  2  0  0  0  0  0  0  0  0  0
   20.9850   19.5488   26.4521 H   0  0  0  0  0  0  0  0  0  0  0  0
   20.0608   17.7038   27.0506 C   0  0  0  0  0  0  0  0  0  0  0  0
   19.1605   17.1092   26.8509 H   0  0  0  0  0  0  0  0  0  0  0  0
   20.9371   17.0840   26.8233 H   0  0  0  0  0  0  0  0  0  0  0  0
   20.0864   17.9358   28.1225 H   0  0  0  0  0  0  0  0  0  0  0  0
   18.9162   19.8783   26.5927 N   0  3  0  0  0  0  0  0  0  0  0  0
   18.9328   20.1099   27.5901 H   0  0  0  0  0  0  0  0  0  0  0  0
   18.0199   19.4243   26.3978 H   0  0  0  0  0  0  0  0  0  0  0  0
   18.9354   20.7598   26.0729 H   0  0  0  0  0  0  0  0  0  0  0  0
  1  2  1  0  0  0  0
  1  3  1  0  0  0  0
  1  4  1  0  0  0  0
  1  5  1  0  0  0  0
  5  6  1  0  0  0  0
  5  7  1  0  0  0  0
  5  8  1  0  0  0  0
  8  9  1  0  0  0  0
  8 10  1  0  0  0  0
  8 11  1  0  0  0  0
 11 12  1  0  0  0  0
 11 13  1  0  0  0  0
 11 14  1  0  0  0  0
 14 15  1  0  0  0  0
 14 16  1  0  0  0  0
 14 17  1  0  0  0  0
 17 18  1  0  0  0  0
 17 19  1  0  0  0  0
 17 20  1  0  0  0  0
 20 21  1  0  0  0  0
 20 22  1  0  0  0  0
 22 23  1  0  0  0  0
 22 24  1  0  0  0  0
 22 25  1  0  0  0  0
 20 26  1  0  0  0  0
 26 27  1  0  0  0  0
 26 28  1  0  0  0  0
 26 29  1  0  0  0  0
M  END
> <VM2 Rank>
29

> <Conf_Id>
554

> <Probability>
1.23

> <Sum Probability>
73.94

> <Delta G>
1.269

> <G>
34.971

> <E>
-2.590

> <-TS>
37.561

> <U+W>
-26.734

> <U>
25.449

> <W>
-52.183

> <W(PB)>
-54.671

> <W(SA)>
2.488

> <Valence>
4.270

> <Coulomb>
19.867

> <VdW>
1.312

> <VdW6>
-9.219

> <VdW12>
10.531

> <Bond>
0.272

> <Angle>
1.393

> <Pdih>
2.605

> <Idih>
0.000

> <Tether>
0.000

$$$$
VeraChem MOL file


 29 28  0  0  0  0  0  0  0  0999 V2000     
   18.9908   18.5549   19.5724 C   0  0  0  0  0  0  0  0  0  0  0  0
   18.9155   18.5497   18.4774 H   0  0  0  0  0  0  0  0  0  0  0  0
   19.0180   17.5115   19.9123 H   0  0  0  0  0  0  0  0  0  0  0  0
   18.0779   19.0207   19.9639 H   0  0  0  0  0  0  0  0  0  0  0  0
   20.2558   19.3194   20.0240 C   0  0  0  0  0  0  0  0  0  0  0  0
   20.1925   20.3658   19.6943 H   0  0  0  0  0  0  0  0  0  0  0  0
   21.1304   18.8893   19.5163 H   0  0  0  0  0  0  0  0  0  0  0  0
   20.4916   19.2652   21.5526 C   0  0  0  0  0  0  0  0  0  0  0  0
   20.5842   18.2163   21.8629 H   0  0  0  0  0  0  0  0  0  0  0  0
   21.4560   19.7425   21.7743 H   0  0  0  0  0  0  0  0  0  0  0  0
   19.3780   19.9679   22.3697 C   0  0  0  0  0  0  0  0  0  0  0  0
   18.4300   19.4248   22.2592 H   0  0  0  0  0  0  0  0  0  0  0  0
   19.2105   20.9713   21.9547 H   0  0  0  0  0  0  0  0  0  0  0  0
   19.7108   20.1098   23.8754 C   0  0  0  0  0  0  0  0  0  0  0  0
   20.6519   20.6648   23.9930 H   0  0  0  0  0  0  0  0  0  0  0  0
   18.9289   20.7255   24.3390 H   0  0  0  0  0  0  0  0  0  0  0  0
   19.8092   18.7515   24.6164 C   0  0  0  0  0  0  0  0  0  0  0  0
   20.6064   18.1487   24.1639 H   0  0  0  0  0  0  0  0  0  0  0  0
   18.8758   18.1882   24.4856 H   0  0  0  0  0  0  0  0  0  0  0  0
   20.1141   18.9080   26.1221 C   0  0  2  0  0  0  0  0  0  0  0  0
   21.0274   19.5017   26.2273 H   0  0  0  0  0  0  0  0  0  0  0  0
   20.3563   17.5325   26.7639 C   0  0  0  0  0  0  0  0  0  0  0  0
   20.6080   17.6386   27.8264 H   0  0  0  0  0  0  0  0  0  0  0  0
   19.4663   16.8955   26.6853 H   0  0  0  0  0  0  0  0  0  0  0  0
   21.1910   17.0152   26.2747 H   0  0  0  0  0  0  0  0  0  0  0  0
   19.0294   19.6469   26.8573 N   0  3  0  0  0  0  0  0  0  0  0  0
   19.2576   19.7560   27.8496 H   0  0  0  0  0  0  0  0  0  0  0  0
   18.1360   19.1508   26.8008 H   0  0  0  0  0  0  0  0  0  0  0  0
   18.8872   20.5840   26.4711 H   0  0  0  0  0  0  0  0  0  0  0  0
  1  2  1  0  0  0  0
  1  3  1  0  0  0  0
  1  4  1  0  0  0  0
  1  5  1  0  0  0  0
  5  6  1  0  0  0  0
  5  7  1  0  0  0  0
  5  8  1  0  0  0  0
  8  9  1  0  0  0  0
  8 10  1  0  0  0  0
  8 11  1  0  0  0  0
 11 12  1  0  0  0  0
 11 13  1  0  0  0  0
 11 14  1  0  0  0  0
 14 15  1  0  0  0  0
 14 16  1  0  0  0  0
 14 17  1  0  0  0  0
 17 18  1  0  0  0  0
 17 19  1  0  0  0  0
 17 20  1  0  0  0  0
 20 21  1  0  0  0  0
 20 22  1  0  0  0  0
 22 23  1  0  0  0  0
 22 24  1  0  0  0  0
 22 25  1  0  0  0  0
 20 26  1  0  0  0  0
 26 27  1  0  0  0  0
 26 28  1  0  0  0  0
 26 29  1  0  0  0  0
M  END
> <VM2 Rank>
30

> <Conf_Id>
891

> <Probability>
1.18

> <Sum Probability>
75.12

> <Delta G>
1.293

> <G>
34.995

> <E>
-2.604

> <-TS>
37.599

> <U+W>
-26.748

> <U>
25.263

> <W>
-52.011

> <W(PB)>
-54.535

> <W(SA)>
2.524

> <Valence>
4.207

> <Coulomb>
19.737

> <VdW>
1.319

> <VdW6>
-9.273

> <VdW12>
10.591

> <Bond>
0.271

> <Angle>
1.357

> <Pdih>
2.580

> <Idih>
0.000

> <Tether>
0.000

$$$$
VeraChem MOL file


 29 28  0  0  0  0  0  0  0  0999 V2000     
   20.3869   20.7308   20.2742 C   0  0  0  0  0  0  0  0  0  0  0  0
   19.5511   21.4224   20.4417 H   0  0  0  0  0  0  0  0  0  0  0  0
   21.0848   20.8237   21.1154 H   0  0  0  0  0  0  0  0  0  0  0  0
   20.9162   21.0569   19.3695 H   0  0  0  0  0  0  0  0  0  0  0  0
   19.8829   19.2788   20.1116 C   0  0  0  0  0  0  0  0  0  0  0  0
   20.7392   18.6030   19.9781 H   0  0  0  0  0  0  0  0  0  0  0  0
   19.2909   19.2112   19.1882 H   0  0  0  0  0  0  0  0  0  0  0  0
   19.0125   18.7932   21.2956 C   0  0  0  0  0  0  0  0  0  0  0  0
   18.1475   19.4606   21.4127 H   0  0  0  0  0  0  0  0  0  0  0  0
   18.6072   17.8027   21.0466 H   0  0  0  0  0  0  0  0  0  0  0  0
   19.7862   18.7014   22.6325 C   0  0  0  0  0  0  0  0  0  0  0  0
   20.1420   19.6988   22.9186 H   0  0  0  0  0  0  0  0  0  0  0  0
   20.6754   18.0703   22.4980 H   0  0  0  0  0  0  0  0  0  0  0  0
   18.9055   18.1182   23.7636 C   0  0  0  0  0  0  0  0  0  0  0  0
   18.0242   18.7556   23.9150 H   0  0  0  0  0  0  0  0  0  0  0  0
   18.5204   17.1380   23.4501 H   0  0  0  0  0  0  0  0  0  0  0  0
   19.6682   17.9400   25.1015 C   0  0  0  0  0  0  0  0  0  0  0  0
   20.4840   17.2207   24.9496 H   0  0  0  0  0  0  0  0  0  0  0  0
   18.9937   17.4867   25.8400 H   0  0  0  0  0  0  0  0  0  0  0  0
   20.2525   19.2488   25.6788 C   0  0  2  0  0  0  0  0  0  0  0  0
   20.9387   19.6753   24.9412 H   0  0  0  0  0  0  0  0  0  0  0  0
   21.0481   18.9594   26.9613 C   0  0  0  0  0  0  0  0  0  0  0  0
   20.4039   18.5338   27.7409 H   0  0  0  0  0  0  0  0  0  0  0  0
   21.8605   18.2490   26.7637 H   0  0  0  0  0  0  0  0  0  0  0  0
   21.4985   19.8791   27.3546 H   0  0  0  0  0  0  0  0  0  0  0  0
   19.1932   20.2854   25.9349 N   0  3  0  0  0  0  0  0  0  0  0  0
   19.5985   21.1552   26.2922 H   0  0  0  0  0  0  0  0  0  0  0  0
   18.5112   19.9583   26.6244 H   0  0  0  0  0  0  0  0  0  0  0  0
   18.6817   20.5125   25.0777 H   0  0  0  0  0  0  0  0  0  0  0  0
  1  2  1  0  0  0  0
  1  3  1  0  0  0  0
  1  4  1  0  0  0  0
  1  5  1  0  0  0  0
  5  6  1  0  0  0  0
  5  7  1  0  0  0  0
  5  8  1  0  0  0  0
  8  9  1  0  0  0  0
  8 10  1  0  0  0  0
  8 11  1  0  0  0  0
 11 12  1  0  0  0  0
 11 13  1  0  0  0  0
 11 14  1  0  0  0  0
 14 15  1  0  0  0  0
 14 16  1  0  0  0  0
 14 17  1  0  0  0  0
 17 18  1  0  0  0  0
 17 19  1  0  0  0  0
 17 20  1  0  0  0  0
 20 21  1  0  0  0  0
 20 22  1  0  0  0  0
 22 23  1  0  0  0  0
 22 24  1  0  0  0  0
 22 25  1  0  0  0  0
 20 26  1  0  0  0  0
 26 27  1  0  0  0  0
 26 28  1  0  0  0  0
 26 29  1  0  0  0  0
M  END
> <VM2 Rank>
31

> <Conf_Id>
1673

> <Probability>
1.17

> <Sum Probability>
76.29

> <Delta G>
1.300

> <G>
35.002

> <E>
-2.687

> <-TS>
37.690

> <U+W>
-26.832

> <U>
25.376

> <W>
-52.207

> <W(PB)>
-54.720

> <W(SA)>
2.512

> <Valence>
3.961

> <Coulomb>
20.374

> <VdW>
1.041

> <VdW6>
-9.517

> <VdW12>
10.558

> <Bond>
0.254

> <Angle>
1.329

> <Pdih>
2.378

> <Idih>
0.000

> <Tether>
0.000

$$$$
VeraChem MOL file


 29 28  0  0  0  0  0  0  0  0999 V2000     
   21.0680   19.3521   19.7511 C   0  0  0  0  0  0  0  0  0  0  0  0
   21.7011   20.1913   19.4348 H   0  0  0  0  0  0  0  0  0  0  0  0
   21.7271   18.5300   20.0593 H   0  0  0  0  0  0  0  0  0  0  0  0
   20.4902   19.0188   18.8792 H   0  0  0  0  0  0  0  0  0  0  0  0
   20.1359   19.7776   20.9052 C   0  0  0  0  0  0  0  0  0  0  0  0
   19.5103   20.6196   20.5776 H   0  0  0  0  0  0  0  0  0  0  0  0
   20.7479   20.1410   21.7414 H   0  0  0  0  0  0  0  0  0  0  0  0
   19.2361   18.6092   21.3714 C   0  0  0  0  0  0  0  0  0  0  0  0
   18.6906   18.2119   20.5043 H   0  0  0  0  0  0  0  0  0  0  0  0
   19.8595   17.7828   21.7371 H   0  0  0  0  0  0  0  0  0  0  0  0
   18.2010   19.0143   22.4528 C   0  0  0  0  0  0  0  0  0  0  0  0
   17.5936   18.1344   22.7060 H   0  0  0  0  0  0  0  0  0  0  0  0
   17.5039   19.7447   22.0195 H   0  0  0  0  0  0  0  0  0  0  0  0
   18.7935   19.6078   23.7574 C   0  0  0  0  0  0  0  0  0  0  0  0
   19.3050   20.5549   23.5398 H   0  0  0  0  0  0  0  0  0  0  0  0
   17.9567   19.8625   24.4207 H   0  0  0  0  0  0  0  0  0  0  0  0
   19.7626   18.6459   24.4915 C   0  0  0  0  0  0  0  0  0  0  0  0
   20.6103   18.4159   23.8340 H   0  0  0  0  0  0  0  0  0  0  0  0
   19.2561   17.6938   24.6979 H   0  0  0  0  0  0  0  0  0  0  0  0
   20.3153   19.2366   25.8067 C   0  0  2  0  0  0  0  0  0  0  0  0
   20.7810   20.2008   25.5808 H   0  0  0  0  0  0  0  0  0  0  0  0
   21.3887   18.3094   26.3990 C   0  0  0  0  0  0  0  0  0  0  0  0
   20.9712   17.3247   26.6442 H   0  0  0  0  0  0  0  0  0  0  0  0
   22.2131   18.1640   25.6898 H   0  0  0  0  0  0  0  0  0  0  0  0
   21.8108   18.7397   27.3156 H   0  0  0  0  0  0  0  0  0  0  0  0
   19.2348   19.5031   26.8189 N   0  3  0  0  0  0  0  0  0  0  0  0
   18.5351   20.1559   26.4560 H   0  0  0  0  0  0  0  0  0  0  0  0
   19.6181   19.9104   27.6767 H   0  0  0  0  0  0  0  0  0  0  0  0
   18.7475   18.6416   27.0795 H   0  0  0  0  0  0  0  0  0  0  0  0
  1  2  1  0  0  0  0
  1  3  1  0  0  0  0
  1  4  1  0  0  0  0
  1  5  1  0  0  0  0
  5  6  1  0  0  0  0
  5  7  1  0  0  0  0
  5  8  1  0  0  0  0
  8  9  1  0  0  0  0
  8 10  1  0  0  0  0
  8 11  1  0  0  0  0
 11 12  1  0  0  0  0
 11 13  1  0  0  0  0
 11 14  1  0  0  0  0
 14 15  1  0  0  0  0
 14 16  1  0  0  0  0
 14 17  1  0  0  0  0
 17 18  1  0  0  0  0
 17 19  1  0  0  0  0
 17 20  1  0  0  0  0
 20 21  1  0  0  0  0
 20 22  1  0  0  0  0
 22 23  1  0  0  0  0
 22 24  1  0  0  0  0
 22 25  1  0  0  0  0
 20 26  1  0  0  0  0
 26 27  1  0  0  0  0
 26 28  1  0  0  0  0
 26 29  1  0  0  0  0
M  END
> <VM2 Rank>
32

> <Conf_Id>
616

> <Probability>
1.15

> <Sum Probability>
77.44

> <Delta G>
1.309

> <G>
35.011

> <E>
-2.817

> <-TS>
37.828

> <U+W>
-26.962

> <U>
25.306

> <W>
-52.267

> <W(PB)>
-54.759

> <W(SA)>
2.492

> <Valence>
4.184

> <Coulomb>
19.997

> <VdW>
1.124

> <VdW6>
-9.688

> <VdW12>
10.812

> <Bond>
0.280

> <Angle>
1.609

> <Pdih>
2.295

> <Idih>
0.000

> <Tether>
0.000

$$$$
VeraChem MOL file


 29 28  0  0  0  0  0  0  0  0999 V2000     
   19.5538   19.8115   19.2267 C   0  0  0  0  0  0  0  0  0  0  0  0
   20.3058   20.6108   19.2512 H   0  0  0  0  0  0  0  0  0  0  0  0
   19.4230   19.5059   18.1805 H   0  0  0  0  0  0  0  0  0  0  0  0
   18.5983   20.2268   19.5697 H   0  0  0  0  0  0  0  0  0  0  0  0
   19.9942   18.6075   20.0900 C   0  0  0  0  0  0  0  0  0  0  0  0
   20.8815   18.1504   19.6301 H   0  0  0  0  0  0  0  0  0  0  0  0
   19.2107   17.8369   20.0781 H   0  0  0  0  0  0  0  0  0  0  0  0
   20.3343   18.9862   21.5519 C   0  0  0  0  0  0  0  0  0  0  0  0
   20.7649   18.1016   22.0379 H   0  0  0  0  0  0  0  0  0  0  0  0
   21.1178   19.7563   21.5580 H   0  0  0  0  0  0  0  0  0  0  0  0
   19.1084   19.4799   22.3620 C   0  0  0  0  0  0  0  0  0  0  0  0
   18.3268   18.7079   22.3609 H   0  0  0  0  0  0  0  0  0  0  0  0
   18.6755   20.3581   21.8662 H   0  0  0  0  0  0  0  0  0  0  0  0
   19.4456   19.8756   23.8211 C   0  0  0  0  0  0  0  0  0  0  0  0
   20.2413   20.6335   23.8217 H   0  0  0  0  0  0  0  0  0  0  0  0
   18.5592   20.3583   24.2531 H   0  0  0  0  0  0  0  0  0  0  0  0
   19.8642   18.6759   24.7099 C   0  0  0  0  0  0  0  0  0  0  0  0
   20.7661   18.2115   24.2931 H   0  0  0  0  0  0  0  0  0  0  0  0
   19.0786   17.9089   24.6933 H   0  0  0  0  0  0  0  0  0  0  0  0
   20.1601   19.0832   26.1698 C   0  0  2  0  0  0  0  0  0  0  0  0
   20.9176   19.8730   26.1588 H   0  0  0  0  0  0  0  0  0  0  0  0
   20.7218   17.8870   26.9548 C   0  0  0  0  0  0  0  0  0  0  0  0
   19.9974   17.0638   26.9959 H   0  0  0  0  0  0  0  0  0  0  0  0
   21.6406   17.5106   26.4880 H   0  0  0  0  0  0  0  0  0  0  0  0
   20.9670   18.1782   27.9836 H   0  0  0  0  0  0  0  0  0  0  0  0
   18.9536   19.6492   26.8677 N   0  3  0  0  0  0  0  0  0  0  0  0
   18.5944   20.4759   26.3828 H   0  0  0  0  0  0  0  0  0  0  0  0
   19.1739   19.9290   27.8279 H   0  0  0  0  0  0  0  0  0  0  0  0
   18.1944   18.9644   26.9144 H   0  0  0  0  0  0  0  0  0  0  0  0
  1  2  1  0  0  0  0
  1  3  1  0  0  0  0
  1  4  1  0  0  0  0
  1  5  1  0  0  0  0
  5  6  1  0  0  0  0
  5  7  1  0  0  0  0
  5  8  1  0  0  0  0
  8  9  1  0  0  0  0
  8 10  1  0  0  0  0
  8 11  1  0  0  0  0
 11 12  1  0  0  0  0
 11 13  1  0  0  0  0
 11 14  1  0  0  0  0
 14 15  1  0  0  0  0
 14 16  1  0  0  0  0
 14 17  1  0  0  0  0
 17 18  1  0  0  0  0
 17 19  1  0  0  0  0
 17 20  1  0  0  0  0
 20 21  1  0  0  0  0
 20 22  1  0  0  0  0
 22 23  1  0  0  0  0
 22 24  1  0  0  0  0
 22 25  1  0  0  0  0
 20 26  1  0  0  0  0
 26 27  1  0  0  0  0
 26 28  1  0  0  0  0
 26 29  1  0  0  0  0
M  END
> <VM2 Rank>
33

> <Conf_Id>
847

> <Probability>
1.10

> <Sum Probability>
78.53

> <Delta G>
1.338

> <G>
35.040

> <E>
-2.455

> <-TS>
37.495

> <U+W>
-26.599

> <U>
25.451

> <W>
-52.050

> <W(PB)>
-54.540

> <W(SA)>
2.490

> <Valence>
4.319

> <Coulomb>
19.732

> <VdW>
1.400

> <VdW6>
-9.173

> <VdW12>
10.573

> <Bond>
0.281

> <Angle>
1.459

> <Pdih>
2.580

> <Idih>
0.000

> <Tether>
0.000

$$$$
VeraChem MOL file


 29 28  0  0  0  0  0  0  0  0999 V2000     
   20.2680   20.7448   20.2635 C   0  0  0  0  0  0  0  0  0  0  0  0
   19.9271   21.2865   21.1545 H   0  0  0  0  0  0  0  0  0  0  0  0
   21.3568   20.6221   20.3303 H   0  0  0  0  0  0  0  0  0  0  0  0
   20.0543   21.3769   19.3918 H   0  0  0  0  0  0  0  0  0  0  0  0
   19.5620   19.3769   20.1253 C   0  0  0  0  0  0  0  0  0  0  0  0
   19.8404   18.9310   19.1603 H   0  0  0  0  0  0  0  0  0  0  0  0
   18.4734   19.5243   20.0933 H   0  0  0  0  0  0  0  0  0  0  0  0
   19.9224   18.3814   21.2542 C   0  0  0  0  0  0  0  0  0  0  0  0
   19.4710   17.4081   21.0175 H   0  0  0  0  0  0  0  0  0  0  0  0
   21.0095   18.2225   21.2697 H   0  0  0  0  0  0  0  0  0  0  0  0
   19.4414   18.8353   22.6531 C   0  0  0  0  0  0  0  0  0  0  0  0
   18.3620   19.0375   22.6216 H   0  0  0  0  0  0  0  0  0  0  0  0
   19.9366   19.7764   22.9226 H   0  0  0  0  0  0  0  0  0  0  0  0
   19.7361   17.7671   23.7333 C   0  0  0  0  0  0  0  0  0  0  0  0
   19.2775   16.8151   23.4325 H   0  0  0  0  0  0  0  0  0  0  0  0
   20.8165   17.5780   23.7849 H   0  0  0  0  0  0  0  0  0  0  0  0
   19.1948   18.1498   25.1351 C   0  0  0  0  0  0  0  0  0  0  0  0
   19.4278   17.3412   25.8405 H   0  0  0  0  0  0  0  0  0  0  0  0
   18.0993   18.2002   25.0813 H   0  0  0  0  0  0  0  0  0  0  0  0
   19.7247   19.4886   25.7008 C   0  0  2  0  0  0  0  0  0  0  0  0
   19.4775   20.2850   24.9927 H   0  0  0  0  0  0  0  0  0  0  0  0
   21.2507   19.4696   25.8992 C   0  0  0  0  0  0  0  0  0  0  0  0
   21.5545   18.6486   26.5605 H   0  0  0  0  0  0  0  0  0  0  0  0
   21.7744   19.3529   24.9432 H   0  0  0  0  0  0  0  0  0  0  0  0
   21.5944   20.4110   26.3450 H   0  0  0  0  0  0  0  0  0  0  0  0
   19.0359   19.8425   26.9894 N   0  3  0  0  0  0  0  0  0  0  0  0
   18.0204   19.9023   26.8702 H   0  0  0  0  0  0  0  0  0  0  0  0
   19.3545   20.7473   27.3477 H   0  0  0  0  0  0  0  0  0  0  0  0
   19.2197   19.1447   27.7154 H   0  0  0  0  0  0  0  0  0  0  0  0
  1  2  1  0  0  0  0
  1  3  1  0  0  0  0
  1  4  1  0  0  0  0
  1  5  1  0  0  0  0
  5  6  1  0  0  0  0
  5  7  1  0  0  0  0
  5  8  1  0  0  0  0
  8  9  1  0  0  0  0
  8 10  1  0  0  0  0
  8 11  1  0  0  0  0
 11 12  1  0  0  0  0
 11 13  1  0  0  0  0
 11 14  1  0  0  0  0
 14 15  1  0  0  0  0
 14 16  1  0  0  0  0
 14 17  1  0  0  0  0
 17 18  1  0  0  0  0
 17 19  1  0  0  0  0
 17 20  1  0  0  0  0
 20 21  1  0  0  0  0
 20 22  1  0  0  0  0
 22 23  1  0  0  0  0
 22 24  1  0  0  0  0
 22 25  1  0  0  0  0
 20 26  1  0  0  0  0
 26 27  1  0  0  0  0
 26 28  1  0  0  0  0
 26 29  1  0  0  0  0
M  END
> <VM2 Rank>
34

> <Conf_Id>
19

> <Probability>
0.94

> <Sum Probability>
79.47

> <Delta G>
1.430

> <G>
35.133

> <E>
-2.657

> <-TS>
37.789

> <U+W>
-26.802

> <U>
25.521

> <W>
-52.322

> <W(PB)>
-54.805

> <W(SA)>
2.483

> <Valence>
4.455

> <Coulomb>
19.959

> <VdW>
1.107

> <VdW6>
-9.753

> <VdW12>
10.860

> <Bond>
0.265

> <Angle>
1.659

> <Pdih>
2.531

> <Idih>
0.000

> <Tether>
0.000

$$$$
VeraChem MOL file


 29 28  0  0  0  0  0  0  0  0999 V2000     
   19.3785   19.6728   19.0514 C   0  0  0  0  0  0  0  0  0  0  0  0
   20.2594   20.2284   18.7040 H   0  0  0  0  0  0  0  0  0  0  0  0
   19.1252   18.9294   18.2844 H   0  0  0  0  0  0  0  0  0  0  0  0
   18.5393   20.3762   19.1295 H   0  0  0  0  0  0  0  0  0  0  0  0
   19.6537   18.9860   20.4059 C   0  0  0  0  0  0  0  0  0  0  0  0
   20.4778   18.2683   20.2894 H   0  0  0  0  0  0  0  0  0  0  0  0
   18.7667   18.4087   20.6981 H   0  0  0  0  0  0  0  0  0  0  0  0
   20.0088   20.0156   21.5047 C   0  0  0  0  0  0  0  0  0  0  0  0
   20.8447   20.6361   21.1531 H   0  0  0  0  0  0  0  0  0  0  0  0
   19.1625   20.6987   21.6600 H   0  0  0  0  0  0  0  0  0  0  0  0
   20.4120   19.3718   22.8541 C   0  0  0  0  0  0  0  0  0  0  0  0
   20.7763   20.1698   23.5141 H   0  0  0  0  0  0  0  0  0  0  0  0
   21.2595   18.6904   22.6968 H   0  0  0  0  0  0  0  0  0  0  0  0
   19.2525   18.6126   23.5481 C   0  0  0  0  0  0  0  0  0  0  0  0
   18.3931   19.2836   23.6779 H   0  0  0  0  0  0  0  0  0  0  0  0
   18.9067   17.7979   22.8990 H   0  0  0  0  0  0  0  0  0  0  0  0
   19.6563   17.9964   24.9123 C   0  0  0  0  0  0  0  0  0  0  0  0
   20.4566   17.2633   24.7454 H   0  0  0  0  0  0  0  0  0  0  0  0
   18.8042   17.4329   25.3152 H   0  0  0  0  0  0  0  0  0  0  0  0
   20.1281   19.0262   25.9634 C   0  0  2  0  0  0  0  0  0  0  0  0
   20.9930   19.5606   25.5598 H   0  0  0  0  0  0  0  0  0  0  0  0
   20.5663   18.3124   27.2519 C   0  0  0  0  0  0  0  0  0  0  0  0
   19.7317   17.7629   27.7052 H   0  0  0  0  0  0  0  0  0  0  0  0
   21.3739   17.5987   27.0465 H   0  0  0  0  0  0  0  0  0  0  0  0
   20.9399   19.0348   27.9881 H   0  0  0  0  0  0  0  0  0  0  0  0
   19.0797   20.0622   26.2622 N   0  3  0  0  0  0  0  0  0  0  0  0
   18.8082   20.5698   25.4156 H   0  0  0  0  0  0  0  0  0  0  0  0
   19.4163   20.7516   26.9405 H   0  0  0  0  0  0  0  0  0  0  0  0
   18.2346   19.6356   26.6512 H   0  0  0  0  0  0  0  0  0  0  0  0
  1  2  1  0  0  0  0
  1  3  1  0  0  0  0
  1  4  1  0  0  0  0
  1  5  1  0  0  0  0
  5  6  1  0  0  0  0
  5  7  1  0  0  0  0
  5  8  1  0  0  0  0
  8  9  1  0  0  0  0
  8 10  1  0  0  0  0
  8 11  1  0  0  0  0
 11 12  1  0  0  0  0
 11 13  1  0  0  0  0
 11 14  1  0  0  0  0
 14 15  1  0  0  0  0
 14 16  1  0  0  0  0
 14 17  1  0  0  0  0
 17 18  1  0  0  0  0
 17 19  1  0  0  0  0
 17 20  1  0  0  0  0
 20 21  1  0  0  0  0
 20 22  1  0  0  0  0
 22 23  1  0  0  0  0
 22 24  1  0  0  0  0
 22 25  1  0  0  0  0
 20 26  1  0  0  0  0
 26 27  1  0  0  0  0
 26 28  1  0  0  0  0
 26 29  1  0  0  0  0
M  END
> <VM2 Rank>
35

> <Conf_Id>
1190

> <Probability>
0.93

> <Sum Probability>
80.40

> <Delta G>
1.435

> <G>
35.137

> <E>
-2.509

> <-TS>
37.646

> <U+W>
-26.654

> <U>
25.432

> <W>
-52.085

> <W(PB)>
-54.609

> <W(SA)>
2.523

> <Valence>
4.057

> <Coulomb>
20.266

> <VdW>
1.109

> <VdW6>
-9.451

> <VdW12>
10.560

> <Bond>
0.265

> <Angle>
1.407

> <Pdih>
2.385

> <Idih>
0.000

> <Tether>
0.000

$$$$
VeraChem MOL file


 29 28  0  0  0  0  0  0  0  0999 V2000     
   19.1567   20.0997   19.3405 C   0  0  0  0  0  0  0  0  0  0  0  0
   19.0092   19.1347   18.8383 H   0  0  0  0  0  0  0  0  0  0  0  0
   18.3107   20.7486   19.0792 H   0  0  0  0  0  0  0  0  0  0  0  0
   20.0696   20.5584   18.9388 H   0  0  0  0  0  0  0  0  0  0  0  0
   19.2528   19.9193   20.8702 C   0  0  0  0  0  0  0  0  0  0  0  0
   18.3085   19.4972   21.2387 H   0  0  0  0  0  0  0  0  0  0  0  0
   19.3705   20.9029   21.3459 H   0  0  0  0  0  0  0  0  0  0  0  0
   20.4366   19.0040   21.2624 C   0  0  0  0  0  0  0  0  0  0  0  0
   20.2928   18.0052   20.8276 H   0  0  0  0  0  0  0  0  0  0  0  0
   21.3588   19.4033   20.8181 H   0  0  0  0  0  0  0  0  0  0  0  0
   20.6427   18.8801   22.7918 C   0  0  0  0  0  0  0  0  0  0  0  0
   20.8061   19.8801   23.2152 H   0  0  0  0  0  0  0  0  0  0  0  0
   21.5660   18.3127   22.9730 H   0  0  0  0  0  0  0  0  0  0  0  0
   19.4681   18.1756   23.5166 C   0  0  0  0  0  0  0  0  0  0  0  0
   18.5524   18.7734   23.4267 H   0  0  0  0  0  0  0  0  0  0  0  0
   19.2588   17.2199   23.0167 H   0  0  0  0  0  0  0  0  0  0  0  0
   19.7599   17.8943   25.0128 C   0  0  0  0  0  0  0  0  0  0  0  0
   20.6115   17.2045   25.0830 H   0  0  0  0  0  0  0  0  0  0  0  0
   18.9023   17.3679   25.4523 H   0  0  0  0  0  0  0  0  0  0  0  0
   20.0664   19.1587   25.8463 C   0  0  2  0  0  0  0  0  0  0  0  0
   20.9339   19.6596   25.4064 H   0  0  0  0  0  0  0  0  0  0  0  0
   20.4174   18.7743   27.2922 C   0  0  0  0  0  0  0  0  0  0  0  0
   19.5760   18.2711   27.7848 H   0  0  0  0  0  0  0  0  0  0  0  0
   21.2815   18.0986   27.3167 H   0  0  0  0  0  0  0  0  0  0  0  0
   20.6743   19.6647   27.8792 H   0  0  0  0  0  0  0  0  0  0  0  0
   18.9354   20.1499   25.8212 N   0  3  0  0  0  0  0  0  0  0  0  0
   18.7182   20.4403   24.8640 H   0  0  0  0  0  0  0  0  0  0  0  0
   19.1643   20.9931   26.3553 H   0  0  0  0  0  0  0  0  0  0  0  0
   18.0831   19.7525   26.2251 H   0  0  0  0  0  0  0  0  0  0  0  0
  1  2  1  0  0  0  0
  1  3  1  0  0  0  0
  1  4  1  0  0  0  0
  1  5  1  0  0  0  0
  5  6  1  0  0  0  0
  5  7  1  0  0  0  0
  5  8  1  0  0  0  0
  8  9  1  0  0  0  0
  8 10  1  0  0  0  0
  8 11  1  0  0  0  0
 11 12  1  0  0  0  0
 11 13  1  0  0  0  0
 11 14  1  0  0  0  0
 14 15  1  0  0  0  0
 14 16  1  0  0  0  0
 14 17  1  0  0  0  0
 17 18  1  0  0  0  0
 17 19  1  0  0  0  0
 17 20  1  0  0  0  0
 20 21  1  0  0  0  0
 20 22  1  0  0  0  0
 22 23  1  0  0  0  0
 22 24  1  0  0  0  0
 22 25  1  0  0  0  0
 20 26  1  0  0  0  0
 26 27  1  0  0  0  0
 26 28  1  0  0  0  0
 26 29  1  0  0  0  0
M  END
> <VM2 Rank>
36

> <Conf_Id>
1185

> <Probability>
0.90

> <Sum Probability>
81.30

> <Delta G>
1.456

> <G>
35.159

> <E>
-2.536

> <-TS>
37.694

> <U+W>
-26.680

> <U>
25.640

> <W>
-52.320

> <W(PB)>
-54.810

> <W(SA)>
2.490

> <Valence>
3.985

> <Coulomb>
20.665

> <VdW>
0.990

> <VdW6>
-9.569

> <VdW12>
10.558

> <Bond>
0.256

> <Angle>
1.314

> <Pdih>
2.414

> <Idih>
0.000

> <Tether>
0.000

$$$$
VeraChem MOL file


 29 28  0  0  0  0  0  0  0  0999 V2000     
   20.4610   19.1087   19.2236 C   0  0  0  0  0  0  0  0  0  0  0  0
   21.3025   18.5276   18.8245 H   0  0  0  0  0  0  0  0  0  0  0  0
   19.5368   18.7057   18.7892 H   0  0  0  0  0  0  0  0  0  0  0  0
   20.5757   20.1457   18.8820 H   0  0  0  0  0  0  0  0  0  0  0  0
   20.4282   19.0321   20.7647 C   0  0  0  0  0  0  0  0  0  0  0  0
   21.3761   19.4143   21.1685 H   0  0  0  0  0  0  0  0  0  0  0  0
   20.3541   17.9792   21.0672 H   0  0  0  0  0  0  0  0  0  0  0  0
   19.2468   19.8409   21.3503 C   0  0  0  0  0  0  0  0  0  0  0  0
   19.2972   20.8712   20.9717 H   0  0  0  0  0  0  0  0  0  0  0  0
   18.2967   19.4255   20.9871 H   0  0  0  0  0  0  0  0  0  0  0  0
   19.2363   19.8870   22.8978 C   0  0  0  0  0  0  0  0  0  0  0  0
   18.4411   20.5732   23.2202 H   0  0  0  0  0  0  0  0  0  0  0  0
   20.1816   20.3199   23.2513 H   0  0  0  0  0  0  0  0  0  0  0  0
   19.0043   18.5025   23.5538 C   0  0  0  0  0  0  0  0  0  0  0  0
   18.1066   18.0436   23.1173 H   0  0  0  0  0  0  0  0  0  0  0  0
   19.8352   17.8257   23.3189 H   0  0  0  0  0  0  0  0  0  0  0  0
   18.8172   18.5831   25.0907 C   0  0  0  0  0  0  0  0  0  0  0  0
   18.6482   17.5718   25.4838 H   0  0  0  0  0  0  0  0  0  0  0  0
   17.8990   19.1479   25.2991 H   0  0  0  0  0  0  0  0  0  0  0  0
   19.9883   19.2405   25.8584 C   0  0  2  0  0  0  0  0  0  0  0  0
   20.1406   20.2476   25.4592 H   0  0  0  0  0  0  0  0  0  0  0  0
   21.2998   18.4507   25.7005 C   0  0  0  0  0  0  0  0  0  0  0  0
   22.1014   18.9102   26.2918 H   0  0  0  0  0  0  0  0  0  0  0  0
   21.1808   17.4131   26.0363 H   0  0  0  0  0  0  0  0  0  0  0  0
   21.6333   18.4382   24.6563 H   0  0  0  0  0  0  0  0  0  0  0  0
   19.6541   19.4105   27.3142 N   0  3  0  0  0  0  0  0  0  0  0  0
   18.8064   19.9704   27.4437 H   0  0  0  0  0  0  0  0  0  0  0  0
   20.4103   19.8814   27.8192 H   0  0  0  0  0  0  0  0  0  0  0  0
   19.4988   18.5073   27.7700 H   0  0  0  0  0  0  0  0  0  0  0  0
  1  2  1  0  0  0  0
  1  3  1  0  0  0  0
  1  4  1  0  0  0  0
  1  5  1  0  0  0  0
  5  6  1  0  0  0  0
  5  7  1  0  0  0  0
  5  8  1  0  0  0  0
  8  9  1  0  0  0  0
  8 10  1  0  0  0  0
  8 11  1  0  0  0  0
 11 12  1  0  0  0  0
 11 13  1  0  0  0  0
 11 14  1  0  0  0  0
 14 15  1  0  0  0  0
 14 16  1  0  0  0  0
 14 17  1  0  0  0  0
 17 18  1  0  0  0  0
 17 19  1  0  0  0  0
 17 20  1  0  0  0  0
 20 21  1  0  0  0  0
 20 22  1  0  0  0  0
 22 23  1  0  0  0  0
 22 24  1  0  0  0  0
 22 25  1  0  0  0  0
 20 26  1  0  0  0  0
 26 27  1  0  0  0  0
 26 28  1  0  0  0  0
 26 29  1  0  0  0  0
M  END
> <VM2 Rank>
37

> <Conf_Id>
1351

> <Probability>
0.89

> <Sum Probability>
82.19

> <Delta G>
1.462

> <G>
35.164

> <E>
-2.624

> <-TS>
37.788

> <U+W>
-26.768

> <U>
25.505

> <W>
-52.273

> <W(PB)>
-54.758

> <W(SA)>
2.485

> <Valence>
4.471

> <Coulomb>
19.980

> <VdW>
1.055

> <VdW6>
-9.823

> <VdW12>
10.878

> <Bond>
0.267

> <Angle>
1.632

> <Pdih>
2.572

> <Idih>
0.000

> <Tether>
0.000

$$$$
VeraChem MOL file


 29 28  0  0  0  0  0  0  0  0999 V2000     
   19.4179   20.4423   19.8564 C   0  0  0  0  0  0  0  0  0  0  0  0
   19.1267   21.0826   20.6982 H   0  0  0  0  0  0  0  0  0  0  0  0
   19.7725   21.0979   19.0506 H   0  0  0  0  0  0  0  0  0  0  0  0
   18.5227   19.9200   19.4950 H   0  0  0  0  0  0  0  0  0  0  0  0
   20.5211   19.4386   20.2618 C   0  0  0  0  0  0  0  0  0  0  0  0
   21.3933   19.9843   20.6480 H   0  0  0  0  0  0  0  0  0  0  0  0
   20.8640   18.9074   19.3629 H   0  0  0  0  0  0  0  0  0  0  0  0
   20.0512   18.3967   21.3053 C   0  0  0  0  0  0  0  0  0  0  0  0
   19.1941   17.8378   20.9051 H   0  0  0  0  0  0  0  0  0  0  0  0
   20.8565   17.6639   21.4532 H   0  0  0  0  0  0  0  0  0  0  0  0
   19.6772   19.0187   22.6718 C   0  0  0  0  0  0  0  0  0  0  0  0
   18.8221   19.6968   22.5517 H   0  0  0  0  0  0  0  0  0  0  0  0
   20.5189   19.6240   23.0334 H   0  0  0  0  0  0  0  0  0  0  0  0
   19.3202   17.9331   23.7151 C   0  0  0  0  0  0  0  0  0  0  0  0
   18.5168   17.2999   23.3137 H   0  0  0  0  0  0  0  0  0  0  0  0
   20.1796   17.2674   23.8699 H   0  0  0  0  0  0  0  0  0  0  0  0
   18.8506   18.5200   25.0713 C   0  0  0  0  0  0  0  0  0  0  0  0
   18.6030   17.6941   25.7513 H   0  0  0  0  0  0  0  0  0  0  0  0
   17.9142   19.0687   24.9054 H   0  0  0  0  0  0  0  0  0  0  0  0
   19.8621   19.4645   25.7626 C   0  0  2  0  0  0  0  0  0  0  0  0
   20.0943   20.2842   25.0763 H   0  0  0  0  0  0  0  0  0  0  0  0
   21.1736   18.7442   26.1226 C   0  0  0  0  0  0  0  0  0  0  0  0
   21.6963   18.3972   25.2237 H   0  0  0  0  0  0  0  0  0  0  0  0
   21.8540   19.4220   26.6527 H   0  0  0  0  0  0  0  0  0  0  0  0
   20.9857   17.8770   26.7678 H   0  0  0  0  0  0  0  0  0  0  0  0
   19.2621   20.0978   26.9870 N   0  3  0  0  0  0  0  0  0  0  0  0
   18.4095   20.6190   26.7628 H   0  0  0  0  0  0  0  0  0  0  0  0
   19.9140   20.7543   27.4262 H   0  0  0  0  0  0  0  0  0  0  0  0
   19.0172   19.3949   27.6895 H   0  0  0  0  0  0  0  0  0  0  0  0
  1  2  1  0  0  0  0
  1  3  1  0  0  0  0
  1  4  1  0  0  0  0
  1  5  1  0  0  0  0
  5  6  1  0  0  0  0
  5  7  1  0  0  0  0
  5  8  1  0  0  0  0
  8  9  1  0  0  0  0
  8 10  1  0  0  0  0
  8 11  1  0  0  0  0
 11 12  1  0  0  0  0
 11 13  1  0  0  0  0
 11 14  1  0  0  0  0
 14 15  1  0  0  0  0
 14 16  1  0  0  0  0
 14 17  1  0  0  0  0
 17 18  1  0  0  0  0
 17 19  1  0  0  0  0
 17 20  1  0  0  0  0
 20 21  1  0  0  0  0
 20 22  1  0  0  0  0
 22 23  1  0  0  0  0
 22 24  1  0  0  0  0
 22 25  1  0  0  0  0
 20 26  1  0  0  0  0
 26 27  1  0  0  0  0
 26 28  1  0  0  0  0
 26 29  1  0  0  0  0
M  END
> <VM2 Rank>
38

> <Conf_Id>
1367

> <Probability>
0.86

> <Sum Probability>
83.05

> <Delta G>
1.484

> <G>
35.186

> <E>
-2.603

> <-TS>
37.788

> <U+W>
-26.747

> <U>
25.489

> <W>
-52.236

> <W(PB)>
-54.721

> <W(SA)>
2.485

> <Valence>
4.461

> <Coulomb>
19.910

> <VdW>
1.118

> <VdW6>
-9.713

> <VdW12>
10.831

> <Bond>
0.263

> <Angle>
1.656

> <Pdih>
2.542

> <Idih>
0.000

> <Tether>
0.000

$$$$
VeraChem MOL file


 29 28  0  0  0  0  0  0  0  0999 V2000     
   18.2675   19.0768   19.9820 C   0  0  0  0  0  0  0  0  0  0  0  0
   17.8670   18.1116   20.3182 H   0  0  0  0  0  0  0  0  0  0  0  0
   17.4180   19.7381   19.7672 H   0  0  0  0  0  0  0  0  0  0  0  0
   18.8124   18.9127   19.0432 H   0  0  0  0  0  0  0  0  0  0  0  0
   19.1853   19.6999   21.0549 C   0  0  0  0  0  0  0  0  0  0  0  0
   18.5963   19.8853   21.9629 H   0  0  0  0  0  0  0  0  0  0  0  0
   19.5467   20.6764   20.7036 H   0  0  0  0  0  0  0  0  0  0  0  0
   20.3886   18.7833   21.3778 C   0  0  0  0  0  0  0  0  0  0  0  0
   20.0289   17.8218   21.7673 H   0  0  0  0  0  0  0  0  0  0  0  0
   20.9193   18.5500   20.4445 H   0  0  0  0  0  0  0  0  0  0  0  0
   21.4010   19.4129   22.3693 C   0  0  0  0  0  0  0  0  0  0  0  0
   21.8398   20.3089   21.9090 H   0  0  0  0  0  0  0  0  0  0  0  0
   22.2344   18.7118   22.5144 H   0  0  0  0  0  0  0  0  0  0  0  0
   20.8209   19.7979   23.7547 C   0  0  0  0  0  0  0  0  0  0  0  0
   21.6309   20.2268   24.3609 H   0  0  0  0  0  0  0  0  0  0  0  0
   20.0780   20.5963   23.6333 H   0  0  0  0  0  0  0  0  0  0  0  0
   20.2014   18.5994   24.5177 C   0  0  0  0  0  0  0  0  0  0  0  0
   20.9314   17.7794   24.5431 H   0  0  0  0  0  0  0  0  0  0  0  0
   19.3222   18.2227   23.9796 H   0  0  0  0  0  0  0  0  0  0  0  0
   19.7991   18.9542   25.9652 C   0  0  2  0  0  0  0  0  0  0  0  0
   20.6821   19.3436   26.4811 H   0  0  0  0  0  0  0  0  0  0  0  0
   19.3195   17.6981   26.7098 C   0  0  0  0  0  0  0  0  0  0  0  0
   19.0669   17.9364   27.7504 H   0  0  0  0  0  0  0  0  0  0  0  0
   18.4302   17.2684   26.2318 H   0  0  0  0  0  0  0  0  0  0  0  0
   20.1036   16.9309   26.7251 H   0  0  0  0  0  0  0  0  0  0  0  0
   18.7527   20.0334   26.0226 N   0  3  0  0  0  0  0  0  0  0  0  0
   17.8898   19.7412   25.5564 H   0  0  0  0  0  0  0  0  0  0  0  0
   19.0758   20.8911   25.5669 H   0  0  0  0  0  0  0  0  0  0  0  0
   18.5139   20.2712   26.9896 H   0  0  0  0  0  0  0  0  0  0  0  0
  1  2  1  0  0  0  0
  1  3  1  0  0  0  0
  1  4  1  0  0  0  0
  1  5  1  0  0  0  0
  5  6  1  0  0  0  0
  5  7  1  0  0  0  0
  5  8  1  0  0  0  0
  8  9  1  0  0  0  0
  8 10  1  0  0  0  0
  8 11  1  0  0  0  0
 11 12  1  0  0  0  0
 11 13  1  0  0  0  0
 11 14  1  0  0  0  0
 14 15  1  0  0  0  0
 14 16  1  0  0  0  0
 14 17  1  0  0  0  0
 17 18  1  0  0  0  0
 17 19  1  0  0  0  0
 17 20  1  0  0  0  0
 20 21  1  0  0  0  0
 20 22  1  0  0  0  0
 22 23  1  0  0  0  0
 22 24  1  0  0  0  0
 22 25  1  0  0  0  0
 20 26  1  0  0  0  0
 26 27  1  0  0  0  0
 26 28  1  0  0  0  0
 26 29  1  0  0  0  0
M  END
> <VM2 Rank>
39

> <Conf_Id>
1041

> <Probability>
0.85

> <Sum Probability>
83.89

> <Delta G>
1.492

> <G>
35.194

> <E>
-2.653

> <-TS>
37.847

> <U+W>
-26.798

> <U>
25.620

> <W>
-52.418

> <W(PB)>
-54.902

> <W(SA)>
2.484

> <Valence>
4.137

> <Coulomb>
20.478

> <VdW>
1.005

> <VdW6>
-9.765

> <VdW12>
10.770

> <Bond>
0.272

> <Angle>
1.511

> <Pdih>
2.355

> <Idih>
0.000

> <Tether>
0.000

$$$$
VeraChem MOL file


 29 28  0  0  0  0  0  0  0  0999 V2000     
   19.4025   20.5550   19.7641 C   0  0  0  0  0  0  0  0  0  0  0  0
   18.5451   20.0048   19.3550 H   0  0  0  0  0  0  0  0  0  0  0  0
   19.0185   21.4020   20.3476 H   0  0  0  0  0  0  0  0  0  0  0  0
   19.9768   20.9597   18.9206 H   0  0  0  0  0  0  0  0  0  0  0  0
   20.2863   19.6369   20.6345 C   0  0  0  0  0  0  0  0  0  0  0  0
   21.1519   20.2057   21.0021 H   0  0  0  0  0  0  0  0  0  0  0  0
   20.6831   18.8198   20.0158 H   0  0  0  0  0  0  0  0  0  0  0  0
   19.5009   19.0529   21.8294 C   0  0  0  0  0  0  0  0  0  0  0  0
   19.1019   19.8786   22.4330 H   0  0  0  0  0  0  0  0  0  0  0  0
   18.6384   18.4828   21.4575 H   0  0  0  0  0  0  0  0  0  0  0  0
   20.3874   18.1365   22.7061 C   0  0  0  0  0  0  0  0  0  0  0  0
   21.2305   18.7129   23.1098 H   0  0  0  0  0  0  0  0  0  0  0  0
   20.8307   17.3557   22.0728 H   0  0  0  0  0  0  0  0  0  0  0  0
   19.6144   17.4481   23.8605 C   0  0  0  0  0  0  0  0  0  0  0  0
   18.8432   16.7925   23.4332 H   0  0  0  0  0  0  0  0  0  0  0  0
   20.3004   16.7819   24.4003 H   0  0  0  0  0  0  0  0  0  0  0  0
   18.9403   18.4199   24.8660 C   0  0  0  0  0  0  0  0  0  0  0  0
   18.4827   17.8345   25.6744 H   0  0  0  0  0  0  0  0  0  0  0  0
   18.1100   18.9303   24.3616 H   0  0  0  0  0  0  0  0  0  0  0  0
   19.8836   19.4825   25.4765 C   0  0  2  0  0  0  0  0  0  0  0  0
   20.3425   20.0461   24.6587 H   0  0  0  0  0  0  0  0  0  0  0  0
   21.0030   18.8436   26.3174 C   0  0  0  0  0  0  0  0  0  0  0  0
   20.5893   18.2296   27.1270 H   0  0  0  0  0  0  0  0  0  0  0  0
   21.6500   18.2083   25.7014 H   0  0  0  0  0  0  0  0  0  0  0  0
   21.6382   19.6168   26.7668 H   0  0  0  0  0  0  0  0  0  0  0  0
   19.1177   20.4805   26.2995 N   0  3  0  0  0  0  0  0  0  0  0  0
   18.3937   20.9490   25.7472 H   0  0  0  0  0  0  0  0  0  0  0  0
   19.7338   21.2077   26.6741 H   0  0  0  0  0  0  0  0  0  0  0  0
   18.6558   20.0323   27.0954 H   0  0  0  0  0  0  0  0  0  0  0  0
  1  2  1  0  0  0  0
  1  3  1  0  0  0  0
  1  4  1  0  0  0  0
  1  5  1  0  0  0  0
  5  6  1  0  0  0  0
  5  7  1  0  0  0  0
  5  8  1  0  0  0  0
  8  9  1  0  0  0  0
  8 10  1  0  0  0  0
  8 11  1  0  0  0  0
 11 12  1  0  0  0  0
 11 13  1  0  0  0  0
 11 14  1  0  0  0  0
 14 15  1  0  0  0  0
 14 16  1  0  0  0  0
 14 17  1  0  0  0  0
 17 18  1  0  0  0  0
 17 19  1  0  0  0  0
 17 20  1  0  0  0  0
 20 21  1  0  0  0  0
 20 22  1  0  0  0  0
 22 23  1  0  0  0  0
 22 24  1  0  0  0  0
 22 25  1  0  0  0  0
 20 26  1  0  0  0  0
 26 27  1  0  0  0  0
 26 28  1  0  0  0  0
 26 29  1  0  0  0  0
M  END
> <VM2 Rank>
40

> <Conf_Id>
908

> <Probability>
0.83

> <Sum Probability>
84.72

> <Delta G>
1.503

> <G>
35.205

> <E>
-2.773

> <-TS>
37.978

> <U+W>
-26.917

> <U>
25.707

> <W>
-52.624

> <W(PB)>
-55.091

> <W(SA)>
2.466

> <Valence>
4.405

> <Coulomb>
20.449

> <VdW>
0.853

> <VdW6>
-10.190

> <VdW12>
11.043

> <Bond>
0.273

> <Angle>
1.693

> <Pdih>
2.439

> <Idih>
0.000

> <Tether>
0.000

$$$$
VeraChem MOL file


 29 28  0  0  0  0  0  0  0  0999 V2000     
   19.9966   19.2113   18.9974 C   0  0  0  0  0  0  0  0  0  0  0  0
   20.2437   20.2394   18.7021 H   0  0  0  0  0  0  0  0  0  0  0  0
   20.9117   18.6081   18.9347 H   0  0  0  0  0  0  0  0  0  0  0  0
   19.2802   18.8141   18.2666 H   0  0  0  0  0  0  0  0  0  0  0  0
   19.4022   19.1700   20.4211 C   0  0  0  0  0  0  0  0  0  0  0  0
   19.1304   18.1340   20.6625 H   0  0  0  0  0  0  0  0  0  0  0  0
   18.4738   19.7576   20.4452 H   0  0  0  0  0  0  0  0  0  0  0  0
   20.3970   19.7213   21.4697 C   0  0  0  0  0  0  0  0  0  0  0  0
   21.3027   19.0995   21.4847 H   0  0  0  0  0  0  0  0  0  0  0  0
   20.7183   20.7257   21.1608 H   0  0  0  0  0  0  0  0  0  0  0  0
   19.8074   19.8147   22.8985 C   0  0  0  0  0  0  0  0  0  0  0  0
   18.9025   20.4377   22.8826 H   0  0  0  0  0  0  0  0  0  0  0  0
   20.5344   20.3415   23.5303 H   0  0  0  0  0  0  0  0  0  0  0  0
   19.4824   18.4349   23.5250 C   0  0  0  0  0  0  0  0  0  0  0  0
   18.7401   17.9156   22.9056 H   0  0  0  0  0  0  0  0  0  0  0  0
   20.3791   17.8014   23.5170 H   0  0  0  0  0  0  0  0  0  0  0  0
   18.9142   18.5359   24.9645 C   0  0  0  0  0  0  0  0  0  0  0  0
   18.6829   17.5257   25.3274 H   0  0  0  0  0  0  0  0  0  0  0  0
   17.9560   19.0703   24.9217 H   0  0  0  0  0  0  0  0  0  0  0  0
   19.8317   19.2457   25.9882 C   0  0  2  0  0  0  0  0  0  0  0  0
   20.0437   20.2544   25.6220 H   0  0  0  0  0  0  0  0  0  0  0  0
   21.1676   18.5059   26.1790 C   0  0  0  0  0  0  0  0  0  0  0  0
   21.0047   17.4671   26.4921 H   0  0  0  0  0  0  0  0  0  0  0  0
   21.7536   18.4982   25.2525 H   0  0  0  0  0  0  0  0  0  0  0  0
   21.7776   19.0007   26.9448 H   0  0  0  0  0  0  0  0  0  0  0  0
   19.1369   19.4162   27.3104 N   0  3  0  0  0  0  0  0  0  0  0  0
   18.2646   19.9438   27.2129 H   0  0  0  0  0  0  0  0  0  0  0  0
   19.7250   19.9209   27.9798 H   0  0  0  0  0  0  0  0  0  0  0  0
   18.9042   18.5119   27.7298 H   0  0  0  0  0  0  0  0  0  0  0  0
  1  2  1  0  0  0  0
  1  3  1  0  0  0  0
  1  4  1  0  0  0  0
  1  5  1  0  0  0  0
  5  6  1  0  0  0  0
  5  7  1  0  0  0  0
  5  8  1  0  0  0  0
  8  9  1  0  0  0  0
  8 10  1  0  0  0  0
  8 11  1  0  0  0  0
 11 12  1  0  0  0  0
 11 13  1  0  0  0  0
 11 14  1  0  0  0  0
 14 15  1  0  0  0  0
 14 16  1  0  0  0  0
 14 17  1  0  0  0  0
 17 18  1  0  0  0  0
 17 19  1  0  0  0  0
 17 20  1  0  0  0  0
 20 21  1  0  0  0  0
 20 22  1  0  0  0  0
 22 23  1  0  0  0  0
 22 24  1  0  0  0  0
 22 25  1  0  0  0  0
 20 26  1  0  0  0  0
 26 27  1  0  0  0  0
 26 28  1  0  0  0  0
 26 29  1  0  0  0  0
M  END
> <VM2 Rank>
41

> <Conf_Id>
345

> <Probability>
0.66

> <Sum Probability>
85.39

> <Delta G>
1.636

> <G>
35.339

> <E>
-2.401

> <-TS>
37.739

> <U+W>
-26.545

> <U>
25.622

> <W>
-52.167

> <W(PB)>
-54.629

> <W(SA)>
2.462

> <Valence>
4.553

> <Coulomb>
19.890

> <VdW>
1.179

> <VdW6>
-9.673

> <VdW12>
10.852

> <Bond>
0.276

> <Angle>
1.749

> <Pdih>
2.528

> <Idih>
0.000

> <Tether>
0.000

$$$$
VeraChem MOL file


 29 28  0  0  0  0  0  0  0  0999 V2000     
   18.3551   18.9223   19.9419 C   0  0  0  0  0  0  0  0  0  0  0  0
   18.7539   19.4325   19.0555 H   0  0  0  0  0  0  0  0  0  0  0  0
   17.8886   17.9857   19.6101 H   0  0  0  0  0  0  0  0  0  0  0  0
   17.5700   19.5547   20.3765 H   0  0  0  0  0  0  0  0  0  0  0  0
   19.4716   18.6405   20.9694 C   0  0  0  0  0  0  0  0  0  0  0  0
   20.2265   17.9825   20.5169 H   0  0  0  0  0  0  0  0  0  0  0  0
   19.0425   18.0957   21.8209 H   0  0  0  0  0  0  0  0  0  0  0  0
   20.1420   19.9470   21.4554 C   0  0  0  0  0  0  0  0  0  0  0  0
   20.4971   20.5118   20.5824 H   0  0  0  0  0  0  0  0  0  0  0  0
   19.3959   20.5873   21.9445 H   0  0  0  0  0  0  0  0  0  0  0  0
   21.3446   19.7122   22.4057 C   0  0  0  0  0  0  0  0  0  0  0  0
   22.1313   19.1748   21.8584 H   0  0  0  0  0  0  0  0  0  0  0  0
   21.7775   20.6859   22.6736 H   0  0  0  0  0  0  0  0  0  0  0  0
   21.0195   18.9313   23.7052 C   0  0  0  0  0  0  0  0  0  0  0  0
   20.7130   17.9093   23.4500 H   0  0  0  0  0  0  0  0  0  0  0  0
   21.9438   18.8338   24.2912 H   0  0  0  0  0  0  0  0  0  0  0  0
   19.9378   19.6157   24.5800 C   0  0  0  0  0  0  0  0  0  0  0  0
   18.9731   19.6124   24.0569 H   0  0  0  0  0  0  0  0  0  0  0  0
   20.2158   20.6687   24.7188 H   0  0  0  0  0  0  0  0  0  0  0  0
   19.7650   18.9655   25.9713 C   0  0  2  0  0  0  0  0  0  0  0  0
   20.7429   18.9389   26.4619 H   0  0  0  0  0  0  0  0  0  0  0  0
   19.2286   17.5260   25.8742 C   0  0  0  0  0  0  0  0  0  0  0  0
   19.0670   17.1058   26.8745 H   0  0  0  0  0  0  0  0  0  0  0  0
   18.2745   17.4937   25.3334 H   0  0  0  0  0  0  0  0  0  0  0  0
   19.9388   16.8698   25.3581 H   0  0  0  0  0  0  0  0  0  0  0  0
   18.8717   19.7954   26.8507 N   0  3  0  0  0  0  0  0  0  0  0  0
   18.7861   19.3886   27.7866 H   0  0  0  0  0  0  0  0  0  0  0  0
   17.9277   19.8690   26.4620 H   0  0  0  0  0  0  0  0  0  0  0  0
   19.2332   20.7469   26.9643 H   0  0  0  0  0  0  0  0  0  0  0  0
  1  2  1  0  0  0  0
  1  3  1  0  0  0  0
  1  4  1  0  0  0  0
  1  5  1  0  0  0  0
  5  6  1  0  0  0  0
  5  7  1  0  0  0  0
  5  8  1  0  0  0  0
  8  9  1  0  0  0  0
  8 10  1  0  0  0  0
  8 11  1  0  0  0  0
 11 12  1  0  0  0  0
 11 13  1  0  0  0  0
 11 14  1  0  0  0  0
 14 15  1  0  0  0  0
 14 16  1  0  0  0  0
 14 17  1  0  0  0  0
 17 18  1  0  0  0  0
 17 19  1  0  0  0  0
 17 20  1  0  0  0  0
 20 21  1  0  0  0  0
 20 22  1  0  0  0  0
 22 23  1  0  0  0  0
 22 24  1  0  0  0  0
 22 25  1  0  0  0  0
 20 26  1  0  0  0  0
 26 27  1  0  0  0  0
 26 28  1  0  0  0  0
 26 29  1  0  0  0  0
M  END
> <VM2 Rank>
42

> <Conf_Id>
310

> <Probability>
0.66

> <Sum Probability>
86.05

> <Delta G>
1.637

> <G>
35.339

> <E>
-2.532

> <-TS>
37.872

> <U+W>
-26.677

> <U>
25.699

> <W>
-52.376

> <W(PB)>
-54.830

> <W(SA)>
2.454

> <Valence>
4.645

> <Coulomb>
19.935

> <VdW>
1.119

> <VdW6>
-9.960

> <VdW12>
11.079

> <Bond>
0.284

> <Angle>
1.754

> <Pdih>
2.607

> <Idih>
0.000

> <Tether>
0.000

$$$$
VeraChem MOL file


 29 28  0  0  0  0  0  0  0  0999 V2000     
   19.2423   20.1831   19.6292 C   0  0  0  0  0  0  0  0  0  0  0  0
   18.3227   20.5839   20.0750 H   0  0  0  0  0  0  0  0  0  0  0  0
   20.0770   20.8333   19.9192 H   0  0  0  0  0  0  0  0  0  0  0  0
   19.1405   20.2434   18.5379 H   0  0  0  0  0  0  0  0  0  0  0  0
   19.4822   18.7216   20.0703 C   0  0  0  0  0  0  0  0  0  0  0  0
   20.4205   18.3528   19.6328 H   0  0  0  0  0  0  0  0  0  0  0  0
   18.6821   18.0908   19.6583 H   0  0  0  0  0  0  0  0  0  0  0  0
   19.5150   18.5425   21.6072 C   0  0  0  0  0  0  0  0  0  0  0  0
   18.5615   18.8868   22.0288 H   0  0  0  0  0  0  0  0  0  0  0  0
   19.5858   17.4695   21.8324 H   0  0  0  0  0  0  0  0  0  0  0  0
   20.6955   19.2819   22.2859 C   0  0  0  0  0  0  0  0  0  0  0  0
   20.5758   20.3673   22.1713 H   0  0  0  0  0  0  0  0  0  0  0  0
   21.6288   19.0167   21.7703 H   0  0  0  0  0  0  0  0  0  0  0  0
   20.8497   18.9424   23.7886 C   0  0  0  0  0  0  0  0  0  0  0  0
   21.0098   17.8615   23.8970 H   0  0  0  0  0  0  0  0  0  0  0  0
   21.7587   19.4312   24.1655 H   0  0  0  0  0  0  0  0  0  0  0  0
   19.6399   19.3934   24.6470 C   0  0  0  0  0  0  0  0  0  0  0  0
   18.7478   18.8158   24.3737 H   0  0  0  0  0  0  0  0  0  0  0  0
   19.4174   20.4430   24.4139 H   0  0  0  0  0  0  0  0  0  0  0  0
   19.8811   19.2699   26.1686 C   0  0  2  0  0  0  0  0  0  0  0  0
   20.7931   19.8212   26.4174 H   0  0  0  0  0  0  0  0  0  0  0  0
   20.0610   17.8060   26.6090 C   0  0  0  0  0  0  0  0  0  0  0  0
   19.1930   17.1972   26.3267 H   0  0  0  0  0  0  0  0  0  0  0  0
   20.9549   17.3609   26.1570 H   0  0  0  0  0  0  0  0  0  0  0  0
   20.1818   17.7422   27.6974 H   0  0  0  0  0  0  0  0  0  0  0  0
   18.7694   19.9152   26.9484 N   0  3  0  0  0  0  0  0  0  0  0  0
   18.9449   19.8704   27.9563 H   0  0  0  0  0  0  0  0  0  0  0  0
   17.8728   19.4533   26.7736 H   0  0  0  0  0  0  0  0  0  0  0  0
   18.6601   20.9032   26.7020 H   0  0  0  0  0  0  0  0  0  0  0  0
  1  2  1  0  0  0  0
  1  3  1  0  0  0  0
  1  4  1  0  0  0  0
  1  5  1  0  0  0  0
  5  6  1  0  0  0  0
  5  7  1  0  0  0  0
  5  8  1  0  0  0  0
  8  9  1  0  0  0  0
  8 10  1  0  0  0  0
  8 11  1  0  0  0  0
 11 12  1  0  0  0  0
 11 13  1  0  0  0  0
 11 14  1  0  0  0  0
 14 15  1  0  0  0  0
 14 16  1  0  0  0  0
 14 17  1  0  0  0  0
 17 18  1  0  0  0  0
 17 19  1  0  0  0  0
 17 20  1  0  0  0  0
 20 21  1  0  0  0  0
 20 22  1  0  0  0  0
 22 23  1  0  0  0  0
 22 24  1  0  0  0  0
 22 25  1  0  0  0  0
 20 26  1  0  0  0  0
 26 27  1  0  0  0  0
 26 28  1  0  0  0  0
 26 29  1  0  0  0  0
M  END
> <VM2 Rank>
43

> <Conf_Id>
1281

> <Probability>
0.66

> <Sum Probability>
86.71

> <Delta G>
1.640

> <G>
35.342

> <E>
-2.323

> <-TS>
37.665

> <U+W>
-26.467

> <U>
25.687

> <W>
-52.155

> <W(PB)>
-54.644

> <W(SA)>
2.489

> <Valence>
4.682

> <Coulomb>
19.653

> <VdW>
1.352

> <VdW6>
-9.477

> <VdW12>
10.829

> <Bond>
0.274

> <Angle>
1.550

> <Pdih>
2.859

> <Idih>
0.000

> <Tether>
0.000

$$$$
VeraChem MOL file


 29 28  0  0  0  0  0  0  0  0999 V2000     
   21.0024   18.9257   19.7855 C   0  0  0  0  0  0  0  0  0  0  0  0
   20.4640   19.3567   18.9314 H   0  0  0  0  0  0  0  0  0  0  0  0
   21.7882   19.6309   20.0858 H   0  0  0  0  0  0  0  0  0  0  0  0
   21.4895   18.0026   19.4455 H   0  0  0  0  0  0  0  0  0  0  0  0
   20.0416   18.6347   20.9577 C   0  0  0  0  0  0  0  0  0  0  0  0
   20.6082   18.1691   21.7750 H   0  0  0  0  0  0  0  0  0  0  0  0
   19.2852   17.9049   20.6371 H   0  0  0  0  0  0  0  0  0  0  0  0
   19.3456   19.9225   21.4575 C   0  0  0  0  0  0  0  0  0  0  0  0
   20.0987   20.6361   21.8167 H   0  0  0  0  0  0  0  0  0  0  0  0
   18.8492   20.4119   20.6082 H   0  0  0  0  0  0  0  0  0  0  0  0
   18.2854   19.6685   22.5603 C   0  0  0  0  0  0  0  0  0  0  0  0
   17.4746   19.0581   22.1393 H   0  0  0  0  0  0  0  0  0  0  0  0
   17.8262   20.6279   22.8355 H   0  0  0  0  0  0  0  0  0  0  0  0
   18.8129   18.9768   23.8439 C   0  0  0  0  0  0  0  0  0  0  0  0
   17.9672   18.8498   24.5322 H   0  0  0  0  0  0  0  0  0  0  0  0
   19.1578   17.9646   23.5982 H   0  0  0  0  0  0  0  0  0  0  0  0
   19.9428   19.7729   24.5519 C   0  0  0  0  0  0  0  0  0  0  0  0
   19.6097   20.8065   24.7128 H   0  0  0  0  0  0  0  0  0  0  0  0
   20.8187   19.8347   23.8940 H   0  0  0  0  0  0  0  0  0  0  0  0
   20.3981   19.1866   25.9089 C   0  0  2  0  0  0  0  0  0  0  0  0
   21.1772   19.8464   26.3030 H   0  0  0  0  0  0  0  0  0  0  0  0
   21.0102   17.7835   25.7549 C   0  0  0  0  0  0  0  0  0  0  0  0
   20.2591   17.0443   25.4520 H   0  0  0  0  0  0  0  0  0  0  0  0
   21.8110   17.7876   25.0049 H   0  0  0  0  0  0  0  0  0  0  0  0
   21.4456   17.4487   26.7044 H   0  0  0  0  0  0  0  0  0  0  0  0
   19.2971   19.1850   26.9334 N   0  3  0  0  0  0  0  0  0  0  0  0
   18.9131   20.1240   27.0730 H   0  0  0  0  0  0  0  0  0  0  0  0
   19.6323   18.8529   27.8422 H   0  0  0  0  0  0  0  0  0  0  0  0
   18.5262   18.5756   26.6490 H   0  0  0  0  0  0  0  0  0  0  0  0
  1  2  1  0  0  0  0
  1  3  1  0  0  0  0
  1  4  1  0  0  0  0
  1  5  1  0  0  0  0
  5  6  1  0  0  0  0
  5  7  1  0  0  0  0
  5  8  1  0  0  0  0
  8  9  1  0  0  0  0
  8 10  1  0  0  0  0
  8 11  1  0  0  0  0
 11 12  1  0  0  0  0
 11 13  1  0  0  0  0
 11 14  1  0  0  0  0
 14 15  1  0  0  0  0
 14 16  1  0  0  0  0
 14 17  1  0  0  0  0
 17 18  1  0  0  0  0
 17 19  1  0  0  0  0
 17 20  1  0  0  0  0
 20 21  1  0  0  0  0
 20 22  1  0  0  0  0
 22 23  1  0  0  0  0
 22 24  1  0  0  0  0
 22 25  1  0  0  0  0
 20 26  1  0  0  0  0
 26 27  1  0  0  0  0
 26 28  1  0  0  0  0
 26 29  1  0  0  0  0
M  END
> <VM2 Rank>
44

> <Conf_Id>
1547

> <Probability>
0.61

> <Sum Probability>
87.32

> <Delta G>
1.685

> <G>
35.387

> <E>
-2.615

> <-TS>
38.002

> <U+W>
-26.759

> <U>
25.698

> <W>
-52.458

> <W(PB)>
-54.885

> <W(SA)>
2.427

> <Valence>
4.638

> <Coulomb>
19.916

> <VdW>
1.144

> <VdW6>
-10.434

> <VdW12>
11.578

> <Bond>
0.315

> <Angle>
1.852

> <Pdih>
2.471

> <Idih>
0.000

> <Tether>
0.000

$$$$
VeraChem MOL file


 29 28  0  0  0  0  0  0  0  0999 V2000     
   20.4026   20.7304   20.6113 C   0  0  0  0  0  0  0  0  0  0  0  0
   20.5810   21.2085   19.6395 H   0  0  0  0  0  0  0  0  0  0  0  0
   19.5658   21.2554   21.0883 H   0  0  0  0  0  0  0  0  0  0  0  0
   21.2986   20.8786   21.2280 H   0  0  0  0  0  0  0  0  0  0  0  0
   20.0978   19.2266   20.4262 C   0  0  0  0  0  0  0  0  0  0  0  0
   20.9081   18.7703   19.8404 H   0  0  0  0  0  0  0  0  0  0  0  0
   19.1820   19.1052   19.8310 H   0  0  0  0  0  0  0  0  0  0  0  0
   19.9595   18.4605   21.7635 C   0  0  0  0  0  0  0  0  0  0  0  0
   19.8548   17.3891   21.5443 H   0  0  0  0  0  0  0  0  0  0  0  0
   20.8891   18.5715   22.3371 H   0  0  0  0  0  0  0  0  0  0  0  0
   18.7493   18.9234   22.6131 C   0  0  0  0  0  0  0  0  0  0  0  0
   17.8453   18.9016   21.9892 H   0  0  0  0  0  0  0  0  0  0  0  0
   18.8821   19.9688   22.9186 H   0  0  0  0  0  0  0  0  0  0  0  0
   18.5027   18.0412   23.8641 C   0  0  0  0  0  0  0  0  0  0  0  0
   17.6089   18.4074   24.3867 H   0  0  0  0  0  0  0  0  0  0  0  0
   18.2579   17.0204   23.5396 H   0  0  0  0  0  0  0  0  0  0  0  0
   19.6917   17.9760   24.8596 C   0  0  0  0  0  0  0  0  0  0  0  0
   20.5238   17.4349   24.3911 H   0  0  0  0  0  0  0  0  0  0  0  0
   19.3958   17.3756   25.7300 H   0  0  0  0  0  0  0  0  0  0  0  0
   20.1908   19.3577   25.3371 C   0  0  2  0  0  0  0  0  0  0  0  0
   20.4825   19.9405   24.4582 H   0  0  0  0  0  0  0  0  0  0  0  0
   21.4250   19.1995   26.2388 C   0  0  0  0  0  0  0  0  0  0  0  0
   21.1863   18.6227   27.1411 H   0  0  0  0  0  0  0  0  0  0  0  0
   22.2328   18.6823   25.7062 H   0  0  0  0  0  0  0  0  0  0  0  0
   21.8061   20.1798   26.5505 H   0  0  0  0  0  0  0  0  0  0  0  0
   19.1165   20.1407   26.0403 N   0  3  0  0  0  0  0  0  0  0  0  0
   18.3016   20.2772   25.4361 H   0  0  0  0  0  0  0  0  0  0  0  0
   19.4508   21.0665   26.3225 H   0  0  0  0  0  0  0  0  0  0  0  0
   18.7972   19.6587   26.8849 H   0  0  0  0  0  0  0  0  0  0  0  0
  1  2  1  0  0  0  0
  1  3  1  0  0  0  0
  1  4  1  0  0  0  0
  1  5  1  0  0  0  0
  5  6  1  0  0  0  0
  5  7  1  0  0  0  0
  5  8  1  0  0  0  0
  8  9  1  0  0  0  0
  8 10  1  0  0  0  0
  8 11  1  0  0  0  0
 11 12  1  0  0  0  0
 11 13  1  0  0  0  0
 11 14  1  0  0  0  0
 14 15  1  0  0  0  0
 14 16  1  0  0  0  0
 14 17  1  0  0  0  0
 17 18  1  0  0  0  0
 17 19  1  0  0  0  0
 17 20  1  0  0  0  0
 20 21  1  0  0  0  0
 20 22  1  0  0  0  0
 22 23  1  0  0  0  0
 22 24  1  0  0  0  0
 22 25  1  0  0  0  0
 20 26  1  0  0  0  0
 26 27  1  0  0  0  0
 26 28  1  0  0  0  0
 26 29  1  0  0  0  0
M  END
> <VM2 Rank>
45

> <Conf_Id>
925

> <Probability>
0.60

> <Sum Probability>
87.93

> <Delta G>
1.695

> <G>
35.397

> <E>
-2.588

> <-TS>
37.985

> <U+W>
-26.732

> <U>
25.699

> <W>
-52.431

> <W(PB)>
-54.861

> <W(SA)>
2.430

> <Valence>
4.390

> <Coulomb>
20.476

> <VdW>
0.832

> <VdW6>
-10.723

> <VdW12>
11.555

> <Bond>
0.298

> <Angle>
1.586

> <Pdih>
2.506

> <Idih>
0.000

> <Tether>
0.000

$$$$
VeraChem MOL file


 29 28  0  0  0  0  0  0  0  0999 V2000     
   19.6748   20.5815   20.1551 C   0  0  0  0  0  0  0  0  0  0  0  0
   19.2472   20.9923   21.0782 H   0  0  0  0  0  0  0  0  0  0  0  0
   20.2662   21.3764   19.6825 H   0  0  0  0  0  0  0  0  0  0  0  0
   18.8501   20.3273   19.4767 H   0  0  0  0  0  0  0  0  0  0  0  0
   20.5585   19.3467   20.4416 C   0  0  0  0  0  0  0  0  0  0  0  0
   21.3634   19.6201   21.1370 H   0  0  0  0  0  0  0  0  0  0  0  0
   21.0568   19.0446   19.5099 H   0  0  0  0  0  0  0  0  0  0  0  0
   19.7642   18.1345   20.9911 C   0  0  0  0  0  0  0  0  0  0  0  0
   19.0485   17.8032   20.2261 H   0  0  0  0  0  0  0  0  0  0  0  0
   20.4572   17.2947   21.1379 H   0  0  0  0  0  0  0  0  0  0  0  0
   18.9953   18.3902   22.3131 C   0  0  0  0  0  0  0  0  0  0  0  0
   18.4642   17.4682   22.5873 H   0  0  0  0  0  0  0  0  0  0  0  0
   18.2185   19.1495   22.1527 H   0  0  0  0  0  0  0  0  0  0  0  0
   19.9089   18.8135   23.4881 C   0  0  0  0  0  0  0  0  0  0  0  0
   20.7115   18.0731   23.6008 H   0  0  0  0  0  0  0  0  0  0  0  0
   20.3870   19.7755   23.2609 H   0  0  0  0  0  0  0  0  0  0  0  0
   19.1152   18.9433   24.8112 C   0  0  0  0  0  0  0  0  0  0  0  0
   18.6921   17.9682   25.0869 H   0  0  0  0  0  0  0  0  0  0  0  0
   18.2636   19.6157   24.6427 H   0  0  0  0  0  0  0  0  0  0  0  0
   19.9512   19.4984   25.9869 C   0  0  2  0  0  0  0  0  0  0  0  0
   20.3934   20.4496   25.6746 H   0  0  0  0  0  0  0  0  0  0  0  0
   21.0875   18.5430   26.3934 C   0  0  0  0  0  0  0  0  0  0  0  0
   20.6975   17.5514   26.6550 H   0  0  0  0  0  0  0  0  0  0  0  0
   21.8168   18.4233   25.5840 H   0  0  0  0  0  0  0  0  0  0  0  0
   21.6297   18.9354   27.2625 H   0  0  0  0  0  0  0  0  0  0  0  0
   19.0805   19.8050   27.1735 N   0  3  0  0  0  0  0  0  0  0  0  0
   19.6237   20.2100   27.9413 H   0  0  0  0  0  0  0  0  0  0  0  0
   18.6268   18.9605   27.5325 H   0  0  0  0  0  0  0  0  0  0  0  0
   18.3422   20.4741   26.9368 H   0  0  0  0  0  0  0  0  0  0  0  0
  1  2  1  0  0  0  0
  1  3  1  0  0  0  0
  1  4  1  0  0  0  0
  1  5  1  0  0  0  0
  5  6  1  0  0  0  0
  5  7  1  0  0  0  0
  5  8  1  0  0  0  0
  8  9  1  0  0  0  0
  8 10  1  0  0  0  0
  8 11  1  0  0  0  0
 11 12  1  0  0  0  0
 11 13  1  0  0  0  0
 11 14  1  0  0  0  0
 14 15  1  0  0  0  0
 14 16  1  0  0  0  0
 14 17  1  0  0  0  0
 17 18  1  0  0  0  0
 17 19  1  0  0  0  0
 17 20  1  0  0  0  0
 20 21  1  0  0  0  0
 20 22  1  0  0  0  0
 22 23  1  0  0  0  0
 22 24  1  0  0  0  0
 22 25  1  0  0  0  0
 20 26  1  0  0  0  0
 26 27  1  0  0  0  0
 26 28  1  0  0  0  0
 26 29  1  0  0  0  0
M  END
> <VM2 Rank>
46

> <Conf_Id>
1675

> <Probability>
0.60

> <Sum Probability>
88.52

> <Delta G>
1.701

> <G>
35.403

> <E>
-2.432

> <-TS>
37.834

> <U+W>
-26.576

> <U>
25.529

> <W>
-52.105

> <W(PB)>
-54.577

> <W(SA)>
2.473

> <Valence>
4.664

> <Coulomb>
19.602

> <VdW>
1.262

> <VdW6>
-9.718

> <VdW12>
10.979

> <Bond>
0.278

> <Angle>
1.798

> <Pdih>
2.589

> <Idih>
0.000

> <Tether>
0.000

$$$$
VeraChem MOL file


 29 28  0  0  0  0  0  0  0  0999 V2000     
   19.9250   17.9843   20.1821 C   0  0  0  0  0  0  0  0  0  0  0  0
   20.6330   18.4016   19.4544 H   0  0  0  0  0  0  0  0  0  0  0  0
   20.4969   17.5824   21.0277 H   0  0  0  0  0  0  0  0  0  0  0  0
   19.4073   17.1430   19.7034 H   0  0  0  0  0  0  0  0  0  0  0  0
   18.9089   19.0533   20.6435 C   0  0  0  0  0  0  0  0  0  0  0  0
   18.2250   18.6190   21.3849 H   0  0  0  0  0  0  0  0  0  0  0  0
   18.2816   19.3378   19.7873 H   0  0  0  0  0  0  0  0  0  0  0  0
   19.5750   20.3319   21.2128 C   0  0  0  0  0  0  0  0  0  0  0  0
   20.1520   20.8168   20.4134 H   0  0  0  0  0  0  0  0  0  0  0  0
   18.7883   21.0466   21.4911 H   0  0  0  0  0  0  0  0  0  0  0  0
   20.5069   20.1084   22.4318 C   0  0  0  0  0  0  0  0  0  0  0  0
   20.9261   21.0799   22.7276 H   0  0  0  0  0  0  0  0  0  0  0  0
   21.3634   19.4869   22.1388 H   0  0  0  0  0  0  0  0  0  0  0  0
   19.7922   19.4753   23.6494 C   0  0  0  0  0  0  0  0  0  0  0  0
   18.9111   20.0787   23.9037 H   0  0  0  0  0  0  0  0  0  0  0  0
   19.4314   18.4753   23.3791 H   0  0  0  0  0  0  0  0  0  0  0  0
   20.7374   19.3728   24.8747 C   0  0  0  0  0  0  0  0  0  0  0  0
   21.1277   20.3708   25.1139 H   0  0  0  0  0  0  0  0  0  0  0  0
   21.6108   18.7628   24.6087 H   0  0  0  0  0  0  0  0  0  0  0  0
   20.0895   18.7839   26.1500 C   0  0  2  0  0  0  0  0  0  0  0  0
   20.8493   18.7995   26.9375 H   0  0  0  0  0  0  0  0  0  0  0  0
   19.6520   17.3216   25.9552 C   0  0  0  0  0  0  0  0  0  0  0  0
   19.3258   16.8890   26.9089 H   0  0  0  0  0  0  0  0  0  0  0  0
   18.8186   17.2379   25.2476 H   0  0  0  0  0  0  0  0  0  0  0  0
   20.4840   16.7122   25.5809 H   0  0  0  0  0  0  0  0  0  0  0  0
   18.9491   19.6245   26.6546 N   0  3  0  0  0  0  0  0  0  0  0  0
   19.2434   20.5896   26.8299 H   0  0  0  0  0  0  0  0  0  0  0  0
   18.5718   19.2551   27.5320 H   0  0  0  0  0  0  0  0  0  0  0  0
   18.1822   19.6537   25.9782 H   0  0  0  0  0  0  0  0  0  0  0  0
  1  2  1  0  0  0  0
  1  3  1  0  0  0  0
  1  4  1  0  0  0  0
  1  5  1  0  0  0  0
  5  6  1  0  0  0  0
  5  7  1  0  0  0  0
  5  8  1  0  0  0  0
  8  9  1  0  0  0  0
  8 10  1  0  0  0  0
  8 11  1  0  0  0  0
 11 12  1  0  0  0  0
 11 13  1  0  0  0  0
 11 14  1  0  0  0  0
 14 15  1  0  0  0  0
 14 16  1  0  0  0  0
 14 17  1  0  0  0  0
 17 18  1  0  0  0  0
 17 19  1  0  0  0  0
 17 20  1  0  0  0  0
 20 21  1  0  0  0  0
 20 22  1  0  0  0  0
 22 23  1  0  0  0  0
 22 24  1  0  0  0  0
 22 25  1  0  0  0  0
 20 26  1  0  0  0  0
 26 27  1  0  0  0  0
 26 28  1  0  0  0  0
 26 29  1  0  0  0  0
M  END
> <VM2 Rank>
47

> <Conf_Id>
1312

> <Probability>
0.58

> <Sum Probability>
89.10

> <Delta G>
1.719

> <G>
35.422

> <E>
-2.551

> <-TS>
37.972

> <U+W>
-26.695

> <U>
25.727

> <W>
-52.422

> <W(PB)>
-54.884

> <W(SA)>
2.461

> <Valence>
4.631

> <Coulomb>
19.868

> <VdW>
1.228

> <VdW6>
-10.252

> <VdW12>
11.480

> <Bond>
0.304

> <Angle>
1.851

> <Pdih>
2.476

> <Idih>
0.000

> <Tether>
0.000

$$$$
VeraChem MOL file


 29 28  0  0  0  0  0  0  0  0999 V2000     
   19.4438   17.9368   20.1469 C   0  0  0  0  0  0  0  0  0  0  0  0
   19.8922   17.0752   19.6355 H   0  0  0  0  0  0  0  0  0  0  0  0
   18.9726   17.5669   21.0661 H   0  0  0  0  0  0  0  0  0  0  0  0
   18.6583   18.3427   19.4964 H   0  0  0  0  0  0  0  0  0  0  0  0
   20.5183   19.0046   20.4522 C   0  0  0  0  0  0  0  0  0  0  0  0
   21.0420   19.2560   19.5194 H   0  0  0  0  0  0  0  0  0  0  0  0
   21.2813   18.5825   21.1197 H   0  0  0  0  0  0  0  0  0  0  0  0
   19.9378   20.3080   21.0578 C   0  0  0  0  0  0  0  0  0  0  0  0
   20.7593   21.0194   21.2194 H   0  0  0  0  0  0  0  0  0  0  0  0
   19.2749   20.7777   20.3182 H   0  0  0  0  0  0  0  0  0  0  0  0
   19.1551   20.1324   22.3849 C   0  0  0  0  0  0  0  0  0  0  0  0
   18.2642   19.5135   22.2149 H   0  0  0  0  0  0  0  0  0  0  0  0
   18.7829   21.1177   22.6976 H   0  0  0  0  0  0  0  0  0  0  0  0
   20.0034   19.5263   23.5284 C   0  0  0  0  0  0  0  0  0  0  0  0
   20.3232   18.5157   23.2465 H   0  0  0  0  0  0  0  0  0  0  0  0
   20.9135   20.1260   23.6674 H   0  0  0  0  0  0  0  0  0  0  0  0
   19.2132   19.4694   24.8589 C   0  0  0  0  0  0  0  0  0  0  0  0
   18.3341   18.8221   24.7397 H   0  0  0  0  0  0  0  0  0  0  0  0
   18.8316   20.4745   25.0823 H   0  0  0  0  0  0  0  0  0  0  0  0
   20.0544   18.9879   26.0630 C   0  0  2  0  0  0  0  0  0  0  0  0
   20.9450   19.6199   26.1343 H   0  0  0  0  0  0  0  0  0  0  0  0
   20.5061   17.5245   25.9083 C   0  0  0  0  0  0  0  0  0  0  0  0
   19.6470   16.8569   25.7671 H   0  0  0  0  0  0  0  0  0  0  0  0
   21.1805   17.4031   25.0529 H   0  0  0  0  0  0  0  0  0  0  0  0
   21.0517   17.1925   26.8002 H   0  0  0  0  0  0  0  0  0  0  0  0
   19.3040   19.1660   27.3535 N   0  3  0  0  0  0  0  0  0  0  0  0
   19.0308   20.1423   27.4993 H   0  0  0  0  0  0  0  0  0  0  0  0
   19.8719   18.8855   28.1582 H   0  0  0  0  0  0  0  0  0  0  0  0
   18.4502   18.6017   27.3706 H   0  0  0  0  0  0  0  0  0  0  0  0
  1  2  1  0  0  0  0
  1  3  1  0  0  0  0
  1  4  1  0  0  0  0
  1  5  1  0  0  0  0
  5  6  1  0  0  0  0
  5  7  1  0  0  0  0
  5  8  1  0  0  0  0
  8  9  1  0  0  0  0
  8 10  1  0  0  0  0
  8 11  1  0  0  0  0
 11 12  1  0  0  0  0
 11 13  1  0  0  0  0
 11 14  1  0  0  0  0
 14 15  1  0  0  0  0
 14 16  1  0  0  0  0
 14 17  1  0  0  0  0
 17 18  1  0  0  0  0
 17 19  1  0  0  0  0
 17 20  1  0  0  0  0
 20 21  1  0  0  0  0
 20 22  1  0  0  0  0
 22 23  1  0  0  0  0
 22 24  1  0  0  0  0
 22 25  1  0  0  0  0
 20 26  1  0  0  0  0
 26 27  1  0  0  0  0
 26 28  1  0  0  0  0
 26 29  1  0  0  0  0
M  END
> <VM2 Rank>
48

> <Conf_Id>
1295

> <Probability>
0.56

> <Sum Probability>
89.66

> <Delta G>
1.738

> <G>
35.440

> <E>
-2.396

> <-TS>
37.836

> <U+W>
-26.541

> <U>
25.494

> <W>
-52.034

> <W(PB)>
-54.507

> <W(SA)>
2.472

> <Valence>
4.663

> <Coulomb>
19.570

> <VdW>
1.261

> <VdW6>
-9.758

> <VdW12>
11.019

> <Bond>
0.281

> <Angle>
1.806

> <Pdih>
2.576

> <Idih>
0.000

> <Tether>
0.000

$$$$
VeraChem MOL file


 29 28  0  0  0  0  0  0  0  0999 V2000     
   19.7365   20.2428   19.5956 C   0  0  0  0  0  0  0  0  0  0  0  0
   18.7762   20.6000   19.9880 H   0  0  0  0  0  0  0  0  0  0  0  0
   20.5225   20.9334   19.9277 H   0  0  0  0  0  0  0  0  0  0  0  0
   19.6852   20.2938   18.5003 H   0  0  0  0  0  0  0  0  0  0  0  0
   20.0351   18.7982   20.0564 C   0  0  0  0  0  0  0  0  0  0  0  0
   20.9425   18.4440   19.5477 H   0  0  0  0  0  0  0  0  0  0  0  0
   19.2223   18.1322   19.7347 H   0  0  0  0  0  0  0  0  0  0  0  0
   20.2410   18.6727   21.5851 C   0  0  0  0  0  0  0  0  0  0  0  0
   20.5465   17.6423   21.8130 H   0  0  0  0  0  0  0  0  0  0  0  0
   21.0748   19.3193   21.8884 H   0  0  0  0  0  0  0  0  0  0  0  0
   18.9724   19.0186   22.4051 C   0  0  0  0  0  0  0  0  0  0  0  0
   18.1207   18.4539   22.0017 H   0  0  0  0  0  0  0  0  0  0  0  0
   18.7244   20.0815   22.2847 H   0  0  0  0  0  0  0  0  0  0  0  0
   19.1063   18.6947   23.9133 C   0  0  0  0  0  0  0  0  0  0  0  0
   18.1315   18.8674   24.3877 H   0  0  0  0  0  0  0  0  0  0  0  0
   19.3245   17.6251   24.0322 H   0  0  0  0  0  0  0  0  0  0  0  0
   20.1912   19.5448   24.6292 C   0  0  0  0  0  0  0  0  0  0  0  0
   20.0191   20.6072   24.4123 H   0  0  0  0  0  0  0  0  0  0  0  0
   21.1792   19.3066   24.2159 H   0  0  0  0  0  0  0  0  0  0  0  0
   20.2512   19.3615   26.1640 C   0  0  2  0  0  0  0  0  0  0  0  0
   21.0416   20.0189   26.5393 H   0  0  0  0  0  0  0  0  0  0  0  0
   20.6171   17.9204   26.5595 C   0  0  0  0  0  0  0  0  0  0  0  0
   19.8214   17.2134   26.2960 H   0  0  0  0  0  0  0  0  0  0  0  0
   21.5402   17.6014   26.0597 H   0  0  0  0  0  0  0  0  0  0  0  0
   20.7833   17.8499   27.6415 H   0  0  0  0  0  0  0  0  0  0  0  0
   18.9852   19.8023   26.8459 N   0  3  0  0  0  0  0  0  0  0  0  0
   18.7574   20.7752   26.6217 H   0  0  0  0  0  0  0  0  0  0  0  0
   19.0655   19.7333   27.8644 H   0  0  0  0  0  0  0  0  0  0  0  0
   18.1898   19.2256   26.5609 H   0  0  0  0  0  0  0  0  0  0  0  0
  1  2  1  0  0  0  0
  1  3  1  0  0  0  0
  1  4  1  0  0  0  0
  1  5  1  0  0  0  0
  5  6  1  0  0  0  0
  5  7  1  0  0  0  0
  5  8  1  0  0  0  0
  8  9  1  0  0  0  0
  8 10  1  0  0  0  0
  8 11  1  0  0  0  0
 11 12  1  0  0  0  0
 11 13  1  0  0  0  0
 11 14  1  0  0  0  0
 14 15  1  0  0  0  0
 14 16  1  0  0  0  0
 14 17  1  0  0  0  0
 17 18  1  0  0  0  0
 17 19  1  0  0  0  0
 17 20  1  0  0  0  0
 20 21  1  0  0  0  0
 20 22  1  0  0  0  0
 22 23  1  0  0  0  0
 22 24  1  0  0  0  0
 22 25  1  0  0  0  0
 20 26  1  0  0  0  0
 26 27  1  0  0  0  0
 26 28  1  0  0  0  0
 26 29  1  0  0  0  0
M  END
> <VM2 Rank>
49

> <Conf_Id>
185

> <Probability>
0.55

> <Sum Probability>
90.21

> <Delta G>
1.745

> <G>
35.447

> <E>
-2.333

> <-TS>
37.780

> <U+W>
-26.477

> <U>
25.725

> <W>
-52.202

> <W(PB)>
-54.669

> <W(SA)>
2.467

> <Valence>
4.677

> <Coulomb>
19.669

> <VdW>
1.379

> <VdW6>
-9.934

> <VdW12>
11.313

> <Bond>
0.305

> <Angle>
1.629

> <Pdih>
2.742

> <Idih>
0.000

> <Tether>
0.000

$$$$
VeraChem MOL file


 29 28  0  0  0  0  0  0  0  0999 V2000     
   18.7255   18.9692   19.5906 C   0  0  0  0  0  0  0  0  0  0  0  0
   18.6261   19.0109   18.4982 H   0  0  0  0  0  0  0  0  0  0  0  0
   18.8298   17.9141   19.8725 H   0  0  0  0  0  0  0  0  0  0  0  0
   17.7940   19.3519   20.0276 H   0  0  0  0  0  0  0  0  0  0  0  0
   19.9409   19.8029   20.0555 C   0  0  0  0  0  0  0  0  0  0  0  0
   19.8478   20.8211   19.6523 H   0  0  0  0  0  0  0  0  0  0  0  0
   20.8618   19.3850   19.6255 H   0  0  0  0  0  0  0  0  0  0  0  0
   20.0730   19.8878   21.5951 C   0  0  0  0  0  0  0  0  0  0  0  0
   20.8953   20.5749   21.8376 H   0  0  0  0  0  0  0  0  0  0  0  0
   19.1600   20.3365   22.0075 H   0  0  0  0  0  0  0  0  0  0  0  0
   20.3440   18.5160   22.2632 C   0  0  0  0  0  0  0  0  0  0  0  0
   21.1784   18.0256   21.7430 H   0  0  0  0  0  0  0  0  0  0  0  0
   19.4733   17.8583   22.1405 H   0  0  0  0  0  0  0  0  0  0  0  0
   20.6977   18.6174   23.7676 C   0  0  0  0  0  0  0  0  0  0  0  0
   21.0034   17.6200   24.1084 H   0  0  0  0  0  0  0  0  0  0  0  0
   21.5717   19.2706   23.8969 H   0  0  0  0  0  0  0  0  0  0  0  0
   19.5260   19.1308   24.6446 C   0  0  0  0  0  0  0  0  0  0  0  0
   18.6565   18.4710   24.5248 H   0  0  0  0  0  0  0  0  0  0  0  0
   19.2184   20.1204   24.2858 H   0  0  0  0  0  0  0  0  0  0  0  0
   19.8799   19.2572   26.1444 C   0  0  2  0  0  0  0  0  0  0  0  0
   20.7832   19.8685   26.2337 H   0  0  0  0  0  0  0  0  0  0  0  0
   20.1492   17.8895   26.7975 C   0  0  0  0  0  0  0  0  0  0  0  0
   21.0334   17.4069   26.3658 H   0  0  0  0  0  0  0  0  0  0  0  0
   20.3371   18.0052   27.8721 H   0  0  0  0  0  0  0  0  0  0  0  0
   19.2930   17.2148   26.6731 H   0  0  0  0  0  0  0  0  0  0  0  0
   18.7999   19.9853   26.8956 N   0  3  0  0  0  0  0  0  0  0  0  0
   17.9130   19.4753   26.8632 H   0  0  0  0  0  0  0  0  0  0  0  0
   18.6333   20.9181   26.5071 H   0  0  0  0  0  0  0  0  0  0  0  0
   19.0471   20.1060   27.8820 H   0  0  0  0  0  0  0  0  0  0  0  0
  1  2  1  0  0  0  0
  1  3  1  0  0  0  0
  1  4  1  0  0  0  0
  1  5  1  0  0  0  0
  5  6  1  0  0  0  0
  5  7  1  0  0  0  0
  5  8  1  0  0  0  0
  8  9  1  0  0  0  0
  8 10  1  0  0  0  0
  8 11  1  0  0  0  0
 11 12  1  0  0  0  0
 11 13  1  0  0  0  0
 11 14  1  0  0  0  0
 14 15  1  0  0  0  0
 14 16  1  0  0  0  0
 14 17  1  0  0  0  0
 17 18  1  0  0  0  0
 17 19  1  0  0  0  0
 17 20  1  0  0  0  0
 20 21  1  0  0  0  0
 20 22  1  0  0  0  0
 22 23  1  0  0  0  0
 22 24  1  0  0  0  0
 22 25  1  0  0  0  0
 20 26  1  0  0  0  0
 26 27  1  0  0  0  0
 26 28  1  0  0  0  0
 26 29  1  0  0  0  0
M  END
> <VM2 Rank>
50

> <Conf_Id>
1550

> <Probability>
0.53

> <Sum Probability>
90.75

> <Delta G>
1.767

> <G>
35.470

> <E>
-2.100

> <-TS>
37.570

> <U+W>
-26.245

> <U>
25.974

> <W>
-52.219

> <W(PB)>
-54.709

> <W(SA)>
2.490

> <Valence>
4.812

> <Coulomb>
19.700

> <VdW>
1.463

> <VdW6>
-9.391

> <VdW12>
10.853

> <Bond>
0.285

> <Angle>
1.671

> <Pdih>
2.855

> <Idih>
0.000

> <Tether>
0.000

$$$$
VeraChem MOL file


 29 28  0  0  0  0  0  0  0  0999 V2000     
   20.1404   19.1627   19.2041 C   0  0  0  0  0  0  0  0  0  0  0  0
   20.9551   19.8514   19.4593 H   0  0  0  0  0  0  0  0  0  0  0  0
   20.5424   18.1412   19.1960 H   0  0  0  0  0  0  0  0  0  0  0  0
   19.8140   19.4028   18.1839 H   0  0  0  0  0  0  0  0  0  0  0  0
   18.9588   19.2873   20.1926 C   0  0  0  0  0  0  0  0  0  0  0  0
   18.1237   18.6765   19.8220 H   0  0  0  0  0  0  0  0  0  0  0  0
   18.5972   20.3249   20.2085 H   0  0  0  0  0  0  0  0  0  0  0  0
   19.3054   18.8313   21.6306 C   0  0  0  0  0  0  0  0  0  0  0  0
   18.3778   18.8271   22.2173 H   0  0  0  0  0  0  0  0  0  0  0  0
   19.6642   17.7931   21.6095 H   0  0  0  0  0  0  0  0  0  0  0  0
   20.3550   19.7339   22.3276 C   0  0  0  0  0  0  0  0  0  0  0  0
   19.9954   20.7717   22.3498 H   0  0  0  0  0  0  0  0  0  0  0  0
   21.2806   19.7403   21.7379 H   0  0  0  0  0  0  0  0  0  0  0  0
   20.7067   19.2748   23.7643 C   0  0  0  0  0  0  0  0  0  0  0  0
   21.0793   18.2426   23.7292 H   0  0  0  0  0  0  0  0  0  0  0  0
   21.5370   19.8929   24.1330 H   0  0  0  0  0  0  0  0  0  0  0  0
   19.5201   19.3831   24.7565 C   0  0  0  0  0  0  0  0  0  0  0  0
   18.7359   18.6642   24.4878 H   0  0  0  0  0  0  0  0  0  0  0  0
   19.0753   20.3825   24.6632 H   0  0  0  0  0  0  0  0  0  0  0  0
   19.9266   19.1637   26.2314 C   0  0  2  0  0  0  0  0  0  0  0  0
   20.7322   19.8639   26.4732 H   0  0  0  0  0  0  0  0  0  0  0  0
   20.4326   17.7324   26.4853 C   0  0  0  0  0  0  0  0  0  0  0  0
   19.6778   16.9885   26.2013 H   0  0  0  0  0  0  0  0  0  0  0  0
   21.3481   17.5270   25.9186 H   0  0  0  0  0  0  0  0  0  0  0  0
   20.6691   17.5888   27.5468 H   0  0  0  0  0  0  0  0  0  0  0  0
   18.7905   19.4870   27.1615 N   0  3  0  0  0  0  0  0  0  0  0  0
   19.0680   19.3811   28.1416 H   0  0  0  0  0  0  0  0  0  0  0  0
   17.9896   18.8698   27.0024 H   0  0  0  0  0  0  0  0  0  0  0  0
   18.4658   20.4506   27.0395 H   0  0  0  0  0  0  0  0  0  0  0  0
  1  2  1  0  0  0  0
  1  3  1  0  0  0  0
  1  4  1  0  0  0  0
  1  5  1  0  0  0  0
  5  6  1  0  0  0  0
  5  7  1  0  0  0  0
  5  8  1  0  0  0  0
  8  9  1  0  0  0  0
  8 10  1  0  0  0  0
  8 11  1  0  0  0  0
 11 12  1  0  0  0  0
 11 13  1  0  0  0  0
 11 14  1  0  0  0  0
 14 15  1  0  0  0  0
 14 16  1  0  0  0  0
 14 17  1  0  0  0  0
 17 18  1  0  0  0  0
 17 19  1  0  0  0  0
 17 20  1  0  0  0  0
 20 21  1  0  0  0  0
 20 22  1  0  0  0  0
 22 23  1  0  0  0  0
 22 24  1  0  0  0  0
 22 25  1  0  0  0  0
 20 26  1  0  0  0  0
 26 27  1  0  0  0  0
 26 28  1  0  0  0  0
 26 29  1  0  0  0  0
M  END
> <VM2 Rank>
51

> <Conf_Id>
1262

> <Probability>
0.51

> <Sum Probability>
91.26

> <Delta G>
1.792

> <G>
35.494

> <E>
-2.104

> <-TS>
37.598

> <U+W>
-26.248

> <U>
25.821

> <W>
-52.069

> <W(PB)>
-54.583

> <W(SA)>
2.514

> <Valence>
4.779

> <Coulomb>
19.614

> <VdW>
1.428

> <VdW6>
-9.390

> <VdW12>
10.817

> <Bond>
0.283

> <Angle>
1.640

> <Pdih>
2.857

> <Idih>
0.000

> <Tether>
0.000

$$$$
VeraChem MOL file


 29 28  0  0  0  0  0  0  0  0999 V2000     
   20.1732   19.3115   19.1801 C   0  0  0  0  0  0  0  0  0  0  0  0
   20.8267   20.1928   19.2163 H   0  0  0  0  0  0  0  0  0  0  0  0
   20.7769   18.4253   19.4110 H   0  0  0  0  0  0  0  0  0  0  0  0
   19.8119   19.2039   18.1492 H   0  0  0  0  0  0  0  0  0  0  0  0
   18.9841   19.4608   20.1563 C   0  0  0  0  0  0  0  0  0  0  0  0
   18.3656   18.5528   20.1281 H   0  0  0  0  0  0  0  0  0  0  0  0
   18.3419   20.2808   19.8058 H   0  0  0  0  0  0  0  0  0  0  0  0
   19.4136   19.7571   21.6137 C   0  0  0  0  0  0  0  0  0  0  0  0
   20.0309   20.6656   21.6359 H   0  0  0  0  0  0  0  0  0  0  0  0
   18.5090   19.9826   22.1922 H   0  0  0  0  0  0  0  0  0  0  0  0
   20.1805   18.5864   22.2803 C   0  0  0  0  0  0  0  0  0  0  0  0
   21.0787   18.3601   21.6915 H   0  0  0  0  0  0  0  0  0  0  0  0
   19.5625   17.6782   22.2622 H   0  0  0  0  0  0  0  0  0  0  0  0
   20.6275   18.8820   23.7337 C   0  0  0  0  0  0  0  0  0  0  0  0
   21.3053   18.0769   24.0448 H   0  0  0  0  0  0  0  0  0  0  0  0
   21.2170   19.8089   23.7560 H   0  0  0  0  0  0  0  0  0  0  0  0
   19.4501   18.9839   24.7385 C   0  0  0  0  0  0  0  0  0  0  0  0
   18.8693   18.0521   24.7245 H   0  0  0  0  0  0  0  0  0  0  0  0
   18.7697   19.7801   24.4143 H   0  0  0  0  0  0  0  0  0  0  0  0
   19.8928   19.2982   26.1862 C   0  0  2  0  0  0  0  0  0  0  0  0
   20.5197   20.1950   26.1665 H   0  0  0  0  0  0  0  0  0  0  0  0
   20.7042   18.1488   26.8111 C   0  0  0  0  0  0  0  0  0  0  0  0
   20.1404   17.2079   26.7902 H   0  0  0  0  0  0  0  0  0  0  0  0
   21.6517   17.9942   26.2826 H   0  0  0  0  0  0  0  0  0  0  0  0
   20.9505   18.3740   27.8561 H   0  0  0  0  0  0  0  0  0  0  0  0
   18.7100   19.6274   27.0541 N   0  3  0  0  0  0  0  0  0  0  0  0
   19.0009   19.8745   28.0044 H   0  0  0  0  0  0  0  0  0  0  0  0
   18.0679   18.8337   27.1280 H   0  0  0  0  0  0  0  0  0  0  0  0
   18.1785   20.4202   26.6827 H   0  0  0  0  0  0  0  0  0  0  0  0
  1  2  1  0  0  0  0
  1  3  1  0  0  0  0
  1  4  1  0  0  0  0
  1  5  1  0  0  0  0
  5  6  1  0  0  0  0
  5  7  1  0  0  0  0
  5  8  1  0  0  0  0
  8  9  1  0  0  0  0
  8 10  1  0  0  0  0
  8 11  1  0  0  0  0
 11 12  1  0  0  0  0
 11 13  1  0  0  0  0
 11 14  1  0  0  0  0
 14 15  1  0  0  0  0
 14 16  1  0  0  0  0
 14 17  1  0  0  0  0
 17 18  1  0  0  0  0
 17 19  1  0  0  0  0
 17 20  1  0  0  0  0
 20 21  1  0  0  0  0
 20 22  1  0  0  0  0
 22 23  1  0  0  0  0
 22 24  1  0  0  0  0
 22 25  1  0  0  0  0
 20 26  1  0  0  0  0
 26 27  1  0  0  0  0
 26 28  1  0  0  0  0
 26 29  1  0  0  0  0
M  END
> <VM2 Rank>
52

> <Conf_Id>
234

> <Probability>
0.47

> <Sum Probability>
91.73

> <Delta G>
1.840

> <G>
35.542

> <E>
-1.910

> <-TS>
37.452

> <U+W>
-26.055

> <U>
26.144

> <W>
-52.199

> <W(PB)>
-54.705

> <W(SA)>
2.506

> <Valence>
4.933

> <Coulomb>
19.671

> <VdW>
1.541

> <VdW6>
-9.288

> <VdW12>
10.829

> <Bond>
0.296

> <Angle>
1.772

> <Pdih>
2.865

> <Idih>
0.000

> <Tether>
0.000

$$$$
VeraChem MOL file


 29 28  0  0  0  0  0  0  0  0999 V2000     
   19.3277   20.6261   19.8685 C   0  0  0  0  0  0  0  0  0  0  0  0
   18.3690   20.9742   20.2747 H   0  0  0  0  0  0  0  0  0  0  0  0
   19.9054   21.5085   19.5642 H   0  0  0  0  0  0  0  0  0  0  0  0
   19.1224   20.0312   18.9690 H   0  0  0  0  0  0  0  0  0  0  0  0
   20.1054   19.8001   20.9148 C   0  0  0  0  0  0  0  0  0  0  0  0
   20.3261   20.4391   21.7802 H   0  0  0  0  0  0  0  0  0  0  0  0
   21.0712   19.4910   20.4912 H   0  0  0  0  0  0  0  0  0  0  0  0
   19.3087   18.5525   21.3630 C   0  0  0  0  0  0  0  0  0  0  0  0
   18.3617   18.8620   21.8242 H   0  0  0  0  0  0  0  0  0  0  0  0
   19.0318   17.9686   20.4744 H   0  0  0  0  0  0  0  0  0  0  0  0
   20.0937   17.6260   22.3276 C   0  0  0  0  0  0  0  0  0  0  0  0
   20.9635   17.2174   21.7949 H   0  0  0  0  0  0  0  0  0  0  0  0
   19.4629   16.7618   22.5774 H   0  0  0  0  0  0  0  0  0  0  0  0
   20.5844   18.2867   23.6424 C   0  0  0  0  0  0  0  0  0  0  0  0
   21.1382   17.5273   24.2089 H   0  0  0  0  0  0  0  0  0  0  0  0
   21.3073   19.0815   23.4161 H   0  0  0  0  0  0  0  0  0  0  0  0
   19.4371   18.8547   24.5176 C   0  0  0  0  0  0  0  0  0  0  0  0
   18.7221   18.0562   24.7560 H   0  0  0  0  0  0  0  0  0  0  0  0
   18.8858   19.6053   23.9382 H   0  0  0  0  0  0  0  0  0  0  0  0
   19.9233   19.5255   25.8229 C   0  0  2  0  0  0  0  0  0  0  0  0
   20.6790   20.2733   25.5639 H   0  0  0  0  0  0  0  0  0  0  0  0
   20.5511   18.5145   26.7995 C   0  0  0  0  0  0  0  0  0  0  0  0
   19.8505   17.7041   27.0364 H   0  0  0  0  0  0  0  0  0  0  0  0
   21.4632   18.0708   26.3847 H   0  0  0  0  0  0  0  0  0  0  0  0
   20.8303   19.0076   27.7388 H   0  0  0  0  0  0  0  0  0  0  0  0
   18.8047   20.2700   26.4977 N   0  3  0  0  0  0  0  0  0  0  0  0
   18.3994   20.9810   25.8821 H   0  0  0  0  0  0  0  0  0  0  0  0
   19.1304   20.7485   27.3425 H   0  0  0  0  0  0  0  0  0  0  0  0
   18.0498   19.6376   26.7767 H   0  0  0  0  0  0  0  0  0  0  0  0
  1  2  1  0  0  0  0
  1  3  1  0  0  0  0
  1  4  1  0  0  0  0
  1  5  1  0  0  0  0
  5  6  1  0  0  0  0
  5  7  1  0  0  0  0
  5  8  1  0  0  0  0
  8  9  1  0  0  0  0
  8 10  1  0  0  0  0
  8 11  1  0  0  0  0
 11 12  1  0  0  0  0
 11 13  1  0  0  0  0
 11 14  1  0  0  0  0
 14 15  1  0  0  0  0
 14 16  1  0  0  0  0
 14 17  1  0  0  0  0
 17 18  1  0  0  0  0
 17 19  1  0  0  0  0
 17 20  1  0  0  0  0
 20 21  1  0  0  0  0
 20 22  1  0  0  0  0
 22 23  1  0  0  0  0
 22 24  1  0  0  0  0
 22 25  1  0  0  0  0
 20 26  1  0  0  0  0
 26 27  1  0  0  0  0
 26 28  1  0  0  0  0
 26 29  1  0  0  0  0
M  END
> <VM2 Rank>
53

> <Conf_Id>
307

> <Probability>
0.47

> <Sum Probability>
92.20

> <Delta G>
1.842

> <G>
35.544

> <E>
-2.258

> <-TS>
37.802

> <U+W>
-26.402

> <U>
26.111

> <W>
-52.514

> <W(PB)>
-54.998

> <W(SA)>
2.485

> <Valence>
4.789

> <Coulomb>
20.049

> <VdW>
1.273

> <VdW6>
-9.803

> <VdW12>
11.077

> <Bond>
0.295

> <Angle>
1.940

> <Pdih>
2.553

> <Idih>
0.000

> <Tether>
0.000

$$$$
VeraChem MOL file


 29 28  0  0  0  0  0  0  0  0999 V2000     
   19.0037   20.4706   20.3786 C   0  0  0  0  0  0  0  0  0  0  0  0
   19.2368   21.0305   21.2929 H   0  0  0  0  0  0  0  0  0  0  0  0
   19.7739   20.6975   19.6300 H   0  0  0  0  0  0  0  0  0  0  0  0
   18.0443   20.8438   19.9979 H   0  0  0  0  0  0  0  0  0  0  0  0
   18.9244   18.9514   20.6502 C   0  0  0  0  0  0  0  0  0  0  0  0
   18.5744   18.4471   19.7387 H   0  0  0  0  0  0  0  0  0  0  0  0
   18.1625   18.7508   21.4151 H   0  0  0  0  0  0  0  0  0  0  0  0
   20.2807   18.3282   21.0681 C   0  0  0  0  0  0  0  0  0  0  0  0
   20.1432   17.2481   21.2149 H   0  0  0  0  0  0  0  0  0  0  0  0
   20.9895   18.4303   20.2349 H   0  0  0  0  0  0  0  0  0  0  0  0
   20.9235   18.9322   22.3434 C   0  0  0  0  0  0  0  0  0  0  0  0
   21.1736   19.9876   22.1720 H   0  0  0  0  0  0  0  0  0  0  0  0
   21.8792   18.4208   22.5231 H   0  0  0  0  0  0  0  0  0  0  0  0
   20.0368   18.8015   23.6048 C   0  0  0  0  0  0  0  0  0  0  0  0
   19.1097   19.3699   23.4611 H   0  0  0  0  0  0  0  0  0  0  0  0
   19.7533   17.7489   23.7346 H   0  0  0  0  0  0  0  0  0  0  0  0
   20.7698   19.3145   24.8716 C   0  0  0  0  0  0  0  0  0  0  0  0
   21.0973   20.3490   24.7041 H   0  0  0  0  0  0  0  0  0  0  0  0
   21.6858   18.7285   25.0233 H   0  0  0  0  0  0  0  0  0  0  0  0
   19.9321   19.2716   26.1714 C   0  0  2  0  0  0  0  0  0  0  0  0
   20.5546   19.6812   26.9729 H   0  0  0  0  0  0  0  0  0  0  0  0
   19.5506   17.8345   26.5669 C   0  0  0  0  0  0  0  0  0  0  0  0
   18.8451   17.3912   25.8541 H   0  0  0  0  0  0  0  0  0  0  0  0
   20.4400   17.1941   26.6145 H   0  0  0  0  0  0  0  0  0  0  0  0
   19.0784   17.8219   27.5569 H   0  0  0  0  0  0  0  0  0  0  0  0
   18.7145   20.1514   26.0990 N   0  3  0  0  0  0  0  0  0  0  0  0
   18.9640   21.1201   25.8797 H   0  0  0  0  0  0  0  0  0  0  0  0
   18.2060   20.1598   26.9879 H   0  0  0  0  0  0  0  0  0  0  0  0
   18.0658   19.8284   25.3770 H   0  0  0  0  0  0  0  0  0  0  0  0
  1  2  1  0  0  0  0
  1  3  1  0  0  0  0
  1  4  1  0  0  0  0
  1  5  1  0  0  0  0
  5  6  1  0  0  0  0
  5  7  1  0  0  0  0
  5  8  1  0  0  0  0
  8  9  1  0  0  0  0
  8 10  1  0  0  0  0
  8 11  1  0  0  0  0
 11 12  1  0  0  0  0
 11 13  1  0  0  0  0
 11 14  1  0  0  0  0
 14 15  1  0  0  0  0
 14 16  1  0  0  0  0
 14 17  1  0  0  0  0
 17 18  1  0  0  0  0
 17 19  1  0  0  0  0
 17 20  1  0  0  0  0
 20 21  1  0  0  0  0
 20 22  1  0  0  0  0
 22 23  1  0  0  0  0
 22 24  1  0  0  0  0
 22 25  1  0  0  0  0
 20 26  1  0  0  0  0
 26 27  1  0  0  0  0
 26 28  1  0  0  0  0
 26 29  1  0  0  0  0
M  END
> <VM2 Rank>
54

> <Conf_Id>
169

> <Probability>
0.46

> <Sum Probability>
92.66

> <Delta G>
1.851

> <G>
35.553

> <E>
-2.418

> <-TS>
37.971

> <U+W>
-26.563

> <U>
25.998

> <W>
-52.561

> <W(PB)>
-55.000

> <W(SA)>
2.440

> <Valence>
4.627

> <Coulomb>
20.145

> <VdW>
1.225

> <VdW6>
-10.242

> <VdW12>
11.467

> <Bond>
0.303

> <Angle>
1.847

> <Pdih>
2.477

> <Idih>
0.000

> <Tether>
0.000

$$$$
VeraChem MOL file


 29 28  0  0  0  0  0  0  0  0999 V2000     
   20.8962   19.0188   19.7981 C   0  0  0  0  0  0  0  0  0  0  0  0
   21.8563   18.8245   20.2937 H   0  0  0  0  0  0  0  0  0  0  0  0
   20.7690   18.2713   19.0044 H   0  0  0  0  0  0  0  0  0  0  0  0
   20.9497   20.0076   19.3242 H   0  0  0  0  0  0  0  0  0  0  0  0
   19.7287   18.9484   20.8049 C   0  0  0  0  0  0  0  0  0  0  0  0
   19.6827   17.9359   21.2273 H   0  0  0  0  0  0  0  0  0  0  0  0
   18.7801   19.1165   20.2761 H   0  0  0  0  0  0  0  0  0  0  0  0
   19.8876   19.9917   21.9355 C   0  0  0  0  0  0  0  0  0  0  0  0
   20.8200   19.8052   22.4844 H   0  0  0  0  0  0  0  0  0  0  0  0
   19.9962   20.9889   21.4871 H   0  0  0  0  0  0  0  0  0  0  0  0
   18.6891   20.0269   22.9185 C   0  0  0  0  0  0  0  0  0  0  0  0
   17.7841   20.3124   22.3647 H   0  0  0  0  0  0  0  0  0  0  0  0
   18.8541   20.8314   23.6474 H   0  0  0  0  0  0  0  0  0  0  0  0
   18.4115   18.6975   23.6710 C   0  0  0  0  0  0  0  0  0  0  0  0
   17.5634   18.8481   24.3521 H   0  0  0  0  0  0  0  0  0  0  0  0
   18.0749   17.9358   22.9552 H   0  0  0  0  0  0  0  0  0  0  0  0
   19.6188   18.1374   24.4692 C   0  0  0  0  0  0  0  0  0  0  0  0
   20.4012   17.8249   23.7657 H   0  0  0  0  0  0  0  0  0  0  0  0
   19.3069   17.2258   24.9959 H   0  0  0  0  0  0  0  0  0  0  0  0
   20.2190   19.1348   25.4844 C   0  0  2  0  0  0  0  0  0  0  0  0
   20.5208   20.0365   24.9432 H   0  0  0  0  0  0  0  0  0  0  0  0
   21.4667   18.5349   26.1512 C   0  0  0  0  0  0  0  0  0  0  0  0
   22.2236   18.2767   25.4001 H   0  0  0  0  0  0  0  0  0  0  0  0
   21.9189   19.2533   26.8461 H   0  0  0  0  0  0  0  0  0  0  0  0
   21.2185   17.6256   26.7129 H   0  0  0  0  0  0  0  0  0  0  0  0
   19.2185   19.5657   26.5212 N   0  3  0  0  0  0  0  0  0  0  0  0
   18.3969   19.9954   26.0874 H   0  0  0  0  0  0  0  0  0  0  0  0
   19.6198   20.2504   27.1682 H   0  0  0  0  0  0  0  0  0  0  0  0
   18.8933   18.7707   27.0778 H   0  0  0  0  0  0  0  0  0  0  0  0
  1  2  1  0  0  0  0
  1  3  1  0  0  0  0
  1  4  1  0  0  0  0
  1  5  1  0  0  0  0
  5  6  1  0  0  0  0
  5  7  1  0  0  0  0
  5  8  1  0  0  0  0
  8  9  1  0  0  0  0
  8 10  1  0  0  0  0
  8 11  1  0  0  0  0
 11 12  1  0  0  0  0
 11 13  1  0  0  0  0
 11 14  1  0  0  0  0
 14 15  1  0  0  0  0
 14 16  1  0  0  0  0
 14 17  1  0  0  0  0
 17 18  1  0  0  0  0
 17 19  1  0  0  0  0
 17 20  1  0  0  0  0
 20 21  1  0  0  0  0
 20 22  1  0  0  0  0
 22 23  1  0  0  0  0
 22 24  1  0  0  0  0
 22 25  1  0  0  0  0
 20 26  1  0  0  0  0
 26 27  1  0  0  0  0
 26 28  1  0  0  0  0
 26 29  1  0  0  0  0
M  END
> <VM2 Rank>
55

> <Conf_Id>
1244

> <Probability>
0.44

> <Sum Probability>
93.10

> <Delta G>
1.884

> <G>
35.587

> <E>
-2.611

> <-TS>
38.197

> <U+W>
-26.755

> <U>
25.507

> <W>
-52.262

> <W(PB)>
-54.690

> <W(SA)>
2.428

> <Valence>
4.386

> <Coulomb>
20.418

> <VdW>
0.702

> <VdW6>
-10.964

> <VdW12>
11.666

> <Bond>
0.307

> <Angle>
1.748

> <Pdih>
2.332

> <Idih>
0.000

> <Tether>
0.000

$$$$
VeraChem MOL file


 29 28  0  0  0  0  0  0  0  0999 V2000     
   20.6063   19.2825   19.5164 C   0  0  0  0  0  0  0  0  0  0  0  0
   20.5632   19.3206   18.4203 H   0  0  0  0  0  0  0  0  0  0  0  0
   21.3970   19.9690   19.8458 H   0  0  0  0  0  0  0  0  0  0  0  0
   20.8956   18.2629   19.8001 H   0  0  0  0  0  0  0  0  0  0  0  0
   19.2411   19.6745   20.1254 C   0  0  0  0  0  0  0  0  0  0  0  0
   18.4728   18.9584   19.8020 H   0  0  0  0  0  0  0  0  0  0  0  0
   18.9401   20.6514   19.7221 H   0  0  0  0  0  0  0  0  0  0  0  0
   19.2608   19.7592   21.6706 C   0  0  0  0  0  0  0  0  0  0  0  0
   20.0099   20.5003   21.9784 H   0  0  0  0  0  0  0  0  0  0  0  0
   18.2879   20.1386   22.0120 H   0  0  0  0  0  0  0  0  0  0  0  0
   19.5433   18.3980   22.3553 C   0  0  0  0  0  0  0  0  0  0  0  0
   20.5637   18.0647   22.1247 H   0  0  0  0  0  0  0  0  0  0  0  0
   18.8675   17.6404   21.9353 H   0  0  0  0  0  0  0  0  0  0  0  0
   19.3522   18.4273   23.8917 C   0  0  0  0  0  0  0  0  0  0  0  0
   18.3259   18.7425   24.1219 H   0  0  0  0  0  0  0  0  0  0  0  0
   19.4521   17.3996   24.2636 H   0  0  0  0  0  0  0  0  0  0  0  0
   20.3708   19.3463   24.6201 C   0  0  0  0  0  0  0  0  0  0  0  0
   20.2508   20.3786   24.2697 H   0  0  0  0  0  0  0  0  0  0  0  0
   21.3911   19.0489   24.3440 H   0  0  0  0  0  0  0  0  0  0  0  0
   20.2542   19.3522   26.1628 C   0  0  2  0  0  0  0  0  0  0  0  0
   20.9838   20.0753   26.5403 H   0  0  0  0  0  0  0  0  0  0  0  0
   20.5980   17.9840   26.7772 C   0  0  0  0  0  0  0  0  0  0  0  0
   20.6462   18.0567   27.8706 H   0  0  0  0  0  0  0  0  0  0  0  0
   19.8479   17.2250   26.5258 H   0  0  0  0  0  0  0  0  0  0  0  0
   21.5755   17.6324   26.4242 H   0  0  0  0  0  0  0  0  0  0  0  0
   18.9093   19.8321   26.6344 N   0  3  0  0  0  0  0  0  0  0  0  0
   18.8693   19.8885   27.6561 H   0  0  0  0  0  0  0  0  0  0  0  0
   18.1636   19.2003   26.3320 H   0  0  0  0  0  0  0  0  0  0  0  0
   18.6931   20.7633   26.2672 H   0  0  0  0  0  0  0  0  0  0  0  0
  1  2  1  0  0  0  0
  1  3  1  0  0  0  0
  1  4  1  0  0  0  0
  1  5  1  0  0  0  0
  5  6  1  0  0  0  0
  5  7  1  0  0  0  0
  5  8  1  0  0  0  0
  8  9  1  0  0  0  0
  8 10  1  0  0  0  0
  8 11  1  0  0  0  0
 11 12  1  0  0  0  0
 11 13  1  0  0  0  0
 11 14  1  0  0  0  0
 14 15  1  0  0  0  0
 14 16  1  0  0  0  0
 14 17  1  0  0  0  0
 17 18  1  0  0  0  0
 17 19  1  0  0  0  0
 17 20  1  0  0  0  0
 20 21  1  0  0  0  0
 20 22  1  0  0  0  0
 22 23  1  0  0  0  0
 22 24  1  0  0  0  0
 22 25  1  0  0  0  0
 20 26  1  0  0  0  0
 26 27  1  0  0  0  0
 26 28  1  0  0  0  0
 26 29  1  0  0  0  0
M  END
> <VM2 Rank>
56

> <Conf_Id>
1016

> <Probability>
0.43

> <Sum Probability>
93.54

> <Delta G>
1.890

> <G>
35.592

> <E>
-2.142

> <-TS>
37.734

> <U+W>
-26.287

> <U>
25.995

> <W>
-52.282

> <W(PB)>
-54.748

> <W(SA)>
2.466

> <Valence>
4.756

> <Coulomb>
19.829

> <VdW>
1.410

> <VdW6>
-9.885

> <VdW12>
11.295

> <Bond>
0.310

> <Angle>
1.687

> <Pdih>
2.759

> <Idih>
0.000

> <Tether>
0.000

$$$$
VeraChem MOL file


 29 28  0  0  0  0  0  0  0  0999 V2000     
   20.1787   20.3228   20.0797 C   0  0  0  0  0  0  0  0  0  0  0  0
   19.5754   20.0029   19.2203 H   0  0  0  0  0  0  0  0  0  0  0  0
   19.5733   21.0047   20.6897 H   0  0  0  0  0  0  0  0  0  0  0  0
   21.0347   20.8929   19.6962 H   0  0  0  0  0  0  0  0  0  0  0  0
   20.6623   19.1067   20.9013 C   0  0  0  0  0  0  0  0  0  0  0  0
   21.2531   19.4510   21.7606 H   0  0  0  0  0  0  0  0  0  0  0  0
   21.3489   18.5122   20.2826 H   0  0  0  0  0  0  0  0  0  0  0  0
   19.5075   18.1899   21.3781 C   0  0  0  0  0  0  0  0  0  0  0  0
   18.9962   17.7783   20.4971 H   0  0  0  0  0  0  0  0  0  0  0  0
   19.9323   17.3232   21.9013 H   0  0  0  0  0  0  0  0  0  0  0  0
   18.4510   18.8756   22.2861 C   0  0  0  0  0  0  0  0  0  0  0  0
   17.7057   18.1258   22.5848 H   0  0  0  0  0  0  0  0  0  0  0  0
   17.8988   19.6205   21.6978 H   0  0  0  0  0  0  0  0  0  0  0  0
   19.0116   19.5602   23.5595 C   0  0  0  0  0  0  0  0  0  0  0  0
   19.6861   20.3796   23.2775 H   0  0  0  0  0  0  0  0  0  0  0  0
   18.1710   20.0283   24.0880 H   0  0  0  0  0  0  0  0  0  0  0  0
   19.7448   18.5833   24.5141 C   0  0  0  0  0  0  0  0  0  0  0  0
   20.5938   18.1312   23.9865 H   0  0  0  0  0  0  0  0  0  0  0  0
   19.0725   17.7608   24.7922 H   0  0  0  0  0  0  0  0  0  0  0  0
   20.2767   19.2736   25.7888 C   0  0  2  0  0  0  0  0  0  0  0  0
   20.9130   20.1107   25.4854 H   0  0  0  0  0  0  0  0  0  0  0  0
   21.1283   18.2934   26.6112 C   0  0  0  0  0  0  0  0  0  0  0  0
   20.5343   17.4319   26.9414 H   0  0  0  0  0  0  0  0  0  0  0  0
   21.9732   17.9192   26.0195 H   0  0  0  0  0  0  0  0  0  0  0  0
   21.5384   18.7871   27.5008 H   0  0  0  0  0  0  0  0  0  0  0  0
   19.1750   19.8505   26.6352 N   0  3  0  0  0  0  0  0  0  0  0  0
   18.6259   20.5401   26.1150 H   0  0  0  0  0  0  0  0  0  0  0  0
   19.5478   20.3191   27.4659 H   0  0  0  0  0  0  0  0  0  0  0  0
   18.5316   19.1223   26.9565 H   0  0  0  0  0  0  0  0  0  0  0  0
  1  2  1  0  0  0  0
  1  3  1  0  0  0  0
  1  4  1  0  0  0  0
  1  5  1  0  0  0  0
  5  6  1  0  0  0  0
  5  7  1  0  0  0  0
  5  8  1  0  0  0  0
  8  9  1  0  0  0  0
  8 10  1  0  0  0  0
  8 11  1  0  0  0  0
 11 12  1  0  0  0  0
 11 13  1  0  0  0  0
 11 14  1  0  0  0  0
 14 15  1  0  0  0  0
 14 16  1  0  0  0  0
 14 17  1  0  0  0  0
 17 18  1  0  0  0  0
 17 19  1  0  0  0  0
 17 20  1  0  0  0  0
 20 21  1  0  0  0  0
 20 22  1  0  0  0  0
 22 23  1  0  0  0  0
 22 24  1  0  0  0  0
 22 25  1  0  0  0  0
 20 26  1  0  0  0  0
 26 27  1  0  0  0  0
 26 28  1  0  0  0  0
 26 29  1  0  0  0  0
M  END
> <VM2 Rank>
57

> <Conf_Id>
455

> <Probability>
0.43

> <Sum Probability>
93.96

> <Delta G>
1.899

> <G>
35.601

> <E>
-2.555

> <-TS>
38.156

> <U+W>
-26.699

> <U>
25.696

> <W>
-52.395

> <W(PB)>
-54.863

> <W(SA)>
2.468

> <Valence>
4.599

> <Coulomb>
20.006

> <VdW>
1.091

> <VdW6>
-10.568

> <VdW12>
11.659

> <Bond>
0.319

> <Angle>
1.895

> <Pdih>
2.384

> <Idih>
0.000

> <Tether>
0.000

$$$$
VeraChem MOL file


 29 28  0  0  0  0  0  0  0  0999 V2000     
   19.6875   19.9153   19.6069 C   0  0  0  0  0  0  0  0  0  0  0  0
   18.8685   20.5446   19.9764 H   0  0  0  0  0  0  0  0  0  0  0  0
   20.1801   20.4613   18.7920 H   0  0  0  0  0  0  0  0  0  0  0  0
   19.2546   18.9996   19.1837 H   0  0  0  0  0  0  0  0  0  0  0  0
   20.7011   19.5852   20.7260 C   0  0  0  0  0  0  0  0  0  0  0  0
   21.0933   20.5169   21.1570 H   0  0  0  0  0  0  0  0  0  0  0  0
   21.5616   19.0669   20.2802 H   0  0  0  0  0  0  0  0  0  0  0  0
   20.1146   18.6950   21.8482 C   0  0  0  0  0  0  0  0  0  0  0  0
   19.7276   17.7633   21.4133 H   0  0  0  0  0  0  0  0  0  0  0  0
   20.9368   18.4079   22.5162 H   0  0  0  0  0  0  0  0  0  0  0  0
   18.9998   19.3920   22.6686 C   0  0  0  0  0  0  0  0  0  0  0  0
   18.1794   19.6793   21.9985 H   0  0  0  0  0  0  0  0  0  0  0  0
   19.3849   20.3278   23.0945 H   0  0  0  0  0  0  0  0  0  0  0  0
   18.4064   18.4997   23.7899 C   0  0  0  0  0  0  0  0  0  0  0  0
   17.5891   19.0450   24.2807 H   0  0  0  0  0  0  0  0  0  0  0  0
   17.9394   17.6160   23.3336 H   0  0  0  0  0  0  0  0  0  0  0  0
   19.4242   18.0275   24.8624 C   0  0  0  0  0  0  0  0  0  0  0  0
   20.1269   17.3188   24.4060 H   0  0  0  0  0  0  0  0  0  0  0  0
   18.8890   17.4608   25.6359 H   0  0  0  0  0  0  0  0  0  0  0  0
   20.2186   19.1735   25.5268 C   0  0  2  0  0  0  0  0  0  0  0  0
   20.7475   19.7245   24.7434 H   0  0  0  0  0  0  0  0  0  0  0  0
   21.2618   18.6072   26.5028 C   0  0  0  0  0  0  0  0  0  0  0  0
   20.7825   18.0455   27.3144 H   0  0  0  0  0  0  0  0  0  0  0  0
   21.9552   17.9336   25.9840 H   0  0  0  0  0  0  0  0  0  0  0  0
   21.8542   19.4151   26.9495 H   0  0  0  0  0  0  0  0  0  0  0  0
   19.3221   20.1607   26.2222 N   0  3  0  0  0  0  0  0  0  0  0  0
   19.8582   20.9320   26.6299 H   0  0  0  0  0  0  0  0  0  0  0  0
   18.7971   19.7169   26.9804 H   0  0  0  0  0  0  0  0  0  0  0  0
   18.6428   20.5660   25.5725 H   0  0  0  0  0  0  0  0  0  0  0  0
  1  2  1  0  0  0  0
  1  3  1  0  0  0  0
  1  4  1  0  0  0  0
  1  5  1  0  0  0  0
  5  6  1  0  0  0  0
  5  7  1  0  0  0  0
  5  8  1  0  0  0  0
  8  9  1  0  0  0  0
  8 10  1  0  0  0  0
  8 11  1  0  0  0  0
 11 12  1  0  0  0  0
 11 13  1  0  0  0  0
 11 14  1  0  0  0  0
 14 15  1  0  0  0  0
 14 16  1  0  0  0  0
 14 17  1  0  0  0  0
 17 18  1  0  0  0  0
 17 19  1  0  0  0  0
 17 20  1  0  0  0  0
 20 21  1  0  0  0  0
 20 22  1  0  0  0  0
 22 23  1  0  0  0  0
 22 24  1  0  0  0  0
 22 25  1  0  0  0  0
 20 26  1  0  0  0  0
 26 27  1  0  0  0  0
 26 28  1  0  0  0  0
 26 29  1  0  0  0  0
M  END
> <VM2 Rank>
58

> <Conf_Id>
785

> <Probability>
0.42

> <Sum Probability>
94.38

> <Delta G>
1.915

> <G>
35.617

> <E>
-2.321

> <-TS>
37.938

> <U+W>
-26.466

> <U>
25.816

> <W>
-52.282

> <W(PB)>
-54.728

> <W(SA)>
2.446

> <Valence>
4.503

> <Coulomb>
20.342

> <VdW>
0.971

> <VdW6>
-10.532

> <VdW12>
11.503

> <Bond>
0.307

> <Angle>
1.715

> <Pdih>
2.481

> <Idih>
0.000

> <Tether>
0.000

$$$$
VeraChem MOL file


 29 28  0  0  0  0  0  0  0  0999 V2000     
   19.1546   19.0748   19.2955 C   0  0  0  0  0  0  0  0  0  0  0  0
   19.2927   19.3797   18.2501 H   0  0  0  0  0  0  0  0  0  0  0  0
   18.9919   17.9893   19.3098 H   0  0  0  0  0  0  0  0  0  0  0  0
   18.2445   19.5644   19.6633 H   0  0  0  0  0  0  0  0  0  0  0  0
   20.3904   19.4627   20.1389 C   0  0  0  0  0  0  0  0  0  0  0  0
   20.5114   20.5550   20.1380 H   0  0  0  0  0  0  0  0  0  0  0  0
   21.2888   19.0537   19.6558 H   0  0  0  0  0  0  0  0  0  0  0  0
   20.3323   18.9433   21.5960 C   0  0  0  0  0  0  0  0  0  0  0  0
   20.2123   17.8513   21.5912 H   0  0  0  0  0  0  0  0  0  0  0  0
   21.3027   19.1469   22.0662 H   0  0  0  0  0  0  0  0  0  0  0  0
   19.2024   19.5907   22.4367 C   0  0  0  0  0  0  0  0  0  0  0  0
   18.2341   19.3924   21.9596 H   0  0  0  0  0  0  0  0  0  0  0  0
   19.3250   20.6824   22.4450 H   0  0  0  0  0  0  0  0  0  0  0  0
   19.1339   19.0643   23.8916 C   0  0  0  0  0  0  0  0  0  0  0  0
   18.2277   19.4719   24.3582 H   0  0  0  0  0  0  0  0  0  0  0  0
   19.0093   17.9735   23.8726 H   0  0  0  0  0  0  0  0  0  0  0  0
   20.3729   19.4470   24.7466 C   0  0  0  0  0  0  0  0  0  0  0  0
   20.5509   20.5270   24.6626 H   0  0  0  0  0  0  0  0  0  0  0  0
   21.2678   18.9590   24.3413 H   0  0  0  0  0  0  0  0  0  0  0  0
   20.2631   19.0839   26.2464 C   0  0  2  0  0  0  0  0  0  0  0  0
   21.1891   19.4118   26.7288 H   0  0  0  0  0  0  0  0  0  0  0  0
   20.1359   17.5663   26.4651 C   0  0  0  0  0  0  0  0  0  0  0  0
   20.1936   17.3266   27.5340 H   0  0  0  0  0  0  0  0  0  0  0  0
   19.1818   17.1809   26.0863 H   0  0  0  0  0  0  0  0  0  0  0  0
   20.9487   17.0301   25.9596 H   0  0  0  0  0  0  0  0  0  0  0  0
   19.1503   19.8230   26.9373 N   0  3  0  0  0  0  0  0  0  0  0  0
   19.2513   20.8367   26.8326 H   0  0  0  0  0  0  0  0  0  0  0  0
   19.1324   19.6191   27.9406 H   0  0  0  0  0  0  0  0  0  0  0  0
   18.2380   19.5627   26.5548 H   0  0  0  0  0  0  0  0  0  0  0  0
  1  2  1  0  0  0  0
  1  3  1  0  0  0  0
  1  4  1  0  0  0  0
  1  5  1  0  0  0  0
  5  6  1  0  0  0  0
  5  7  1  0  0  0  0
  5  8  1  0  0  0  0
  8  9  1  0  0  0  0
  8 10  1  0  0  0  0
  8 11  1  0  0  0  0
 11 12  1  0  0  0  0
 11 13  1  0  0  0  0
 11 14  1  0  0  0  0
 14 15  1  0  0  0  0
 14 16  1  0  0  0  0
 14 17  1  0  0  0  0
 17 18  1  0  0  0  0
 17 19  1  0  0  0  0
 17 20  1  0  0  0  0
 20 21  1  0  0  0  0
 20 22  1  0  0  0  0
 22 23  1  0  0  0  0
 22 24  1  0  0  0  0
 22 25  1  0  0  0  0
 20 26  1  0  0  0  0
 26 27  1  0  0  0  0
 26 28  1  0  0  0  0
 26 29  1  0  0  0  0
M  END
> <VM2 Rank>
59

> <Conf_Id>
573

> <Probability>
0.40

> <Sum Probability>
94.78

> <Delta G>
1.934

> <G>
35.637

> <E>
-2.059

> <-TS>
37.695

> <U+W>
-26.203

> <U>
25.894

> <W>
-52.097

> <W(PB)>
-54.605

> <W(SA)>
2.507

> <Valence>
4.779

> <Coulomb>
19.659

> <VdW>
1.456

> <VdW6>
-9.843

> <VdW12>
11.299

> <Bond>
0.315

> <Angle>
1.725

> <Pdih>
2.740

> <Idih>
0.000

> <Tether>
0.000

$$$$
VeraChem MOL file


 29 28  0  0  0  0  0  0  0  0999 V2000     
   18.8950   20.2136   20.2479 C   0  0  0  0  0  0  0  0  0  0  0  0
   19.4546   20.0563   19.3168 H   0  0  0  0  0  0  0  0  0  0  0  0
   17.8865   20.5547   19.9807 H   0  0  0  0  0  0  0  0  0  0  0  0
   19.3803   21.0224   20.8081 H   0  0  0  0  0  0  0  0  0  0  0  0
   18.8243   18.9127   21.0789 C   0  0  0  0  0  0  0  0  0  0  0  0
   18.2375   18.1689   20.5222 H   0  0  0  0  0  0  0  0  0  0  0  0
   18.2712   19.0970   22.0095 H   0  0  0  0  0  0  0  0  0  0  0  0
   20.2163   18.3087   21.3936 C   0  0  0  0  0  0  0  0  0  0  0  0
   20.0805   17.3633   21.9354 H   0  0  0  0  0  0  0  0  0  0  0  0
   20.7063   18.0379   20.4484 H   0  0  0  0  0  0  0  0  0  0  0  0
   21.1707   19.2319   22.1981 C   0  0  0  0  0  0  0  0  0  0  0  0
   21.4456   20.0966   21.5796 H   0  0  0  0  0  0  0  0  0  0  0  0
   22.1094   18.6913   22.3816 H   0  0  0  0  0  0  0  0  0  0  0  0
   20.6114   19.7405   23.5515 C   0  0  0  0  0  0  0  0  0  0  0  0
   21.3668   20.3890   24.0163 H   0  0  0  0  0  0  0  0  0  0  0  0
   19.7351   20.3756   23.3706 H   0  0  0  0  0  0  0  0  0  0  0  0
   20.2534   18.5984   24.5362 C   0  0  0  0  0  0  0  0  0  0  0  0
   21.1186   17.9291   24.6326 H   0  0  0  0  0  0  0  0  0  0  0  0
   19.4313   17.9943   24.1319 H   0  0  0  0  0  0  0  0  0  0  0  0
   19.8644   19.1158   25.9375 C   0  0  2  0  0  0  0  0  0  0  0  0
   20.6869   19.7301   26.3169 H   0  0  0  0  0  0  0  0  0  0  0  0
   19.6556   17.9386   26.9033 C   0  0  0  0  0  0  0  0  0  0  0  0
   18.8364   17.2904   26.5679 H   0  0  0  0  0  0  0  0  0  0  0  0
   20.5650   17.3292   26.9773 H   0  0  0  0  0  0  0  0  0  0  0  0
   19.4149   18.3006   27.9104 H   0  0  0  0  0  0  0  0  0  0  0  0
   18.6448   19.9958   25.9069 N   0  3  0  0  0  0  0  0  0  0  0  0
   17.8269   19.4874   25.5606 H   0  0  0  0  0  0  0  0  0  0  0  0
   18.7853   20.8072   25.2989 H   0  0  0  0  0  0  0  0  0  0  0  0
   18.4147   20.3482   26.8405 H   0  0  0  0  0  0  0  0  0  0  0  0
  1  2  1  0  0  0  0
  1  3  1  0  0  0  0
  1  4  1  0  0  0  0
  1  5  1  0  0  0  0
  5  6  1  0  0  0  0
  5  7  1  0  0  0  0
  5  8  1  0  0  0  0
  8  9  1  0  0  0  0
  8 10  1  0  0  0  0
  8 11  1  0  0  0  0
 11 12  1  0  0  0  0
 11 13  1  0  0  0  0
 11 14  1  0  0  0  0
 14 15  1  0  0  0  0
 14 16  1  0  0  0  0
 14 17  1  0  0  0  0
 17 18  1  0  0  0  0
 17 19  1  0  0  0  0
 17 20  1  0  0  0  0
 20 21  1  0  0  0  0
 20 22  1  0  0  0  0
 22 23  1  0  0  0  0
 22 24  1  0  0  0  0
 22 25  1  0  0  0  0
 20 26  1  0  0  0  0
 26 27  1  0  0  0  0
 26 28  1  0  0  0  0
 26 29  1  0  0  0  0
M  END
> <VM2 Rank>
60

> <Conf_Id>
1112

> <Probability>
0.38

> <Sum Probability>
95.16

> <Delta G>
1.971

> <G>
35.673

> <E>
-2.498

> <-TS>
38.171

> <U+W>
-26.643

> <U>
26.016

> <W>
-52.658

> <W(PB)>
-55.102

> <W(SA)>
2.443

> <Valence>
4.552

> <Coulomb>
20.496

> <VdW>
0.968

> <VdW6>
-10.659

> <VdW12>
11.627

> <Bond>
0.311

> <Angle>
1.812

> <Pdih>
2.428

> <Idih>
0.000

> <Tether>
0.000

$$$$
VeraChem MOL file


 29 28  0  0  0  0  0  0  0  0999 V2000     
   19.0905   19.1736   19.3073 C   0  0  0  0  0  0  0  0  0  0  0  0
   19.3461   19.1932   18.2400 H   0  0  0  0  0  0  0  0  0  0  0  0
   18.8432   18.1370   19.5671 H   0  0  0  0  0  0  0  0  0  0  0  0
   18.1920   19.7881   19.4485 H   0  0  0  0  0  0  0  0  0  0  0  0
   20.2679   19.7076   20.1544 C   0  0  0  0  0  0  0  0  0  0  0  0
   20.5592   20.6949   19.7695 H   0  0  0  0  0  0  0  0  0  0  0  0
   21.1434   19.0565   20.0237 H   0  0  0  0  0  0  0  0  0  0  0  0
   19.9353   19.8422   21.6602 C   0  0  0  0  0  0  0  0  0  0  0  0
   20.7753   20.3535   22.1469 H   0  0  0  0  0  0  0  0  0  0  0  0
   19.0602   20.4945   21.7852 H   0  0  0  0  0  0  0  0  0  0  0  0
   19.6789   18.4825   22.3588 C   0  0  0  0  0  0  0  0  0  0  0  0
   20.5552   17.8310   22.2374 H   0  0  0  0  0  0  0  0  0  0  0  0
   18.8435   17.9714   21.8632 H   0  0  0  0  0  0  0  0  0  0  0  0
   19.3323   18.6125   23.8627 C   0  0  0  0  0  0  0  0  0  0  0  0
   18.4653   19.2764   23.9771 H   0  0  0  0  0  0  0  0  0  0  0  0
   19.0157   17.6244   24.2205 H   0  0  0  0  0  0  0  0  0  0  0  0
   20.5167   19.1218   24.7293 C   0  0  0  0  0  0  0  0  0  0  0  0
   20.8125   20.1243   24.3976 H   0  0  0  0  0  0  0  0  0  0  0  0
   21.3907   18.4778   24.5655 H   0  0  0  0  0  0  0  0  0  0  0  0
   20.2282   19.1923   26.2476 C   0  0  2  0  0  0  0  0  0  0  0  0
   21.1156   19.6174   26.7268 H   0  0  0  0  0  0  0  0  0  0  0  0
   19.9935   17.8005   26.8606 C   0  0  0  0  0  0  0  0  0  0  0  0
   19.0592   17.3511   26.5042 H   0  0  0  0  0  0  0  0  0  0  0  0
   20.8188   17.1212   26.6135 H   0  0  0  0  0  0  0  0  0  0  0  0
   19.9355   17.8687   27.9538 H   0  0  0  0  0  0  0  0  0  0  0  0
   19.0926   20.1230   26.5730 N   0  3  0  0  0  0  0  0  0  0  0  0
   19.2631   21.0647   26.2088 H   0  0  0  0  0  0  0  0  0  0  0  0
   18.9547   20.2057   27.5843 H   0  0  0  0  0  0  0  0  0  0  0  0
   18.2136   19.7902   26.1690 H   0  0  0  0  0  0  0  0  0  0  0  0
  1  2  1  0  0  0  0
  1  3  1  0  0  0  0
  1  4  1  0  0  0  0
  1  5  1  0  0  0  0
  5  6  1  0  0  0  0
  5  7  1  0  0  0  0
  5  8  1  0  0  0  0
  8  9  1  0  0  0  0
  8 10  1  0  0  0  0
  8 11  1  0  0  0  0
 11 12  1  0  0  0  0
 11 13  1  0  0  0  0
 11 14  1  0  0  0  0
 14 15  1  0  0  0  0
 14 16  1  0  0  0  0
 14 17  1  0  0  0  0
 17 18  1  0  0  0  0
 17 19  1  0  0  0  0
 17 20  1  0  0  0  0
 20 21  1  0  0  0  0
 20 22  1  0  0  0  0
 22 23  1  0  0  0  0
 22 24  1  0  0  0  0
 22 25  1  0  0  0  0
 20 26  1  0  0  0  0
 26 27  1  0  0  0  0
 26 28  1  0  0  0  0
 26 29  1  0  0  0  0
M  END
> <VM2 Rank>
61

> <Conf_Id>
517

> <Probability>
0.38

> <Sum Probability>
95.54

> <Delta G>
1.975

> <G>
35.677

> <E>
-1.953

> <-TS>
37.630

> <U+W>
-26.098

> <U>
26.189

> <W>
-52.286

> <W(PB)>
-54.796

> <W(SA)>
2.510

> <Valence>
4.871

> <Coulomb>
19.831

> <VdW>
1.487

> <VdW6>
-9.787

> <VdW12>
11.273

> <Bond>
0.320

> <Angle>
1.789

> <Pdih>
2.762

> <Idih>
0.000

> <Tether>
0.000

$$$$
VeraChem MOL file


 29 28  0  0  0  0  0  0  0  0999 V2000     
   21.1732   20.0435   20.7708 C   0  0  0  0  0  0  0  0  0  0  0  0
   20.7892   21.0237   20.4598 H   0  0  0  0  0  0  0  0  0  0  0  0
   21.4402   20.0998   21.8331 H   0  0  0  0  0  0  0  0  0  0  0  0
   22.0954   19.8497   20.2080 H   0  0  0  0  0  0  0  0  0  0  0  0
   20.1338   18.9310   20.5062 C   0  0  0  0  0  0  0  0  0  0  0  0
   20.5317   17.9641   20.8419 H   0  0  0  0  0  0  0  0  0  0  0  0
   19.9877   18.8350   19.4212 H   0  0  0  0  0  0  0  0  0  0  0  0
   18.7579   19.2032   21.1661 C   0  0  0  0  0  0  0  0  0  0  0  0
   18.3292   20.1155   20.7291 H   0  0  0  0  0  0  0  0  0  0  0  0
   18.0697   18.3898   20.8983 H   0  0  0  0  0  0  0  0  0  0  0  0
   18.7832   19.3551   22.7087 C   0  0  0  0  0  0  0  0  0  0  0  0
   17.7610   19.5661   23.0517 H   0  0  0  0  0  0  0  0  0  0  0  0
   19.3820   20.2334   22.9814 H   0  0  0  0  0  0  0  0  0  0  0  0
   19.3114   18.0969   23.4425 C   0  0  0  0  0  0  0  0  0  0  0  0
   18.7570   17.2164   23.0901 H   0  0  0  0  0  0  0  0  0  0  0  0
   20.3619   17.9184   23.1810 H   0  0  0  0  0  0  0  0  0  0  0  0
   19.1648   18.1865   24.9833 C   0  0  0  0  0  0  0  0  0  0  0  0
   19.5423   17.2587   25.4332 H   0  0  0  0  0  0  0  0  0  0  0  0
   18.0952   18.2299   25.2275 H   0  0  0  0  0  0  0  0  0  0  0  0
   19.8724   19.3965   25.6377 C   0  0  2  0  0  0  0  0  0  0  0  0
   19.4889   20.3116   25.1770 H   0  0  0  0  0  0  0  0  0  0  0  0
   21.3978   19.3522   25.4378 C   0  0  0  0  0  0  0  0  0  0  0  0
   21.8234   18.4239   25.8386 H   0  0  0  0  0  0  0  0  0  0  0  0
   21.6623   19.4211   24.3764 H   0  0  0  0  0  0  0  0  0  0  0  0
   21.8791   20.1957   25.9479 H   0  0  0  0  0  0  0  0  0  0  0  0
   19.5415   19.4910   27.1011 N   0  3  0  0  0  0  0  0  0  0  0  0
   18.5317   19.5644   27.2554 H   0  0  0  0  0  0  0  0  0  0  0  0
   19.9759   20.3128   27.5307 H   0  0  0  0  0  0  0  0  0  0  0  0
   19.8718   18.6684   27.6129 H   0  0  0  0  0  0  0  0  0  0  0  0
  1  2  1  0  0  0  0
  1  3  1  0  0  0  0
  1  4  1  0  0  0  0
  1  5  1  0  0  0  0
  5  6  1  0  0  0  0
  5  7  1  0  0  0  0
  5  8  1  0  0  0  0
  8  9  1  0  0  0  0
  8 10  1  0  0  0  0
  8 11  1  0  0  0  0
 11 12  1  0  0  0  0
 11 13  1  0  0  0  0
 11 14  1  0  0  0  0
 14 15  1  0  0  0  0
 14 16  1  0  0  0  0
 14 17  1  0  0  0  0
 17 18  1  0  0  0  0
 17 19  1  0  0  0  0
 17 20  1  0  0  0  0
 20 21  1  0  0  0  0
 20 22  1  0  0  0  0
 22 23  1  0  0  0  0
 22 24  1  0  0  0  0
 22 25  1  0  0  0  0
 20 26  1  0  0  0  0
 26 27  1  0  0  0  0
 26 28  1  0  0  0  0
 26 29  1  0  0  0  0
M  END
> <VM2 Rank>
62

> <Conf_Id>
207

> <Probability>
0.36

> <Sum Probability>
95.90

> <Delta G>
2.003

> <G>
35.706

> <E>
-2.507

> <-TS>
38.213

> <U+W>
-26.652

> <U>
25.905

> <W>
-52.556

> <W(PB)>
-54.967

> <W(SA)>
2.411

> <Valence>
4.893

> <Coulomb>
20.129

> <VdW>
0.883

> <VdW6>
-10.962

> <VdW12>
11.845

> <Bond>
0.307

> <Angle>
2.003

> <Pdih>
2.583

> <Idih>
0.000

> <Tether>
0.000

$$$$
VeraChem MOL file


 29 28  0  0  0  0  0  0  0  0999 V2000     
   20.3682   20.7350   20.6175 C   0  0  0  0  0  0  0  0  0  0  0  0
   19.9153   21.4743   21.2908 H   0  0  0  0  0  0  0  0  0  0  0  0
   21.3520   20.4615   21.0183 H   0  0  0  0  0  0  0  0  0  0  0  0
   20.5310   21.2205   19.6465 H   0  0  0  0  0  0  0  0  0  0  0  0
   19.4564   19.4974   20.4570 C   0  0  0  0  0  0  0  0  0  0  0  0
   19.9437   18.7611   19.8028 H   0  0  0  0  0  0  0  0  0  0  0  0
   18.5334   19.8015   19.9440 H   0  0  0  0  0  0  0  0  0  0  0  0
   19.0810   18.8347   21.8040 C   0  0  0  0  0  0  0  0  0  0  0  0
   18.5753   19.5746   22.4381 H   0  0  0  0  0  0  0  0  0  0  0  0
   18.3491   18.0384   21.6106 H   0  0  0  0  0  0  0  0  0  0  0  0
   20.2973   18.2326   22.5513 C   0  0  0  0  0  0  0  0  0  0  0  0
   20.9989   19.0281   22.8324 H   0  0  0  0  0  0  0  0  0  0  0  0
   20.8462   17.5712   21.8669 H   0  0  0  0  0  0  0  0  0  0  0  0
   19.9042   17.4179   23.8103 C   0  0  0  0  0  0  0  0  0  0  0  0
   19.2937   16.5574   23.5039 H   0  0  0  0  0  0  0  0  0  0  0  0
   20.8125   16.9905   24.2556 H   0  0  0  0  0  0  0  0  0  0  0  0
   19.1282   18.2208   24.8887 C   0  0  0  0  0  0  0  0  0  0  0  0
   18.9612   17.5759   25.7616 H   0  0  0  0  0  0  0  0  0  0  0  0
   18.1302   18.4604   24.5002 H   0  0  0  0  0  0  0  0  0  0  0  0
   19.8142   19.5298   25.3445 C   0  0  2  0  0  0  0  0  0  0  0  0
   19.9871   20.1531   24.4621 H   0  0  0  0  0  0  0  0  0  0  0  0
   21.1676   19.2633   26.0267 C   0  0  0  0  0  0  0  0  0  0  0  0
   21.6190   20.2022   26.3702 H   0  0  0  0  0  0  0  0  0  0  0  0
   21.0504   18.6038   26.8956 H   0  0  0  0  0  0  0  0  0  0  0  0
   21.8769   18.7953   25.3342 H   0  0  0  0  0  0  0  0  0  0  0  0
   18.9189   20.3244   26.2540 N   0  3  0  0  0  0  0  0  0  0  0  0
   19.3546   21.2100   26.5273 H   0  0  0  0  0  0  0  0  0  0  0  0
   18.7083   19.8100   27.1135 H   0  0  0  0  0  0  0  0  0  0  0  0
   18.0272   20.5495   25.8036 H   0  0  0  0  0  0  0  0  0  0  0  0
  1  2  1  0  0  0  0
  1  3  1  0  0  0  0
  1  4  1  0  0  0  0
  1  5  1  0  0  0  0
  5  6  1  0  0  0  0
  5  7  1  0  0  0  0
  5  8  1  0  0  0  0
  8  9  1  0  0  0  0
  8 10  1  0  0  0  0
  8 11  1  0  0  0  0
 11 12  1  0  0  0  0
 11 13  1  0  0  0  0
 11 14  1  0  0  0  0
 14 15  1  0  0  0  0
 14 16  1  0  0  0  0
 14 17  1  0  0  0  0
 17 18  1  0  0  0  0
 17 19  1  0  0  0  0
 17 20  1  0  0  0  0
 20 21  1  0  0  0  0
 20 22  1  0  0  0  0
 22 23  1  0  0  0  0
 22 24  1  0  0  0  0
 22 25  1  0  0  0  0
 20 26  1  0  0  0  0
 26 27  1  0  0  0  0
 26 28  1  0  0  0  0
 26 29  1  0  0  0  0
M  END
> <VM2 Rank>
63

> <Conf_Id>
558

> <Probability>
0.34

> <Sum Probability>
96.24

> <Delta G>
2.033

> <G>
35.735

> <E>
-2.372

> <-TS>
38.107

> <U+W>
-26.517

> <U>
26.272

> <W>
-52.789

> <W(PB)>
-55.205

> <W(SA)>
2.416

> <Valence>
4.866

> <Coulomb>
20.503

> <VdW>
0.903

> <VdW6>
-10.948

> <VdW12>
11.850

> <Bond>
0.308

> <Angle>
1.874

> <Pdih>
2.685

> <Idih>
0.000

> <Tether>
0.000

$$$$
VeraChem MOL file


 29 28  0  0  0  0  0  0  0  0999 V2000     
   19.3218   20.6437   19.9376 C   0  0  0  0  0  0  0  0  0  0  0  0
   18.3871   21.1787   19.7252 H   0  0  0  0  0  0  0  0  0  0  0  0
   20.0740   21.3849   20.2376 H   0  0  0  0  0  0  0  0  0  0  0  0
   19.6591   20.1719   19.0055 H   0  0  0  0  0  0  0  0  0  0  0  0
   19.1075   19.5917   21.0463 C   0  0  0  0  0  0  0  0  0  0  0  0
   18.3300   18.8822   20.7308 H   0  0  0  0  0  0  0  0  0  0  0  0
   18.7335   20.0956   21.9473 H   0  0  0  0  0  0  0  0  0  0  0  0
   20.4133   18.8270   21.3666 C   0  0  0  0  0  0  0  0  0  0  0  0
   20.8106   18.3959   20.4373 H   0  0  0  0  0  0  0  0  0  0  0  0
   21.1782   19.5300   21.7215 H   0  0  0  0  0  0  0  0  0  0  0  0
   20.2267   17.6800   22.3935 C   0  0  0  0  0  0  0  0  0  0  0  0
   21.1933   17.1792   22.5420 H   0  0  0  0  0  0  0  0  0  0  0  0
   19.5601   16.9217   21.9600 H   0  0  0  0  0  0  0  0  0  0  0  0
   19.6631   18.1044   23.7745 C   0  0  0  0  0  0  0  0  0  0  0  0
   18.6453   18.4956   23.6527 H   0  0  0  0  0  0  0  0  0  0  0  0
   19.5683   17.1998   24.3886 H   0  0  0  0  0  0  0  0  0  0  0  0
   20.5532   19.1421   24.5115 C   0  0  0  0  0  0  0  0  0  0  0  0
   20.6245   20.0570   23.9106 H   0  0  0  0  0  0  0  0  0  0  0  0
   21.5760   18.7513   24.5924 H   0  0  0  0  0  0  0  0  0  0  0  0
   20.0580   19.5391   25.9223 C   0  0  2  0  0  0  0  0  0  0  0  0
   20.7397   20.3070   26.3010 H   0  0  0  0  0  0  0  0  0  0  0  0
   20.0991   18.3575   26.9070 C   0  0  0  0  0  0  0  0  0  0  0  0
   21.0930   17.8931   26.9179 H   0  0  0  0  0  0  0  0  0  0  0  0
   19.8815   18.7006   27.9259 H   0  0  0  0  0  0  0  0  0  0  0  0
   19.3622   17.5876   26.6496 H   0  0  0  0  0  0  0  0  0  0  0  0
   18.6933   20.1704   25.8946 N   0  3  0  0  0  0  0  0  0  0  0  0
   17.9866   19.5104   25.5608 H   0  0  0  0  0  0  0  0  0  0  0  0
   18.6702   20.9874   25.2778 H   0  0  0  0  0  0  0  0  0  0  0  0
   18.4069   20.4822   26.8271 H   0  0  0  0  0  0  0  0  0  0  0  0
  1  2  1  0  0  0  0
  1  3  1  0  0  0  0
  1  4  1  0  0  0  0
  1  5  1  0  0  0  0
  5  6  1  0  0  0  0
  5  7  1  0  0  0  0
  5  8  1  0  0  0  0
  8  9  1  0  0  0  0
  8 10  1  0  0  0  0
  8 11  1  0  0  0  0
 11 12  1  0  0  0  0
 11 13  1  0  0  0  0
 11 14  1  0  0  0  0
 14 15  1  0  0  0  0
 14 16  1  0  0  0  0
 14 17  1  0  0  0  0
 17 18  1  0  0  0  0
 17 19  1  0  0  0  0
 17 20  1  0  0  0  0
 20 21  1  0  0  0  0
 20 22  1  0  0  0  0
 22 23  1  0  0  0  0
 22 24  1  0  0  0  0
 22 25  1  0  0  0  0
 20 26  1  0  0  0  0
 26 27  1  0  0  0  0
 26 28  1  0  0  0  0
 26 29  1  0  0  0  0
M  END
> <VM2 Rank>
64

> <Conf_Id>
1376

> <Probability>
0.33

> <Sum Probability>
96.57

> <Delta G>
2.045

> <G>
35.747

> <E>
-2.214

> <-TS>
37.961

> <U+W>
-26.359

> <U>
26.386

> <W>
-52.745

> <W(PB)>
-55.195

> <W(SA)>
2.450

> <Valence>
4.726

> <Coulomb>
20.483

> <VdW>
1.177

> <VdW6>
-10.349

> <VdW12>
11.526

> <Bond>
0.319

> <Angle>
1.933

> <Pdih>
2.474

> <Idih>
0.000

> <Tether>
0.000

$$$$
VeraChem MOL file


 29 28  0  0  0  0  0  0  0  0999 V2000     
   20.2371   19.5314   19.5740 C   0  0  0  0  0  0  0  0  0  0  0  0
   20.5161   20.2319   18.7762 H   0  0  0  0  0  0  0  0  0  0  0  0
   21.1315   18.9494   19.8282 H   0  0  0  0  0  0  0  0  0  0  0  0
   19.4826   18.8447   19.1690 H   0  0  0  0  0  0  0  0  0  0  0  0
   19.6899   20.2984   20.7992 C   0  0  0  0  0  0  0  0  0  0  0  0
   18.8795   20.9618   20.4663 H   0  0  0  0  0  0  0  0  0  0  0  0
   20.4737   20.9517   21.2073 H   0  0  0  0  0  0  0  0  0  0  0  0
   19.1456   19.3735   21.9146 C   0  0  0  0  0  0  0  0  0  0  0  0
   18.6635   20.0048   22.6719 H   0  0  0  0  0  0  0  0  0  0  0  0
   18.3590   18.7260   21.5034 H   0  0  0  0  0  0  0  0  0  0  0  0
   20.2407   18.5052   22.5842 C   0  0  0  0  0  0  0  0  0  0  0  0
   21.0327   19.1518   22.9845 H   0  0  0  0  0  0  0  0  0  0  0  0
   20.7200   17.8733   21.8256 H   0  0  0  0  0  0  0  0  0  0  0  0
   19.6977   17.5768   23.7014 C   0  0  0  0  0  0  0  0  0  0  0  0
   18.9774   16.8728   23.2625 H   0  0  0  0  0  0  0  0  0  0  0  0
   20.5219   16.9568   24.0787 H   0  0  0  0  0  0  0  0  0  0  0  0
   19.0183   18.3078   24.8908 C   0  0  0  0  0  0  0  0  0  0  0  0
   18.7430   17.5668   25.6529 H   0  0  0  0  0  0  0  0  0  0  0  0
   18.0723   18.7432   24.5450 H   0  0  0  0  0  0  0  0  0  0  0  0
   19.8716   19.4192   25.5450 C   0  0  2  0  0  0  0  0  0  0  0  0
   20.1507   20.1399   24.7706 H   0  0  0  0  0  0  0  0  0  0  0  0
   21.1581   18.8599   26.1780 C   0  0  0  0  0  0  0  0  0  0  0  0
   20.9292   18.0983   26.9338 H   0  0  0  0  0  0  0  0  0  0  0  0
   21.8094   18.4072   25.4213 H   0  0  0  0  0  0  0  0  0  0  0  0
   21.7298   19.6604   26.6633 H   0  0  0  0  0  0  0  0  0  0  0  0
   19.0771   20.1839   26.5668 N   0  3  0  0  0  0  0  0  0  0  0  0
   19.6271   20.9453   26.9748 H   0  0  0  0  0  0  0  0  0  0  0  0
   18.7766   19.5786   27.3356 H   0  0  0  0  0  0  0  0  0  0  0  0
   18.2365   20.6009   26.1566 H   0  0  0  0  0  0  0  0  0  0  0  0
  1  2  1  0  0  0  0
  1  3  1  0  0  0  0
  1  4  1  0  0  0  0
  1  5  1  0  0  0  0
  5  6  1  0  0  0  0
  5  7  1  0  0  0  0
  5  8  1  0  0  0  0
  8  9  1  0  0  0  0
  8 10  1  0  0  0  0
  8 11  1  0  0  0  0
 11 12  1  0  0  0  0
 11 13  1  0  0  0  0
 11 14  1  0  0  0  0
 14 15  1  0  0  0  0
 14 16  1  0  0  0  0
 14 17  1  0  0  0  0
 17 18  1  0  0  0  0
 17 19  1  0  0  0  0
 17 20  1  0  0  0  0
 20 21  1  0  0  0  0
 20 22  1  0  0  0  0
 22 23  1  0  0  0  0
 22 24  1  0  0  0  0
 22 25  1  0  0  0  0
 20 26  1  0  0  0  0
 26 27  1  0  0  0  0
 26 28  1  0  0  0  0
 26 29  1  0  0  0  0
M  END
> <VM2 Rank>
65

> <Conf_Id>
187

> <Probability>
0.27

> <Sum Probability>
96.84

> <Delta G>
2.170

> <G>
35.872

> <E>
-2.189

> <-TS>
38.061

> <U+W>
-26.334

> <U>
26.391

> <W>
-52.725

> <W(PB)>
-55.162

> <W(SA)>
2.436

> <Valence>
4.975

> <Coulomb>
20.373

> <VdW>
1.044

> <VdW6>
-10.751

> <VdW12>
11.795

> <Bond>
0.316

> <Angle>
1.996

> <Pdih>
2.662

> <Idih>
0.000

> <Tether>
0.000

$$$$
VeraChem MOL file


 29 28  0  0  0  0  0  0  0  0999 V2000     
   18.9464   20.2666   19.9136 C   0  0  0  0  0  0  0  0  0  0  0  0
   18.4088   21.0255   20.4969 H   0  0  0  0  0  0  0  0  0  0  0  0
   19.7811   20.7592   19.3980 H   0  0  0  0  0  0  0  0  0  0  0  0
   18.2598   19.8796   19.1495 H   0  0  0  0  0  0  0  0  0  0  0  0
   19.4508   19.1248   20.8211 C   0  0  0  0  0  0  0  0  0  0  0  0
   19.9573   18.3672   20.2070 H   0  0  0  0  0  0  0  0  0  0  0  0
   18.5874   18.6319   21.2872 H   0  0  0  0  0  0  0  0  0  0  0  0
   20.4187   19.6468   21.9087 C   0  0  0  0  0  0  0  0  0  0  0  0
   21.2397   20.1917   21.4228 H   0  0  0  0  0  0  0  0  0  0  0  0
   19.9036   20.3804   22.5426 H   0  0  0  0  0  0  0  0  0  0  0  0
   21.0301   18.5228   22.7842 C   0  0  0  0  0  0  0  0  0  0  0  0
   21.7484   18.9705   23.4840 H   0  0  0  0  0  0  0  0  0  0  0  0
   21.6211   17.8547   22.1428 H   0  0  0  0  0  0  0  0  0  0  0  0
   20.0037   17.6696   23.5772 C   0  0  0  0  0  0  0  0  0  0  0  0
   19.3940   17.0856   22.8753 H   0  0  0  0  0  0  0  0  0  0  0  0
   20.5483   16.9248   24.1725 H   0  0  0  0  0  0  0  0  0  0  0  0
   19.0611   18.4824   24.5047 C   0  0  0  0  0  0  0  0  0  0  0  0
   18.4181   17.7857   25.0585 H   0  0  0  0  0  0  0  0  0  0  0  0
   18.3850   19.0821   23.8822 H   0  0  0  0  0  0  0  0  0  0  0  0
   19.7813   19.4172   25.5041 C   0  0  2  0  0  0  0  0  0  0  0  0
   20.4332   20.0894   24.9384 H   0  0  0  0  0  0  0  0  0  0  0  0
   20.6436   18.6324   26.5085 C   0  0  0  0  0  0  0  0  0  0  0  0
   20.0390   17.9093   27.0700 H   0  0  0  0  0  0  0  0  0  0  0  0
   21.4478   18.0868   26.0013 H   0  0  0  0  0  0  0  0  0  0  0  0
   21.1153   19.3131   27.2278 H   0  0  0  0  0  0  0  0  0  0  0  0
   18.8002   20.2935   26.2319 N   0  3  0  0  0  0  0  0  0  0  0  0
   18.2435   20.8569   25.5828 H   0  0  0  0  0  0  0  0  0  0  0  0
   19.2764   20.9408   26.8666 H   0  0  0  0  0  0  0  0  0  0  0  0
   18.1493   19.7385   26.7940 H   0  0  0  0  0  0  0  0  0  0  0  0
  1  2  1  0  0  0  0
  1  3  1  0  0  0  0
  1  4  1  0  0  0  0
  1  5  1  0  0  0  0
  5  6  1  0  0  0  0
  5  7  1  0  0  0  0
  5  8  1  0  0  0  0
  8  9  1  0  0  0  0
  8 10  1  0  0  0  0
  8 11  1  0  0  0  0
 11 12  1  0  0  0  0
 11 13  1  0  0  0  0
 11 14  1  0  0  0  0
 14 15  1  0  0  0  0
 14 16  1  0  0  0  0
 14 17  1  0  0  0  0
 17 18  1  0  0  0  0
 17 19  1  0  0  0  0
 17 20  1  0  0  0  0
 20 21  1  0  0  0  0
 20 22  1  0  0  0  0
 22 23  1  0  0  0  0
 22 24  1  0  0  0  0
 22 25  1  0  0  0  0
 20 26  1  0  0  0  0
 26 27  1  0  0  0  0
 26 28  1  0  0  0  0
 26 29  1  0  0  0  0
M  END
> <VM2 Rank>
66

> <Conf_Id>
173

> <Probability>
0.27

> <Sum Probability>
97.11

> <Delta G>
2.177

> <G>
35.879

> <E>
-2.424

> <-TS>
38.303

> <U+W>
-26.569

> <U>
26.205

> <W>
-52.774

> <W(PB)>
-55.195

> <W(SA)>
2.421

> <Valence>
4.871

> <Coulomb>
20.549

> <VdW>
0.785

> <VdW6>
-11.159

> <VdW12>
11.945

> <Bond>
0.316

> <Angle>
2.038

> <Pdih>
2.517

> <Idih>
0.000

> <Tether>
0.000

$$$$
VeraChem MOL file


 29 28  0  0  0  0  0  0  0  0999 V2000     
   20.1702   18.1868   20.0847 C   0  0  0  0  0  0  0  0  0  0  0  0
   20.2334   18.8583   19.2187 H   0  0  0  0  0  0  0  0  0  0  0  0
   21.1423   18.1893   20.5932 H   0  0  0  0  0  0  0  0  0  0  0  0
   19.9951   17.1701   19.7099 H   0  0  0  0  0  0  0  0  0  0  0  0
   19.0320   18.6162   21.0376 C   0  0  0  0  0  0  0  0  0  0  0  0
   18.9960   17.9385   21.9010 H   0  0  0  0  0  0  0  0  0  0  0  0
   18.0711   18.4940   20.5187 H   0  0  0  0  0  0  0  0  0  0  0  0
   19.1524   20.0858   21.5147 C   0  0  0  0  0  0  0  0  0  0  0  0
   19.0827   20.7483   20.6411 H   0  0  0  0  0  0  0  0  0  0  0  0
   18.2826   20.3302   22.1389 H   0  0  0  0  0  0  0  0  0  0  0  0
   20.4545   20.4244   22.2894 C   0  0  0  0  0  0  0  0  0  0  0  0
   20.4161   21.4786   22.5963 H   0  0  0  0  0  0  0  0  0  0  0  0
   21.3124   20.3478   21.6081 H   0  0  0  0  0  0  0  0  0  0  0  0
   20.7254   19.5469   23.5383 C   0  0  0  0  0  0  0  0  0  0  0  0
   20.8773   18.5062   23.2259 H   0  0  0  0  0  0  0  0  0  0  0  0
   21.6726   19.8705   23.9913 H   0  0  0  0  0  0  0  0  0  0  0  0
   19.6020   19.6318   24.6032 C   0  0  0  0  0  0  0  0  0  0  0  0
   18.6721   19.2067   24.2047 H   0  0  0  0  0  0  0  0  0  0  0  0
   19.3983   20.6903   24.8119 H   0  0  0  0  0  0  0  0  0  0  0  0
   19.9557   18.9279   25.9327 C   0  0  2  0  0  0  0  0  0  0  0  0
   20.9060   19.3331   26.2937 H   0  0  0  0  0  0  0  0  0  0  0  0
   20.1086   17.4062   25.7586 C   0  0  0  0  0  0  0  0  0  0  0  0
   19.1978   16.9613   25.3390 H   0  0  0  0  0  0  0  0  0  0  0  0
   20.9470   17.1629   25.0956 H   0  0  0  0  0  0  0  0  0  0  0  0
   20.3087   16.9251   26.7239 H   0  0  0  0  0  0  0  0  0  0  0  0
   18.9352   19.2300   26.9946 N   0  3  0  0  0  0  0  0  0  0  0  0
   18.8477   20.2372   27.1577 H   0  0  0  0  0  0  0  0  0  0  0  0
   19.1865   18.7976   27.8883 H   0  0  0  0  0  0  0  0  0  0  0  0
   18.0096   18.8786   26.7347 H   0  0  0  0  0  0  0  0  0  0  0  0
  1  2  1  0  0  0  0
  1  3  1  0  0  0  0
  1  4  1  0  0  0  0
  1  5  1  0  0  0  0
  5  6  1  0  0  0  0
  5  7  1  0  0  0  0
  5  8  1  0  0  0  0
  8  9  1  0  0  0  0
  8 10  1  0  0  0  0
  8 11  1  0  0  0  0
 11 12  1  0  0  0  0
 11 13  1  0  0  0  0
 11 14  1  0  0  0  0
 14 15  1  0  0  0  0
 14 16  1  0  0  0  0
 14 17  1  0  0  0  0
 17 18  1  0  0  0  0
 17 19  1  0  0  0  0
 17 20  1  0  0  0  0
 20 21  1  0  0  0  0
 20 22  1  0  0  0  0
 22 23  1  0  0  0  0
 22 24  1  0  0  0  0
 22 25  1  0  0  0  0
 20 26  1  0  0  0  0
 26 27  1  0  0  0  0
 26 28  1  0  0  0  0
 26 29  1  0  0  0  0
M  END
> <VM2 Rank>
67

> <Conf_Id>
1264

> <Probability>
0.26

> <Sum Probability>
97.38

> <Delta G>
2.186

> <G>
35.888

> <E>
-2.307

> <-TS>
38.195

> <U+W>
-26.451

> <U>
26.060

> <W>
-52.511

> <W(PB)>
-54.927

> <W(SA)>
2.416

> <Valence>
5.062

> <Coulomb>
19.918

> <VdW>
1.080

> <VdW6>
-10.857

> <VdW12>
11.937

> <Bond>
0.323

> <Angle>
2.057

> <Pdih>
2.682

> <Idih>
0.000

> <Tether>
0.000

$$$$
VeraChem MOL file


 29 28  0  0  0  0  0  0  0  0999 V2000     
   18.9685   18.3291   20.1951 C   0  0  0  0  0  0  0  0  0  0  0  0
   18.9187   19.0237   19.3465 H   0  0  0  0  0  0  0  0  0  0  0  0
   18.8752   17.3091   19.8007 H   0  0  0  0  0  0  0  0  0  0  0  0
   18.1021   18.5144   20.8421 H   0  0  0  0  0  0  0  0  0  0  0  0
   20.2968   18.4918   20.9677 C   0  0  0  0  0  0  0  0  0  0  0  0
   21.1264   18.1928   20.3119 H   0  0  0  0  0  0  0  0  0  0  0  0
   20.3191   17.7963   21.8172 H   0  0  0  0  0  0  0  0  0  0  0  0
   20.5499   19.9410   21.4550 C   0  0  0  0  0  0  0  0  0  0  0  0
   21.5328   19.9869   21.9422 H   0  0  0  0  0  0  0  0  0  0  0  0
   20.6254   20.6005   20.5796 H   0  0  0  0  0  0  0  0  0  0  0  0
   19.4712   20.5139   22.4135 C   0  0  0  0  0  0  0  0  0  0  0  0
   18.5283   20.6372   21.8643 H   0  0  0  0  0  0  0  0  0  0  0  0
   19.7711   21.5273   22.7138 H   0  0  0  0  0  0  0  0  0  0  0  0
   19.2026   19.6715   23.6870 C   0  0  0  0  0  0  0  0  0  0  0  0
   18.4096   20.1677   24.2613 H   0  0  0  0  0  0  0  0  0  0  0  0
   18.8013   18.6921   23.3980 H   0  0  0  0  0  0  0  0  0  0  0  0
   20.4591   19.4953   24.5823 C   0  0  0  0  0  0  0  0  0  0  0  0
   20.8902   20.4819   24.7968 H   0  0  0  0  0  0  0  0  0  0  0  0
   21.2296   18.9403   24.0327 H   0  0  0  0  0  0  0  0  0  0  0  0
   20.2036   18.7688   25.9237 C   0  0  2  0  0  0  0  0  0  0  0  0
   21.1573   18.7296   26.4590 H   0  0  0  0  0  0  0  0  0  0  0  0
   19.7276   17.3208   25.7141 C   0  0  0  0  0  0  0  0  0  0  0  0
   18.7277   17.2834   25.2655 H   0  0  0  0  0  0  0  0  0  0  0  0
   20.4186   16.7740   25.0606 H   0  0  0  0  0  0  0  0  0  0  0  0
   19.6848   16.7887   26.6724 H   0  0  0  0  0  0  0  0  0  0  0  0
   19.2568   19.5238   26.8156 N   0  3  0  0  0  0  0  0  0  0  0  0
   19.5889   20.4757   26.9949 H   0  0  0  0  0  0  0  0  0  0  0  0
   19.1482   19.0612   27.7227 H   0  0  0  0  0  0  0  0  0  0  0  0
   18.3275   19.5955   26.3941 H   0  0  0  0  0  0  0  0  0  0  0  0
  1  2  1  0  0  0  0
  1  3  1  0  0  0  0
  1  4  1  0  0  0  0
  1  5  1  0  0  0  0
  5  6  1  0  0  0  0
  5  7  1  0  0  0  0
  5  8  1  0  0  0  0
  8  9  1  0  0  0  0
  8 10  1  0  0  0  0
  8 11  1  0  0  0  0
 11 12  1  0  0  0  0
 11 13  1  0  0  0  0
 11 14  1  0  0  0  0
 14 15  1  0  0  0  0
 14 16  1  0  0  0  0
 14 17  1  0  0  0  0
 17 18  1  0  0  0  0
 17 19  1  0  0  0  0
 17 20  1  0  0  0  0
 20 21  1  0  0  0  0
 20 22  1  0  0  0  0
 22 23  1  0  0  0  0
 22 24  1  0  0  0  0
 22 25  1  0  0  0  0
 20 26  1  0  0  0  0
 26 27  1  0  0  0  0
 26 28  1  0  0  0  0
 26 29  1  0  0  0  0
M  END
> <VM2 Rank>
68

> <Conf_Id>
1194

> <Probability>
0.22

> <Sum Probability>
97.60

> <Delta G>
2.284

> <G>
35.986

> <E>
-2.343

> <-TS>
38.329

> <U+W>
-26.488

> <U>
26.082

> <W>
-52.570

> <W(PB)>
-54.967

> <W(SA)>
2.396

> <Valence>
5.054

> <Coulomb>
19.931

> <VdW>
1.097

> <VdW6>
-11.342

> <VdW12>
12.440

> <Bond>
0.355

> <Angle>
2.147

> <Pdih>
2.552

> <Idih>
0.000

> <Tether>
0.000

$$$$
VeraChem MOL file


 29 28  0  0  0  0  0  0  0  0999 V2000     
   20.5014   20.1298   20.0751 C   0  0  0  0  0  0  0  0  0  0  0  0
   20.6682   21.1619   19.7406 H   0  0  0  0  0  0  0  0  0  0  0  0
   21.4065   19.8020   20.6013 H   0  0  0  0  0  0  0  0  0  0  0  0
   20.3765   19.5030   19.1826 H   0  0  0  0  0  0  0  0  0  0  0  0
   19.2565   20.0506   20.9871 C   0  0  0  0  0  0  0  0  0  0  0  0
   18.3998   20.4870   20.4550 H   0  0  0  0  0  0  0  0  0  0  0  0
   19.4082   20.6758   21.8771 H   0  0  0  0  0  0  0  0  0  0  0  0
   18.8933   18.6031   21.4050 C   0  0  0  0  0  0  0  0  0  0  0  0
   17.9703   18.6238   21.9992 H   0  0  0  0  0  0  0  0  0  0  0  0
   18.6474   18.0262   20.5030 H   0  0  0  0  0  0  0  0  0  0  0  0
   19.9979   17.8447   22.1897 C   0  0  0  0  0  0  0  0  0  0  0  0
   20.8505   17.6600   21.5227 H   0  0  0  0  0  0  0  0  0  0  0  0
   19.6161   16.8507   22.4604 H   0  0  0  0  0  0  0  0  0  0  0  0
   20.5109   18.5512   23.4714 C   0  0  0  0  0  0  0  0  0  0  0  0
   21.3079   17.9291   23.8981 H   0  0  0  0  0  0  0  0  0  0  0  0
   20.9808   19.5083   23.2092 H   0  0  0  0  0  0  0  0  0  0  0  0
   19.4062   18.7829   24.5348 C   0  0  0  0  0  0  0  0  0  0  0  0
   18.9529   17.8225   24.8136 H   0  0  0  0  0  0  0  0  0  0  0  0
   18.6066   19.3885   24.0913 H   0  0  0  0  0  0  0  0  0  0  0  0
   19.9066   19.5107   25.8036 C   0  0  2  0  0  0  0  0  0  0  0  0
   20.4054   20.4346   25.4953 H   0  0  0  0  0  0  0  0  0  0  0  0
   20.9069   18.6605   26.6075 C   0  0  0  0  0  0  0  0  0  0  0  0
   20.4730   17.6908   26.8817 H   0  0  0  0  0  0  0  0  0  0  0  0
   21.8252   18.4780   26.0379 H   0  0  0  0  0  0  0  0  0  0  0  0
   21.1970   19.1763   27.5311 H   0  0  0  0  0  0  0  0  0  0  0  0
   18.7563   19.9226   26.6800 N   0  3  0  0  0  0  0  0  0  0  0  0
   18.0985   20.5274   26.1797 H   0  0  0  0  0  0  0  0  0  0  0  0
   19.0797   20.4393   27.5028 H   0  0  0  0  0  0  0  0  0  0  0  0
   18.2329   19.1097   27.0161 H   0  0  0  0  0  0  0  0  0  0  0  0
  1  2  1  0  0  0  0
  1  3  1  0  0  0  0
  1  4  1  0  0  0  0
  1  5  1  0  0  0  0
  5  6  1  0  0  0  0
  5  7  1  0  0  0  0
  5  8  1  0  0  0  0
  8  9  1  0  0  0  0
  8 10  1  0  0  0  0
  8 11  1  0  0  0  0
 11 12  1  0  0  0  0
 11 13  1  0  0  0  0
 11 14  1  0  0  0  0
 14 15  1  0  0  0  0
 14 16  1  0  0  0  0
 14 17  1  0  0  0  0
 17 18  1  0  0  0  0
 17 19  1  0  0  0  0
 17 20  1  0  0  0  0
 20 21  1  0  0  0  0
 20 22  1  0  0  0  0
 22 23  1  0  0  0  0
 22 24  1  0  0  0  0
 22 25  1  0  0  0  0
 20 26  1  0  0  0  0
 26 27  1  0  0  0  0
 26 28  1  0  0  0  0
 26 29  1  0  0  0  0
M  END
> <VM2 Rank>
69

> <Conf_Id>
575

> <Probability>
0.19

> <Sum Probability>
97.79

> <Delta G>
2.388

> <G>
36.091

> <E>
-2.047

> <-TS>
38.138

> <U+W>
-26.192

> <U>
26.466

> <W>
-52.658

> <W(PB)>
-55.088

> <W(SA)>
2.430

> <Valence>
5.199

> <Coulomb>
20.030

> <VdW>
1.237

> <VdW6>
-10.692

> <VdW12>
11.929

> <Bond>
0.334

> <Angle>
2.222

> <Pdih>
2.643

> <Idih>
0.000

> <Tether>
0.000

$$$$
VeraChem MOL file


 29 28  0  0  0  0  0  0  0  0999 V2000     
   19.3666   19.1965   19.7880 C   0  0  0  0  0  0  0  0  0  0  0  0
   18.3784   19.4317   20.2022 H   0  0  0  0  0  0  0  0  0  0  0  0
   19.7740   20.1077   19.3311 H   0  0  0  0  0  0  0  0  0  0  0  0
   19.2234   18.4556   18.9908 H   0  0  0  0  0  0  0  0  0  0  0  0
   20.3189   18.6466   20.8736 C   0  0  0  0  0  0  0  0  0  0  0  0
   21.2523   18.3216   20.3934 H   0  0  0  0  0  0  0  0  0  0  0  0
   19.8831   17.7459   21.3259 H   0  0  0  0  0  0  0  0  0  0  0  0
   20.6638   19.6849   21.9712 C   0  0  0  0  0  0  0  0  0  0  0  0
   21.3897   19.2415   22.6655 H   0  0  0  0  0  0  0  0  0  0  0  0
   21.1829   20.5333   21.5046 H   0  0  0  0  0  0  0  0  0  0  0  0
   19.4488   20.2273   22.7706 C   0  0  0  0  0  0  0  0  0  0  0  0
   18.8004   20.8035   22.0973 H   0  0  0  0  0  0  0  0  0  0  0  0
   19.8112   20.9522   23.5113 H   0  0  0  0  0  0  0  0  0  0  0  0
   18.5936   19.1452   23.4831 C   0  0  0  0  0  0  0  0  0  0  0  0
   17.7732   19.6400   24.0198 H   0  0  0  0  0  0  0  0  0  0  0  0
   18.1064   18.5117   22.7302 H   0  0  0  0  0  0  0  0  0  0  0  0
   19.3807   18.2400   24.4677 C   0  0  0  0  0  0  0  0  0  0  0  0
   20.0880   17.6214   23.9007 H   0  0  0  0  0  0  0  0  0  0  0  0
   18.6826   17.5390   24.9440 H   0  0  0  0  0  0  0  0  0  0  0  0
   20.1500   19.0164   25.5591 C   0  0  2  0  0  0  0  0  0  0  0  0
   20.8395   19.7089   25.0671 H   0  0  0  0  0  0  0  0  0  0  0  0
   20.9754   18.0500   26.4230 C   0  0  0  0  0  0  0  0  0  0  0  0
   20.3292   17.3325   26.9441 H   0  0  0  0  0  0  0  0  0  0  0  0
   21.6852   17.4853   25.8058 H   0  0  0  0  0  0  0  0  0  0  0  0
   21.5531   18.5997   27.1763 H   0  0  0  0  0  0  0  0  0  0  0  0
   19.2382   19.8490   26.4177 N   0  3  0  0  0  0  0  0  0  0  0  0
   18.7071   20.5180   25.8538 H   0  0  0  0  0  0  0  0  0  0  0  0
   19.7640   20.3823   27.1161 H   0  0  0  0  0  0  0  0  0  0  0  0
   18.5643   19.2652   26.9201 H   0  0  0  0  0  0  0  0  0  0  0  0
  1  2  1  0  0  0  0
  1  3  1  0  0  0  0
  1  4  1  0  0  0  0
  1  5  1  0  0  0  0
  5  6  1  0  0  0  0
  5  7  1  0  0  0  0
  5  8  1  0  0  0  0
  8  9  1  0  0  0  0
  8 10  1  0  0  0  0
  8 11  1  0  0  0  0
 11 12  1  0  0  0  0
 11 13  1  0  0  0  0
 11 14  1  0  0  0  0
 14 15  1  0  0  0  0
 14 16  1  0  0  0  0
 14 17  1  0  0  0  0
 17 18  1  0  0  0  0
 17 19  1  0  0  0  0
 17 20  1  0  0  0  0
 20 21  1  0  0  0  0
 20 22  1  0  0  0  0
 22 23  1  0  0  0  0
 22 24  1  0  0  0  0
 22 25  1  0  0  0  0
 20 26  1  0  0  0  0
 26 27  1  0  0  0  0
 26 28  1  0  0  0  0
 26 29  1  0  0  0  0
M  END
> <VM2 Rank>
70

> <Conf_Id>
181

> <Probability>
0.17

> <Sum Probability>
97.96

> <Delta G>
2.438

> <G>
36.140

> <E>
-2.351

> <-TS>
38.490

> <U+W>
-26.495

> <U>
25.928

> <W>
-52.423

> <W(PB)>
-54.828

> <W(SA)>
2.405

> <Valence>
4.806

> <Coulomb>
20.407

> <VdW>
0.715

> <VdW6>
-11.781

> <VdW12>
12.496

> <Bond>
0.347

> <Angle>
2.053

> <Pdih>
2.406

> <Idih>
0.000

> <Tether>
0.000

$$$$
VeraChem MOL file


 29 28  0  0  0  0  0  0  0  0999 V2000     
   19.2037   20.8701   20.9112 C   0  0  0  0  0  0  0  0  0  0  0  0
   18.3473   21.3723   20.4430 H   0  0  0  0  0  0  0  0  0  0  0  0
   19.1324   21.0350   21.9929 H   0  0  0  0  0  0  0  0  0  0  0  0
   20.1182   21.3571   20.5484 H   0  0  0  0  0  0  0  0  0  0  0  0
   19.2030   19.3639   20.5653 C   0  0  0  0  0  0  0  0  0  0  0  0
   19.1591   19.2528   19.4729 H   0  0  0  0  0  0  0  0  0  0  0  0
   18.2882   18.8947   20.9511 H   0  0  0  0  0  0  0  0  0  0  0  0
   20.4536   18.6111   21.0867 C   0  0  0  0  0  0  0  0  0  0  0  0
   20.3955   17.5623   20.7648 H   0  0  0  0  0  0  0  0  0  0  0  0
   21.3463   19.0260   20.5988 H   0  0  0  0  0  0  0  0  0  0  0  0
   20.6599   18.6566   22.6225 C   0  0  0  0  0  0  0  0  0  0  0  0
   20.8254   19.6937   22.9401 H   0  0  0  0  0  0  0  0  0  0  0  0
   21.5854   18.1153   22.8624 H   0  0  0  0  0  0  0  0  0  0  0  0
   19.4890   18.0283   23.4193 C   0  0  0  0  0  0  0  0  0  0  0  0
   18.5680   18.6018   23.2557 H   0  0  0  0  0  0  0  0  0  0  0  0
   19.2926   17.0189   23.0323 H   0  0  0  0  0  0  0  0  0  0  0  0
   19.7753   17.9262   24.9392 C   0  0  0  0  0  0  0  0  0  0  0  0
   20.6397   17.2664   25.0925 H   0  0  0  0  0  0  0  0  0  0  0  0
   18.9249   17.4366   25.4321 H   0  0  0  0  0  0  0  0  0  0  0  0
   20.0503   19.2843   25.6228 C   0  0  2  0  0  0  0  0  0  0  0  0
   20.9078   19.7513   25.1295 H   0  0  0  0  0  0  0  0  0  0  0  0
   20.4044   19.0761   27.1036 C   0  0  0  0  0  0  0  0  0  0  0  0
   20.6384   20.0335   27.5852 H   0  0  0  0  0  0  0  0  0  0  0  0
   19.5729   18.6129   27.6496 H   0  0  0  0  0  0  0  0  0  0  0  0
   21.2838   18.4281   27.2064 H   0  0  0  0  0  0  0  0  0  0  0  0
   18.8969   20.2395   25.4833 N   0  3  0  0  0  0  0  0  0  0  0  0
   18.0543   19.8731   25.9344 H   0  0  0  0  0  0  0  0  0  0  0  0
   18.6727   20.4081   24.4990 H   0  0  0  0  0  0  0  0  0  0  0  0
   19.1064   21.1450   25.9132 H   0  0  0  0  0  0  0  0  0  0  0  0
  1  2  1  0  0  0  0
  1  3  1  0  0  0  0
  1  4  1  0  0  0  0
  1  5  1  0  0  0  0
  5  6  1  0  0  0  0
  5  7  1  0  0  0  0
  5  8  1  0  0  0  0
  8  9  1  0  0  0  0
  8 10  1  0  0  0  0
  8 11  1  0  0  0  0
 11 12  1  0  0  0  0
 11 13  1  0  0  0  0
 11 14  1  0  0  0  0
 14 15  1  0  0  0  0
 14 16  1  0  0  0  0
 14 17  1  0  0  0  0
 17 18  1  0  0  0  0
 17 19  1  0  0  0  0
 17 20  1  0  0  0  0
 20 21  1  0  0  0  0
 20 22  1  0  0  0  0
 22 23  1  0  0  0  0
 22 24  1  0  0  0  0
 22 25  1  0  0  0  0
 20 26  1  0  0  0  0
 26 27  1  0  0  0  0
 26 28  1  0  0  0  0
 26 29  1  0  0  0  0
M  END
> <VM2 Rank>
71

> <Conf_Id>
1594

> <Probability>
0.17

> <Sum Probability>
98.13

> <Delta G>
2.465

> <G>
36.167

> <E>
-1.826

> <-TS>
37.992

> <U+W>
-25.970

> <U>
26.280

> <W>
-52.250

> <W(PB)>
-54.673

> <W(SA)>
2.423

> <Valence>
4.388

> <Coulomb>
21.060

> <VdW>
0.832

> <VdW6>
-10.644

> <VdW12>
11.476

> <Bond>
0.296

> <Angle>
1.681

> <Pdih>
2.411

> <Idih>
0.000

> <Tether>
0.000

$$$$
VeraChem MOL file


 29 28  0  0  0  0  0  0  0  0999 V2000     
   19.3105   19.9823   19.0025 C   0  0  0  0  0  0  0  0  0  0  0  0
   18.4687   19.9107   18.3017 H   0  0  0  0  0  0  0  0  0  0  0  0
   19.5700   21.0435   19.1106 H   0  0  0  0  0  0  0  0  0  0  0  0
   20.1681   19.4646   18.5532 H   0  0  0  0  0  0  0  0  0  0  0  0
   18.9393   19.3605   20.3654 C   0  0  0  0  0  0  0  0  0  0  0  0
   18.6525   18.3095   20.2206 H   0  0  0  0  0  0  0  0  0  0  0  0
   18.0587   19.8762   20.7734 H   0  0  0  0  0  0  0  0  0  0  0  0
   20.1084   19.4482   21.3712 C   0  0  0  0  0  0  0  0  0  0  0  0
   20.9867   18.9343   20.9567 H   0  0  0  0  0  0  0  0  0  0  0  0
   20.3927   20.5004   21.5112 H   0  0  0  0  0  0  0  0  0  0  0  0
   19.7413   18.8258   22.7372 C   0  0  0  0  0  0  0  0  0  0  0  0
   19.4623   17.7728   22.5930 H   0  0  0  0  0  0  0  0  0  0  0  0
   18.8557   19.3349   23.1327 H   0  0  0  0  0  0  0  0  0  0  0  0
   20.9186   18.9133   23.7397 C   0  0  0  0  0  0  0  0  0  0  0  0
   21.7865   18.4124   23.2886 H   0  0  0  0  0  0  0  0  0  0  0  0
   21.2174   19.9601   23.8895 H   0  0  0  0  0  0  0  0  0  0  0  0
   20.6340   18.2425   25.1096 C   0  0  0  0  0  0  0  0  0  0  0  0
   21.5960   17.9102   25.5223 H   0  0  0  0  0  0  0  0  0  0  0  0
   20.0357   17.3320   24.9721 H   0  0  0  0  0  0  0  0  0  0  0  0
   19.9710   19.1707   26.1542 C   0  0  2  0  0  0  0  0  0  0  0  0
   20.5916   20.0663   26.2562 H   0  0  0  0  0  0  0  0  0  0  0  0
   19.9107   18.4716   27.5220 C   0  0  0  0  0  0  0  0  0  0  0  0
   19.2979   17.5627   27.4763 H   0  0  0  0  0  0  0  0  0  0  0  0
   20.9153   18.1897   27.8613 H   0  0  0  0  0  0  0  0  0  0  0  0
   19.4792   19.1371   28.2799 H   0  0  0  0  0  0  0  0  0  0  0  0
   18.6021   19.6411   25.7521 N   0  3  0  0  0  0  0  0  0  0  0  0
   18.6358   20.1636   24.8729 H   0  0  0  0  0  0  0  0  0  0  0  0
   18.1956   20.2579   26.4613 H   0  0  0  0  0  0  0  0  0  0  0  0
   17.9608   18.8539   25.6238 H   0  0  0  0  0  0  0  0  0  0  0  0
  1  2  1  0  0  0  0
  1  3  1  0  0  0  0
  1  4  1  0  0  0  0
  1  5  1  0  0  0  0
  5  6  1  0  0  0  0
  5  7  1  0  0  0  0
  5  8  1  0  0  0  0
  8  9  1  0  0  0  0
  8 10  1  0  0  0  0
  8 11  1  0  0  0  0
 11 12  1  0  0  0  0
 11 13  1  0  0  0  0
 11 14  1  0  0  0  0
 14 15  1  0  0  0  0
 14 16  1  0  0  0  0
 14 17  1  0  0  0  0
 17 18  1  0  0  0  0
 17 19  1  0  0  0  0
 17 20  1  0  0  0  0
 20 21  1  0  0  0  0
 20 22  1  0  0  0  0
 22 23  1  0  0  0  0
 22 24  1  0  0  0  0
 22 25  1  0  0  0  0
 20 26  1  0  0  0  0
 26 27  1  0  0  0  0
 26 28  1  0  0  0  0
 26 29  1  0  0  0  0
M  END
> <VM2 Rank>
72

> <Conf_Id>
1144

> <Probability>
0.13

> <Sum Probability>
98.26

> <Delta G>
2.611

> <G>
36.313

> <E>
-0.878

> <-TS>
37.191

> <U+W>
-25.022

> <U>
27.084

> <W>
-52.106

> <W(PB)>
-54.623

> <W(SA)>
2.517

> <Valence>
5.155

> <Coulomb>
20.852

> <VdW>
1.077

> <VdW6>
-8.818

> <VdW12>
9.895

> <Bond>
0.258

> <Angle>
1.437

> <Pdih>
3.461

> <Idih>
0.000

> <Tether>
0.000

$$$$
VeraChem MOL file


 29 28  0  0  0  0  0  0  0  0999 V2000     
   19.6335   18.9834   19.7667 C   0  0  0  0  0  0  0  0  0  0  0  0
   20.0266   18.0069   20.0758 H   0  0  0  0  0  0  0  0  0  0  0  0
   18.8567   18.8036   19.0123 H   0  0  0  0  0  0  0  0  0  0  0  0
   20.4453   19.5448   19.2864 H   0  0  0  0  0  0  0  0  0  0  0  0
   19.0525   19.7649   20.9665 C   0  0  0  0  0  0  0  0  0  0  0  0
   18.2545   19.1771   21.4392 H   0  0  0  0  0  0  0  0  0  0  0  0
   18.5723   20.6801   20.5932 H   0  0  0  0  0  0  0  0  0  0  0  0
   20.1209   20.1612   22.0169 C   0  0  0  0  0  0  0  0  0  0  0  0
   20.8551   20.8256   21.5410 H   0  0  0  0  0  0  0  0  0  0  0  0
   19.6433   20.7636   22.8008 H   0  0  0  0  0  0  0  0  0  0  0  0
   20.8779   18.9725   22.6677 C   0  0  0  0  0  0  0  0  0  0  0  0
   21.6069   19.3704   23.3861 H   0  0  0  0  0  0  0  0  0  0  0  0
   21.4773   18.4619   21.9024 H   0  0  0  0  0  0  0  0  0  0  0  0
   19.9762   17.9268   23.3766 C   0  0  0  0  0  0  0  0  0  0  0  0
   19.3501   17.4197   22.6306 H   0  0  0  0  0  0  0  0  0  0  0  0
   20.6133   17.1395   23.8006 H   0  0  0  0  0  0  0  0  0  0  0  0
   19.0618   18.5061   24.4891 C   0  0  0  0  0  0  0  0  0  0  0  0
   18.5077   17.6832   24.9595 H   0  0  0  0  0  0  0  0  0  0  0  0
   18.3041   19.1491   24.0238 H   0  0  0  0  0  0  0  0  0  0  0  0
   19.7997   19.3149   25.5813 C   0  0  2  0  0  0  0  0  0  0  0  0
   20.3614   20.1178   25.0947 H   0  0  0  0  0  0  0  0  0  0  0  0
   20.7864   18.4423   26.3772 C   0  0  0  0  0  0  0  0  0  0  0  0
   20.2748   17.5930   26.8468 H   0  0  0  0  0  0  0  0  0  0  0  0
   21.5807   18.0501   25.7316 H   0  0  0  0  0  0  0  0  0  0  0  0
   21.2696   19.0286   27.1683 H   0  0  0  0  0  0  0  0  0  0  0  0
   18.8270   19.9839   26.5120 N   0  3  0  0  0  0  0  0  0  0  0  0
   18.1865   20.6032   26.0071 H   0  0  0  0  0  0  0  0  0  0  0  0
   19.3109   20.5518   27.2134 H   0  0  0  0  0  0  0  0  0  0  0  0
   18.2586   19.2970   27.0148 H   0  0  0  0  0  0  0  0  0  0  0  0
  1  2  1  0  0  0  0
  1  3  1  0  0  0  0
  1  4  1  0  0  0  0
  1  5  1  0  0  0  0
  5  6  1  0  0  0  0
  5  7  1  0  0  0  0
  5  8  1  0  0  0  0
  8  9  1  0  0  0  0
  8 10  1  0  0  0  0
  8 11  1  0  0  0  0
 11 12  1  0  0  0  0
 11 13  1  0  0  0  0
 11 14  1  0  0  0  0
 14 15  1  0  0  0  0
 14 16  1  0  0  0  0
 14 17  1  0  0  0  0
 17 18  1  0  0  0  0
 17 19  1  0  0  0  0
 17 20  1  0  0  0  0
 20 21  1  0  0  0  0
 20 22  1  0  0  0  0
 22 23  1  0  0  0  0
 22 24  1  0  0  0  0
 22 25  1  0  0  0  0
 20 26  1  0  0  0  0
 26 27  1  0  0  0  0
 26 28  1  0  0  0  0
 26 29  1  0  0  0  0
M  END
> <VM2 Rank>
73

> <Conf_Id>
1050

> <Probability>
0.10

> <Sum Probability>
98.36

> <Delta G>
2.766

> <G>
36.468

> <E>
-2.128

> <-TS>
38.595

> <U+W>
-26.272

> <U>
26.596

> <W>
-52.868

> <W(PB)>
-55.271

> <W(SA)>
2.403

> <Valence>
5.291

> <Coulomb>
20.508

> <VdW>
0.797

> <VdW6>
-11.980

> <VdW12>
12.776

> <Bond>
0.357

> <Angle>
2.346

> <Pdih>
2.589

> <Idih>
0.000

> <Tether>
0.000

$$$$
VeraChem MOL file


 29 28  0  0  0  0  0  0  0  0999 V2000     
   18.4972   19.6738   20.3137 C   0  0  0  0  0  0  0  0  0  0  0  0
   17.9288   18.9499   20.9107 H   0  0  0  0  0  0  0  0  0  0  0  0
   17.8174   20.4955   20.0540 H   0  0  0  0  0  0  0  0  0  0  0  0
   18.8046   19.1839   19.3807 H   0  0  0  0  0  0  0  0  0  0  0  0
   19.7224   20.2088   21.0887 C   0  0  0  0  0  0  0  0  0  0  0  0
   19.3922   20.6843   22.0218 H   0  0  0  0  0  0  0  0  0  0  0  0
   20.1958   21.0042   20.4966 H   0  0  0  0  0  0  0  0  0  0  0  0
   20.7825   19.1190   21.3890 C   0  0  0  0  0  0  0  0  0  0  0  0
   21.1715   18.7325   20.4370 H   0  0  0  0  0  0  0  0  0  0  0  0
   21.6419   19.5851   21.8886 H   0  0  0  0  0  0  0  0  0  0  0  0
   20.2774   17.9213   22.2383 C   0  0  0  0  0  0  0  0  0  0  0  0
   21.1180   17.2359   22.4131 H   0  0  0  0  0  0  0  0  0  0  0  0
   19.5470   17.3469   21.6531 H   0  0  0  0  0  0  0  0  0  0  0  0
   19.6421   18.2949   23.6025 C   0  0  0  0  0  0  0  0  0  0  0  0
   18.7408   18.8977   23.4353 H   0  0  0  0  0  0  0  0  0  0  0  0
   19.3028   17.3664   24.0791 H   0  0  0  0  0  0  0  0  0  0  0  0
   20.6191   19.0399   24.5525 C   0  0  0  0  0  0  0  0  0  0  0  0
   20.9453   19.9761   24.0833 H   0  0  0  0  0  0  0  0  0  0  0  0
   21.5261   18.4359   24.6870 H   0  0  0  0  0  0  0  0  0  0  0  0
   20.0378   19.3835   25.9443 C   0  0  2  0  0  0  0  0  0  0  0  0
   20.8053   19.9440   26.4869 H   0  0  0  0  0  0  0  0  0  0  0  0
   19.7158   18.1238   26.7670 C   0  0  0  0  0  0  0  0  0  0  0  0
   18.8790   17.5604   26.3376 H   0  0  0  0  0  0  0  0  0  0  0  0
   20.5872   17.4594   26.8202 H   0  0  0  0  0  0  0  0  0  0  0  0
   19.4428   18.3966   27.7938 H   0  0  0  0  0  0  0  0  0  0  0  0
   18.8418   20.2911   25.8580 N   0  3  0  0  0  0  0  0  0  0  0  0
   19.0616   21.1547   25.3537 H   0  0  0  0  0  0  0  0  0  0  0  0
   18.5063   20.5565   26.7885 H   0  0  0  0  0  0  0  0  0  0  0  0
   18.0663   19.8364   25.3698 H   0  0  0  0  0  0  0  0  0  0  0  0
  1  2  1  0  0  0  0
  1  3  1  0  0  0  0
  1  4  1  0  0  0  0
  1  5  1  0  0  0  0
  5  6  1  0  0  0  0
  5  7  1  0  0  0  0
  5  8  1  0  0  0  0
  8  9  1  0  0  0  0
  8 10  1  0  0  0  0
  8 11  1  0  0  0  0
 11 12  1  0  0  0  0
 11 13  1  0  0  0  0
 11 14  1  0  0  0  0
 14 15  1  0  0  0  0
 14 16  1  0  0  0  0
 14 17  1  0  0  0  0
 17 18  1  0  0  0  0
 17 19  1  0  0  0  0
 17 20  1  0  0  0  0
 20 21  1  0  0  0  0
 20 22  1  0  0  0  0
 22 23  1  0  0  0  0
 22 24  1  0  0  0  0
 22 25  1  0  0  0  0
 20 26  1  0  0  0  0
 26 27  1  0  0  0  0
 26 28  1  0  0  0  0
 26 29  1  0  0  0  0
M  END
> <VM2 Rank>
74

> <Conf_Id>
1510

> <Probability>
0.10

> <Sum Probability>
98.45

> <Delta G>
2.784

> <G>
36.486

> <E>
-1.810

> <-TS>
38.296

> <U+W>
-25.954

> <U>
26.775

> <W>
-52.729

> <W(PB)>
-55.143

> <W(SA)>
2.414

> <Valence>
5.136

> <Coulomb>
20.511

> <VdW>
1.129

> <VdW6>
-11.263

> <VdW12>
12.391

> <Bond>
0.358

> <Angle>
2.222

> <Pdih>
2.556

> <Idih>
0.000

> <Tether>
0.000

$$$$
VeraChem MOL file


 29 28  0  0  0  0  0  0  0  0999 V2000     
   19.4288   19.9562   19.0046 C   0  0  0  0  0  0  0  0  0  0  0  0
   20.3310   20.5744   18.9090 H   0  0  0  0  0  0  0  0  0  0  0  0
   19.6401   18.9725   18.5654 H   0  0  0  0  0  0  0  0  0  0  0  0
   18.6337   20.4264   18.4115 H   0  0  0  0  0  0  0  0  0  0  0  0
   19.0011   19.8239   20.4815 C   0  0  0  0  0  0  0  0  0  0  0  0
   18.0787   19.2294   20.5420 H   0  0  0  0  0  0  0  0  0  0  0  0
   18.7640   20.8192   20.8826 H   0  0  0  0  0  0  0  0  0  0  0  0
   20.1038   19.1643   21.3390 C   0  0  0  0  0  0  0  0  0  0  0  0
   20.3393   18.1718   20.9305 H   0  0  0  0  0  0  0  0  0  0  0  0
   21.0242   19.7612   21.2747 H   0  0  0  0  0  0  0  0  0  0  0  0
   19.6786   19.0282   22.8185 C   0  0  0  0  0  0  0  0  0  0  0  0
   18.7639   18.4224   22.8806 H   0  0  0  0  0  0  0  0  0  0  0  0
   19.4418   20.0264   23.2061 H   0  0  0  0  0  0  0  0  0  0  0  0
   20.7923   18.3816   23.6762 C   0  0  0  0  0  0  0  0  0  0  0  0
   21.1411   17.4697   23.1720 H   0  0  0  0  0  0  0  0  0  0  0  0
   21.6591   19.0556   23.7196 H   0  0  0  0  0  0  0  0  0  0  0  0
   20.3656   17.9954   25.1170 C   0  0  0  0  0  0  0  0  0  0  0  0
   21.2077   17.4529   25.5673 H   0  0  0  0  0  0  0  0  0  0  0  0
   19.5320   17.2813   25.0867 H   0  0  0  0  0  0  0  0  0  0  0  0
   20.0038   19.1906   26.0304 C   0  0  2  0  0  0  0  0  0  0  0  0
   20.7045   20.0060   25.8262 H   0  0  0  0  0  0  0  0  0  0  0  0
   20.1431   18.7952   27.5098 C   0  0  0  0  0  0  0  0  0  0  0  0
   19.9034   19.6434   28.1630 H   0  0  0  0  0  0  0  0  0  0  0  0
   19.4702   17.9666   27.7640 H   0  0  0  0  0  0  0  0  0  0  0  0
   21.1704   18.4835   27.7361 H   0  0  0  0  0  0  0  0  0  0  0  0
   18.6190   19.7206   25.7769 N   0  3  0  0  0  0  0  0  0  0  0  0
   18.4190   20.5379   26.3608 H   0  0  0  0  0  0  0  0  0  0  0  0
   17.9077   19.0146   25.9850 H   0  0  0  0  0  0  0  0  0  0  0  0
   18.4985   20.0007   24.8010 H   0  0  0  0  0  0  0  0  0  0  0  0
  1  2  1  0  0  0  0
  1  3  1  0  0  0  0
  1  4  1  0  0  0  0
  1  5  1  0  0  0  0
  5  6  1  0  0  0  0
  5  7  1  0  0  0  0
  5  8  1  0  0  0  0
  8  9  1  0  0  0  0
  8 10  1  0  0  0  0
  8 11  1  0  0  0  0
 11 12  1  0  0  0  0
 11 13  1  0  0  0  0
 11 14  1  0  0  0  0
 14 15  1  0  0  0  0
 14 16  1  0  0  0  0
 14 17  1  0  0  0  0
 17 18  1  0  0  0  0
 17 19  1  0  0  0  0
 17 20  1  0  0  0  0
 20 21  1  0  0  0  0
 20 22  1  0  0  0  0
 22 23  1  0  0  0  0
 22 24  1  0  0  0  0
 22 25  1  0  0  0  0
 20 26  1  0  0  0  0
 26 27  1  0  0  0  0
 26 28  1  0  0  0  0
 26 29  1  0  0  0  0
M  END
> <VM2 Rank>
75

> <Conf_Id>
648

> <Probability>
0.08

> <Sum Probability>
98.54

> <Delta G>
2.890

> <G>
36.592

> <E>
-0.796

> <-TS>
37.388

> <U+W>
-24.940

> <U>
27.200

> <W>
-52.140

> <W(PB)>
-54.644

> <W(SA)>
2.504

> <Valence>
4.958

> <Coulomb>
21.196

> <VdW>
1.046

> <VdW6>
-9.034

> <VdW12>
10.080

> <Bond>
0.244

> <Angle>
1.596

> <Pdih>
3.118

> <Idih>
0.000

> <Tether>
0.000

$$$$
VeraChem MOL file


 29 28  0  0  0  0  0  0  0  0999 V2000     
   20.6181   20.6592   20.1226 C   0  0  0  0  0  0  0  0  0  0  0  0
   21.6130   20.7123   20.5836 H   0  0  0  0  0  0  0  0  0  0  0  0
   20.7485   20.7049   19.0336 H   0  0  0  0  0  0  0  0  0  0  0  0
   20.0501   21.5464   20.4317 H   0  0  0  0  0  0  0  0  0  0  0  0
   19.8864   19.3628   20.5297 C   0  0  0  0  0  0  0  0  0  0  0  0
   20.4611   18.4939   20.1793 H   0  0  0  0  0  0  0  0  0  0  0  0
   18.9106   19.3221   20.0257 H   0  0  0  0  0  0  0  0  0  0  0  0
   19.6890   19.2747   22.0591 C   0  0  0  0  0  0  0  0  0  0  0  0
   20.6724   19.3245   22.5433 H   0  0  0  0  0  0  0  0  0  0  0  0
   19.1086   20.1417   22.4033 H   0  0  0  0  0  0  0  0  0  0  0  0
   18.9711   17.9684   22.4712 C   0  0  0  0  0  0  0  0  0  0  0  0
   19.6162   17.1098   22.2388 H   0  0  0  0  0  0  0  0  0  0  0  0
   18.0696   17.8473   21.8547 H   0  0  0  0  0  0  0  0  0  0  0  0
   18.5460   17.9065   23.9612 C   0  0  0  0  0  0  0  0  0  0  0  0
   17.8042   18.6876   24.1713 H   0  0  0  0  0  0  0  0  0  0  0  0
   18.0180   16.9547   24.1118 H   0  0  0  0  0  0  0  0  0  0  0  0
   19.7171   17.9681   24.9794 C   0  0  0  0  0  0  0  0  0  0  0  0
   20.5678   17.3977   24.5833 H   0  0  0  0  0  0  0  0  0  0  0  0
   19.4116   17.4518   25.8992 H   0  0  0  0  0  0  0  0  0  0  0  0
   20.1725   19.3976   25.3548 C   0  0  2  0  0  0  0  0  0  0  0  0
   20.4087   19.9471   24.4411 H   0  0  0  0  0  0  0  0  0  0  0  0
   21.4418   19.3418   26.2193 C   0  0  0  0  0  0  0  0  0  0  0  0
   22.2541   18.8322   25.6862 H   0  0  0  0  0  0  0  0  0  0  0  0
   21.7889   20.3529   26.4655 H   0  0  0  0  0  0  0  0  0  0  0  0
   21.2595   18.8047   27.1586 H   0  0  0  0  0  0  0  0  0  0  0  0
   19.0940   20.1769   26.0567 N   0  3  0  0  0  0  0  0  0  0  0  0
   18.2546   20.2599   25.4771 H   0  0  0  0  0  0  0  0  0  0  0  0
   19.4053   21.1256   26.2840 H   0  0  0  0  0  0  0  0  0  0  0  0
   18.8196   19.7263   26.9338 H   0  0  0  0  0  0  0  0  0  0  0  0
  1  2  1  0  0  0  0
  1  3  1  0  0  0  0
  1  4  1  0  0  0  0
  1  5  1  0  0  0  0
  5  6  1  0  0  0  0
  5  7  1  0  0  0  0
  5  8  1  0  0  0  0
  8  9  1  0  0  0  0
  8 10  1  0  0  0  0
  8 11  1  0  0  0  0
 11 12  1  0  0  0  0
 11 13  1  0  0  0  0
 11 14  1  0  0  0  0
 14 15  1  0  0  0  0
 14 16  1  0  0  0  0
 14 17  1  0  0  0  0
 17 18  1  0  0  0  0
 17 19  1  0  0  0  0
 17 20  1  0  0  0  0
 20 21  1  0  0  0  0
 20 22  1  0  0  0  0
 22 23  1  0  0  0  0
 22 24  1  0  0  0  0
 22 25  1  0  0  0  0
 20 26  1  0  0  0  0
 26 27  1  0  0  0  0
 26 28  1  0  0  0  0
 26 29  1  0  0  0  0
M  END
> <VM2 Rank>
76

> <Conf_Id>
1170

> <Probability>
0.06

> <Sum Probability>
98.60

> <Delta G>
3.025

> <G>
36.728

> <E>
-0.999

> <-TS>
37.726

> <U+W>
-25.143

> <U>
27.273

> <W>
-52.416

> <W(PB)>
-54.885

> <W(SA)>
2.468

> <Valence>
5.665

> <Coulomb>
20.783

> <VdW>
0.825

> <VdW6>
-9.945

> <VdW12>
10.770

> <Bond>
0.273

> <Angle>
1.789

> <Pdih>
3.603

> <Idih>
0.000

> <Tether>
0.000

$$$$
VeraChem MOL file


 29 28  0  0  0  0  0  0  0  0999 V2000     
   20.1759   19.5823   18.9581 C   0  0  0  0  0  0  0  0  0  0  0  0
   20.9970   19.3529   18.2665 H   0  0  0  0  0  0  0  0  0  0  0  0
   19.2695   19.0917   18.5798 H   0  0  0  0  0  0  0  0  0  0  0  0
   20.0113   20.6675   18.9378 H   0  0  0  0  0  0  0  0  0  0  0  0
   20.5137   19.0993   20.3844 C   0  0  0  0  0  0  0  0  0  0  0  0
   21.4421   19.5810   20.7220 H   0  0  0  0  0  0  0  0  0  0  0  0
   20.7059   18.0173   20.3669 H   0  0  0  0  0  0  0  0  0  0  0  0
   19.3732   19.4104   21.3786 C   0  0  0  0  0  0  0  0  0  0  0  0
   19.1834   20.4926   21.3915 H   0  0  0  0  0  0  0  0  0  0  0  0
   18.4471   18.9292   21.0350 H   0  0  0  0  0  0  0  0  0  0  0  0
   19.7080   18.9275   22.8078 C   0  0  0  0  0  0  0  0  0  0  0  0
   20.6370   19.4103   23.1386 H   0  0  0  0  0  0  0  0  0  0  0  0
   19.8918   17.8443   22.7942 H   0  0  0  0  0  0  0  0  0  0  0  0
   18.5683   19.2472   23.8031 C   0  0  0  0  0  0  0  0  0  0  0  0
   18.4334   20.3358   23.8670 H   0  0  0  0  0  0  0  0  0  0  0  0
   17.6252   18.8435   23.4095 H   0  0  0  0  0  0  0  0  0  0  0  0
   18.7892   18.6735   25.2259 C   0  0  0  0  0  0  0  0  0  0  0  0
   18.8379   17.5771   25.1874 H   0  0  0  0  0  0  0  0  0  0  0  0
   17.8934   18.9087   25.8159 H   0  0  0  0  0  0  0  0  0  0  0  0
   20.0350   19.2456   25.9450 C   0  0  2  0  0  0  0  0  0  0  0  0
   20.3126   20.1833   25.4540 H   0  0  0  0  0  0  0  0  0  0  0  0
   21.2290   18.2762   25.8722 C   0  0  0  0  0  0  0  0  0  0  0  0
   21.0090   17.3389   26.3985 H   0  0  0  0  0  0  0  0  0  0  0  0
   21.4845   18.0282   24.8363 H   0  0  0  0  0  0  0  0  0  0  0  0
   22.1179   18.7234   26.3341 H   0  0  0  0  0  0  0  0  0  0  0  0
   19.7436   19.5940   27.3789 N   0  3  0  0  0  0  0  0  0  0  0  0
   18.9827   20.2756   27.4535 H   0  0  0  0  0  0  0  0  0  0  0  0
   20.5631   20.0009   27.8388 H   0  0  0  0  0  0  0  0  0  0  0  0
   19.4706   18.7669   27.9168 H   0  0  0  0  0  0  0  0  0  0  0  0
  1  2  1  0  0  0  0
  1  3  1  0  0  0  0
  1  4  1  0  0  0  0
  1  5  1  0  0  0  0
  5  6  1  0  0  0  0
  5  7  1  0  0  0  0
  5  8  1  0  0  0  0
  8  9  1  0  0  0  0
  8 10  1  0  0  0  0
  8 11  1  0  0  0  0
 11 12  1  0  0  0  0
 11 13  1  0  0  0  0
 11 14  1  0  0  0  0
 14 15  1  0  0  0  0
 14 16  1  0  0  0  0
 14 17  1  0  0  0  0
 17 18  1  0  0  0  0
 17 19  1  0  0  0  0
 17 20  1  0  0  0  0
 20 21  1  0  0  0  0
 20 22  1  0  0  0  0
 22 23  1  0  0  0  0
 22 24  1  0  0  0  0
 22 25  1  0  0  0  0
 20 26  1  0  0  0  0
 26 27  1  0  0  0  0
 26 28  1  0  0  0  0
 26 29  1  0  0  0  0
M  END
> <VM2 Rank>
77

> <Conf_Id>
1298

> <Probability>
0.05

> <Sum Probability>
98.65

> <Delta G>
3.183

> <G>
36.885

> <E>
-0.654

> <-TS>
37.539

> <U+W>
-24.798

> <U>
27.225

> <W>
-52.023

> <W(PB)>
-54.531

> <W(SA)>
2.508

> <Valence>
6.290

> <Coulomb>
19.804

> <VdW>
1.131

> <VdW6>
-9.035

> <VdW12>
10.166

> <Bond>
0.225

> <Angle>
1.384

> <Pdih>
4.682

> <Idih>
0.000

> <Tether>
0.000

$$$$
VeraChem MOL file


 29 28  0  0  0  0  0  0  0  0999 V2000     
   20.3031   19.1875   18.9159 C   0  0  0  0  0  0  0  0  0  0  0  0
   21.3428   19.5301   18.9988 H   0  0  0  0  0  0  0  0  0  0  0  0
   20.2597   18.4311   18.1215 H   0  0  0  0  0  0  0  0  0  0  0  0
   19.6860   20.0401   18.6035 H   0  0  0  0  0  0  0  0  0  0  0  0
   19.8037   18.6022   20.2537 C   0  0  0  0  0  0  0  0  0  0  0  0
   20.4183   17.7316   20.5226 H   0  0  0  0  0  0  0  0  0  0  0  0
   18.7742   18.2377   20.1305 H   0  0  0  0  0  0  0  0  0  0  0  0
   19.8544   19.6476   21.3897 C   0  0  0  0  0  0  0  0  0  0  0  0
   20.8849   20.0104   21.5073 H   0  0  0  0  0  0  0  0  0  0  0  0
   19.2407   20.5167   21.1152 H   0  0  0  0  0  0  0  0  0  0  0  0
   19.3558   19.0650   22.7312 C   0  0  0  0  0  0  0  0  0  0  0  0
   19.9635   18.1909   22.9939 H   0  0  0  0  0  0  0  0  0  0  0  0
   18.3250   18.7042   22.6105 H   0  0  0  0  0  0  0  0  0  0  0  0
   19.4005   20.1178   23.8658 C   0  0  0  0  0  0  0  0  0  0  0  0
   20.4102   20.5415   23.9583 H   0  0  0  0  0  0  0  0  0  0  0  0
   18.7466   20.9540   23.5815 H   0  0  0  0  0  0  0  0  0  0  0  0
   18.9263   19.5672   25.2369 C   0  0  0  0  0  0  0  0  0  0  0  0
   18.2156   18.7428   25.0916 H   0  0  0  0  0  0  0  0  0  0  0  0
   18.3612   20.3632   25.7397 H   0  0  0  0  0  0  0  0  0  0  0  0
   20.0636   19.1308   26.1916 C   0  0  2  0  0  0  0  0  0  0  0  0
   20.7219   19.9902   26.3516 H   0  0  0  0  0  0  0  0  0  0  0  0
   20.9098   17.9778   25.6262 C   0  0  0  0  0  0  0  0  0  0  0  0
   21.6494   17.6427   26.3637 H   0  0  0  0  0  0  0  0  0  0  0  0
   20.2827   17.1186   25.3578 H   0  0  0  0  0  0  0  0  0  0  0  0
   21.4647   18.2972   24.7365 H   0  0  0  0  0  0  0  0  0  0  0  0
   19.5189   18.7600   27.5431 N   0  3  0  0  0  0  0  0  0  0  0  0
   18.9911   19.5314   27.9617 H   0  0  0  0  0  0  0  0  0  0  0  0
   20.2701   18.5160   28.1949 H   0  0  0  0  0  0  0  0  0  0  0  0
   18.8912   17.9536   27.4846 H   0  0  0  0  0  0  0  0  0  0  0  0
  1  2  1  0  0  0  0
  1  3  1  0  0  0  0
  1  4  1  0  0  0  0
  1  5  1  0  0  0  0
  5  6  1  0  0  0  0
  5  7  1  0  0  0  0
  5  8  1  0  0  0  0
  8  9  1  0  0  0  0
  8 10  1  0  0  0  0
  8 11  1  0  0  0  0
 11 12  1  0  0  0  0
 11 13  1  0  0  0  0
 11 14  1  0  0  0  0
 14 15  1  0  0  0  0
 14 16  1  0  0  0  0
 14 17  1  0  0  0  0
 17 18  1  0  0  0  0
 17 19  1  0  0  0  0
 17 20  1  0  0  0  0
 20 21  1  0  0  0  0
 20 22  1  0  0  0  0
 22 23  1  0  0  0  0
 22 24  1  0  0  0  0
 22 25  1  0  0  0  0
 20 26  1  0  0  0  0
 26 27  1  0  0  0  0
 26 28  1  0  0  0  0
 26 29  1  0  0  0  0
M  END
> <VM2 Rank>
78

> <Conf_Id>
1630

> <Probability>
0.05

> <Sum Probability>
98.70

> <Delta G>
3.192

> <G>
36.894

> <E>
-0.782

> <-TS>
37.676

> <U+W>
-24.926

> <U>
27.070

> <W>
-51.997

> <W(PB)>
-54.496

> <W(SA)>
2.499

> <Valence>
6.259

> <Coulomb>
19.668

> <VdW>
1.143

> <VdW6>
-9.082

> <VdW12>
10.225

> <Bond>
0.251

> <Angle>
1.657

> <Pdih>
4.351

> <Idih>
0.000

> <Tether>
0.000

$$$$
VeraChem MOL file


 29 28  0  0  0  0  0  0  0  0999 V2000     
   19.1962   19.1627   19.1306 C   0  0  0  0  0  0  0  0  0  0  0  0
   20.0756   19.6997   18.7517 H   0  0  0  0  0  0  0  0  0  0  0  0
   19.3684   18.0868   18.9962 H   0  0  0  0  0  0  0  0  0  0  0  0
   18.3354   19.4463   18.5112 H   0  0  0  0  0  0  0  0  0  0  0  0
   18.9358   19.5018   20.6135 C   0  0  0  0  0  0  0  0  0  0  0  0
   18.0320   18.9772   20.9537 H   0  0  0  0  0  0  0  0  0  0  0  0
   18.7341   20.5777   20.7114 H   0  0  0  0  0  0  0  0  0  0  0  0
   20.1336   19.1123   21.5077 C   0  0  0  0  0  0  0  0  0  0  0  0
   20.3325   18.0364   21.4056 H   0  0  0  0  0  0  0  0  0  0  0  0
   21.0346   19.6366   21.1604 H   0  0  0  0  0  0  0  0  0  0  0  0
   19.8772   19.4515   22.9933 C   0  0  0  0  0  0  0  0  0  0  0  0
   18.9719   18.9264   23.3208 H   0  0  0  0  0  0  0  0  0  0  0  0
   19.6884   20.5292   23.0943 H   0  0  0  0  0  0  0  0  0  0  0  0
   21.0731   19.0464   23.8874 C   0  0  0  0  0  0  0  0  0  0  0  0
   21.1998   17.9557   23.8634 H   0  0  0  0  0  0  0  0  0  0  0  0
   21.9926   19.4610   23.4517 H   0  0  0  0  0  0  0  0  0  0  0  0
   20.9821   19.5407   25.3587 C   0  0  0  0  0  0  0  0  0  0  0  0
   20.9817   20.6385   25.3728 H   0  0  0  0  0  0  0  0  0  0  0  0
   21.9086   19.2440   25.8677 H   0  0  0  0  0  0  0  0  0  0  0  0
   19.7953   19.0267   26.2131 C   0  0  2  0  0  0  0  0  0  0  0  0
   20.0166   19.2915   27.2517 H   0  0  0  0  0  0  0  0  0  0  0  0
   19.6456   17.4967   26.1523 C   0  0  0  0  0  0  0  0  0  0  0  0
   18.8951   17.1552   26.8756 H   0  0  0  0  0  0  0  0  0  0  0  0
   19.3306   17.1597   25.1575 H   0  0  0  0  0  0  0  0  0  0  0  0
   20.5941   17.0035   26.3986 H   0  0  0  0  0  0  0  0  0  0  0  0
   18.4970   19.7171   25.8975 N   0  3  0  0  0  0  0  0  0  0  0  0
   18.2042   19.5356   24.9354 H   0  0  0  0  0  0  0  0  0  0  0  0
   18.5760   20.7319   26.0104 H   0  0  0  0  0  0  0  0  0  0  0  0
   17.7451   19.3986   26.5156 H   0  0  0  0  0  0  0  0  0  0  0  0
  1  2  1  0  0  0  0
  1  3  1  0  0  0  0
  1  4  1  0  0  0  0
  1  5  1  0  0  0  0
  5  6  1  0  0  0  0
  5  7  1  0  0  0  0
  5  8  1  0  0  0  0
  8  9  1  0  0  0  0
  8 10  1  0  0  0  0
  8 11  1  0  0  0  0
 11 12  1  0  0  0  0
 11 13  1  0  0  0  0
 11 14  1  0  0  0  0
 14 15  1  0  0  0  0
 14 16  1  0  0  0  0
 14 17  1  0  0  0  0
 17 18  1  0  0  0  0
 17 19  1  0  0  0  0
 17 20  1  0  0  0  0
 20 21  1  0  0  0  0
 20 22  1  0  0  0  0
 22 23  1  0  0  0  0
 22 24  1  0  0  0  0
 22 25  1  0  0  0  0
 20 26  1  0  0  0  0
 26 27  1  0  0  0  0
 26 28  1  0  0  0  0
 26 29  1  0  0  0  0
M  END
> <VM2 Rank>
79

> <Conf_Id>
990

> <Probability>
0.05

> <Sum Probability>
98.74

> <Delta G>
3.231

> <G>
36.933

> <E>
-1.035

> <-TS>
37.968

> <U+W>
-25.180

> <U>
27.314

> <W>
-52.494

> <W(PB)>
-54.964

> <W(SA)>
2.469

> <Valence>
5.056

> <Coulomb>
21.358

> <VdW>
0.900

> <VdW6>
-10.072

> <VdW12>
10.972

> <Bond>
0.294

> <Angle>
2.163

> <Pdih>
2.600

> <Idih>
0.000

> <Tether>
0.000

$$$$
VeraChem MOL file


 29 28  0  0  0  0  0  0  0  0999 V2000     
   20.7632   20.3649   20.5803 C   0  0  0  0  0  0  0  0  0  0  0  0
   21.4111   19.9402   21.3568 H   0  0  0  0  0  0  0  0  0  0  0  0
   21.4137   20.7342   19.7770 H   0  0  0  0  0  0  0  0  0  0  0  0
   20.2281   21.2256   21.0019 H   0  0  0  0  0  0  0  0  0  0  0  0
   19.7777   19.3092   20.0338 C   0  0  0  0  0  0  0  0  0  0  0  0
   20.3405   18.4337   19.6811 H   0  0  0  0  0  0  0  0  0  0  0  0
   19.2734   19.7230   19.1493 H   0  0  0  0  0  0  0  0  0  0  0  0
   18.6970   18.8576   21.0490 C   0  0  0  0  0  0  0  0  0  0  0  0
   18.0622   19.7096   21.3286 H   0  0  0  0  0  0  0  0  0  0  0  0
   18.0330   18.1513   20.5317 H   0  0  0  0  0  0  0  0  0  0  0  0
   19.2506   18.1584   22.3179 C   0  0  0  0  0  0  0  0  0  0  0  0
   20.1960   17.6497   22.0844 H   0  0  0  0  0  0  0  0  0  0  0  0
   18.5462   17.3689   22.6145 H   0  0  0  0  0  0  0  0  0  0  0  0
   19.4334   19.1172   23.5198 C   0  0  0  0  0  0  0  0  0  0  0  0
   20.1084   19.9392   23.2536 H   0  0  0  0  0  0  0  0  0  0  0  0
   18.4642   19.5721   23.7632 H   0  0  0  0  0  0  0  0  0  0  0  0
   19.9944   18.3787   24.7592 C   0  0  0  0  0  0  0  0  0  0  0  0
   20.9351   17.8847   24.4814 H   0  0  0  0  0  0  0  0  0  0  0  0
   19.3008   17.5837   25.0641 H   0  0  0  0  0  0  0  0  0  0  0  0
   20.2612   19.3213   25.9525 C   0  0  2  0  0  0  0  0  0  0  0  0
   20.9338   20.1169   25.6174 H   0  0  0  0  0  0  0  0  0  0  0  0
   20.9494   18.5565   27.0943 C   0  0  0  0  0  0  0  0  0  0  0  0
   20.3127   17.7452   27.4690 H   0  0  0  0  0  0  0  0  0  0  0  0
   21.8964   18.1185   26.7549 H   0  0  0  0  0  0  0  0  0  0  0  0
   21.1749   19.2286   27.9314 H   0  0  0  0  0  0  0  0  0  0  0  0
   19.0091   19.9922   26.4473 N   0  3  0  0  0  0  0  0  0  0  0  0
   18.5628   20.5421   25.7083 H   0  0  0  0  0  0  0  0  0  0  0  0
   19.2077   20.6280   27.2251 H   0  0  0  0  0  0  0  0  0  0  0  0
   18.3249   19.3068   26.7783 H   0  0  0  0  0  0  0  0  0  0  0  0
  1  2  1  0  0  0  0
  1  3  1  0  0  0  0
  1  4  1  0  0  0  0
  1  5  1  0  0  0  0
  5  6  1  0  0  0  0
  5  7  1  0  0  0  0
  5  8  1  0  0  0  0
  8  9  1  0  0  0  0
  8 10  1  0  0  0  0
  8 11  1  0  0  0  0
 11 12  1  0  0  0  0
 11 13  1  0  0  0  0
 11 14  1  0  0  0  0
 14 15  1  0  0  0  0
 14 16  1  0  0  0  0
 14 17  1  0  0  0  0
 17 18  1  0  0  0  0
 17 19  1  0  0  0  0
 17 20  1  0  0  0  0
 20 21  1  0  0  0  0
 20 22  1  0  0  0  0
 22 23  1  0  0  0  0
 22 24  1  0  0  0  0
 22 25  1  0  0  0  0
 20 26  1  0  0  0  0
 26 27  1  0  0  0  0
 26 28  1  0  0  0  0
 26 29  1  0  0  0  0
M  END
> <VM2 Rank>
80

> <Conf_Id>
841

> <Probability>
0.04

> <Sum Probability>
98.79

> <Delta G>
3.252

> <G>
36.954

> <E>
-0.782

> <-TS>
37.736

> <U+W>
-24.926

> <U>
27.363

> <W>
-52.289

> <W(PB)>
-54.777

> <W(SA)>
2.488

> <Valence>
6.134

> <Coulomb>
20.079

> <VdW>
1.150

> <VdW6>
-9.534

> <VdW12>
10.684

> <Bond>
0.272

> <Angle>
1.638

> <Pdih>
4.224

> <Idih>
0.000

> <Tether>
0.000

$$$$
VeraChem MOL file


 29 28  0  0  0  0  0  0  0  0999 V2000     
   18.6805   18.8396   19.7186 C   0  0  0  0  0  0  0  0  0  0  0  0
   17.9831   19.1063   18.9140 H   0  0  0  0  0  0  0  0  0  0  0  0
   19.4346   18.1616   19.2984 H   0  0  0  0  0  0  0  0  0  0  0  0
   18.1113   18.2921   20.4800 H   0  0  0  0  0  0  0  0  0  0  0  0
   19.3396   20.1083   20.3056 C   0  0  0  0  0  0  0  0  0  0  0  0
   18.5682   20.7551   20.7464 H   0  0  0  0  0  0  0  0  0  0  0  0
   19.7915   20.6840   19.4857 H   0  0  0  0  0  0  0  0  0  0  0  0
   20.4320   19.8030   21.3586 C   0  0  0  0  0  0  0  0  0  0  0  0
   21.2133   19.1777   20.9051 H   0  0  0  0  0  0  0  0  0  0  0  0
   20.9173   20.7475   21.6411 H   0  0  0  0  0  0  0  0  0  0  0  0
   19.8857   19.1148   22.6324 C   0  0  0  0  0  0  0  0  0  0  0  0
   19.4686   18.1331   22.3722 H   0  0  0  0  0  0  0  0  0  0  0  0
   19.0608   19.7136   23.0328 H   0  0  0  0  0  0  0  0  0  0  0  0
   20.9946   18.9256   23.6970 C   0  0  0  0  0  0  0  0  0  0  0  0
   21.8106   18.3503   23.2378 H   0  0  0  0  0  0  0  0  0  0  0  0
   21.4280   19.8960   23.9760 H   0  0  0  0  0  0  0  0  0  0  0  0
   20.5288   18.1688   24.9690 C   0  0  0  0  0  0  0  0  0  0  0  0
   21.4066   17.6642   25.3943 H   0  0  0  0  0  0  0  0  0  0  0  0
   19.8237   17.3706   24.7018 H   0  0  0  0  0  0  0  0  0  0  0  0
   19.9276   19.0726   26.0710 C   0  0  2  0  0  0  0  0  0  0  0  0
   20.6538   19.8584   26.3005 H   0  0  0  0  0  0  0  0  0  0  0  0
   19.6841   18.2568   27.3510 C   0  0  0  0  0  0  0  0  0  0  0  0
   20.6174   17.8056   27.7103 H   0  0  0  0  0  0  0  0  0  0  0  0
   19.2955   18.8976   28.1521 H   0  0  0  0  0  0  0  0  0  0  0  0
   18.9601   17.4511   27.1762 H   0  0  0  0  0  0  0  0  0  0  0  0
   18.6632   19.7665   25.6509 N   0  3  0  0  0  0  0  0  0  0  0  0
   18.2960   20.3602   26.4001 H   0  0  0  0  0  0  0  0  0  0  0  0
   17.9329   19.0929   25.4052 H   0  0  0  0  0  0  0  0  0  0  0  0
   18.8245   20.3640   24.8360 H   0  0  0  0  0  0  0  0  0  0  0  0
  1  2  1  0  0  0  0
  1  3  1  0  0  0  0
  1  4  1  0  0  0  0
  1  5  1  0  0  0  0
  5  6  1  0  0  0  0
  5  7  1  0  0  0  0
  5  8  1  0  0  0  0
  8  9  1  0  0  0  0
  8 10  1  0  0  0  0
  8 11  1  0  0  0  0
 11 12  1  0  0  0  0
 11 13  1  0  0  0  0
 11 14  1  0  0  0  0
 14 15  1  0  0  0  0
 14 16  1  0  0  0  0
 14 17  1  0  0  0  0
 17 18  1  0  0  0  0
 17 19  1  0  0  0  0
 17 20  1  0  0  0  0
 20 21  1  0  0  0  0
 20 22  1  0  0  0  0
 22 23  1  0  0  0  0
 22 24  1  0  0  0  0
 22 25  1  0  0  0  0
 20 26  1  0  0  0  0
 26 27  1  0  0  0  0
 26 28  1  0  0  0  0
 26 29  1  0  0  0  0
M  END
> <VM2 Rank>
81

> <Conf_Id>
329

> <Probability>
0.04

> <Sum Probability>
98.83

> <Delta G>
3.255

> <G>
36.957

> <E>
-0.312

> <-TS>
37.269

> <U+W>
-24.456

> <U>
27.677

> <W>
-52.133

> <W(PB)>
-54.613

> <W(SA)>
2.480

> <Valence>
5.648

> <Coulomb>
20.829

> <VdW>
1.200

> <VdW6>
-9.462

> <VdW12>
10.662

> <Bond>
0.293

> <Angle>
1.687

> <Pdih>
3.668

> <Idih>
0.000

> <Tether>
0.000

$$$$
VeraChem MOL file


 29 28  0  0  0  0  0  0  0  0999 V2000     
   18.4961   18.4797   19.9648 C   0  0  0  0  0  0  0  0  0  0  0  0
   18.3587   17.4468   19.6197 H   0  0  0  0  0  0  0  0  0  0  0  0
   17.5635   18.8010   20.4469 H   0  0  0  0  0  0  0  0  0  0  0  0
   18.6597   19.1112   19.0818 H   0  0  0  0  0  0  0  0  0  0  0  0
   19.6862   18.5739   20.9427 C   0  0  0  0  0  0  0  0  0  0  0  0
   20.5956   18.2141   20.4414 H   0  0  0  0  0  0  0  0  0  0  0  0
   19.5093   17.8991   21.7886 H   0  0  0  0  0  0  0  0  0  0  0  0
   19.9059   20.0248   21.4347 C   0  0  0  0  0  0  0  0  0  0  0  0
   20.1071   20.6550   20.5574 H   0  0  0  0  0  0  0  0  0  0  0  0
   18.9857   20.4200   21.8865 H   0  0  0  0  0  0  0  0  0  0  0  0
   21.0913   20.1704   22.4243 C   0  0  0  0  0  0  0  0  0  0  0  0
   21.5793   21.1361   22.2327 H   0  0  0  0  0  0  0  0  0  0  0  0
   21.8554   19.4079   22.2195 H   0  0  0  0  0  0  0  0  0  0  0  0
   20.6930   20.1394   23.9224 C   0  0  0  0  0  0  0  0  0  0  0  0
   21.5949   20.3247   24.5222 H   0  0  0  0  0  0  0  0  0  0  0  0
   20.0097   20.9743   24.1277 H   0  0  0  0  0  0  0  0  0  0  0  0
   20.0492   18.8080   24.3819 C   0  0  0  0  0  0  0  0  0  0  0  0
   20.6801   17.9733   24.0486 H   0  0  0  0  0  0  0  0  0  0  0  0
   19.0698   18.6821   23.9034 H   0  0  0  0  0  0  0  0  0  0  0  0
   19.8785   18.7225   25.9137 C   0  0  2  0  0  0  0  0  0  0  0  0
   20.8594   18.8674   26.3768 H   0  0  0  0  0  0  0  0  0  0  0  0
   19.3547   17.3347   26.3163 C   0  0  0  0  0  0  0  0  0  0  0  0
   18.3679   17.1402   25.8778 H   0  0  0  0  0  0  0  0  0  0  0  0
   20.0397   16.5467   25.9791 H   0  0  0  0  0  0  0  0  0  0  0  0
   19.2663   17.2544   27.4067 H   0  0  0  0  0  0  0  0  0  0  0  0
   18.9812   19.8026   26.4531 N   0  3  0  0  0  0  0  0  0  0  0  0
   18.0376   19.7329   26.0629 H   0  0  0  0  0  0  0  0  0  0  0  0
   19.3410   20.7338   26.2272 H   0  0  0  0  0  0  0  0  0  0  0  0
   18.8972   19.7450   27.4720 H   0  0  0  0  0  0  0  0  0  0  0  0
  1  2  1  0  0  0  0
  1  3  1  0  0  0  0
  1  4  1  0  0  0  0
  1  5  1  0  0  0  0
  5  6  1  0  0  0  0
  5  7  1  0  0  0  0
  5  8  1  0  0  0  0
  8  9  1  0  0  0  0
  8 10  1  0  0  0  0
  8 11  1  0  0  0  0
 11 12  1  0  0  0  0
 11 13  1  0  0  0  0
 11 14  1  0  0  0  0
 14 15  1  0  0  0  0
 14 16  1  0  0  0  0
 14 17  1  0  0  0  0
 17 18  1  0  0  0  0
 17 19  1  0  0  0  0
 17 20  1  0  0  0  0
 20 21  1  0  0  0  0
 20 22  1  0  0  0  0
 22 23  1  0  0  0  0
 22 24  1  0  0  0  0
 22 25  1  0  0  0  0
 20 26  1  0  0  0  0
 26 27  1  0  0  0  0
 26 28  1  0  0  0  0
 26 29  1  0  0  0  0
M  END
> <VM2 Rank>
82

> <Conf_Id>
952

> <Probability>
0.04

> <Sum Probability>
98.87

> <Delta G>
3.310

> <G>
37.012

> <E>
-0.765

> <-TS>
37.778

> <U+W>
-24.910

> <U>
27.426

> <W>
-52.336

> <W(PB)>
-54.830

> <W(SA)>
2.495

> <Valence>
6.169

> <Coulomb>
20.212

> <VdW>
1.045

> <VdW6>
-9.697

> <VdW12>
10.741

> <Bond>
0.273

> <Angle>
1.616

> <Pdih>
4.280

> <Idih>
0.000

> <Tether>
0.000

$$$$
VeraChem MOL file


 29 28  0  0  0  0  0  0  0  0999 V2000     
   19.7815   20.8983   20.5895 C   0  0  0  0  0  0  0  0  0  0  0  0
   18.7837   21.1345   20.1974 H   0  0  0  0  0  0  0  0  0  0  0  0
   19.7866   21.1305   21.6600 H   0  0  0  0  0  0  0  0  0  0  0  0
   20.4987   21.5700   20.1005 H   0  0  0  0  0  0  0  0  0  0  0  0
   20.1478   19.4217   20.3115 C   0  0  0  0  0  0  0  0  0  0  0  0
   21.1735   19.2129   20.6460 H   0  0  0  0  0  0  0  0  0  0  0  0
   20.1489   19.2731   19.2226 H   0  0  0  0  0  0  0  0  0  0  0  0
   19.1577   18.4113   20.9461 C   0  0  0  0  0  0  0  0  0  0  0  0
   18.1536   18.8528   21.0110 H   0  0  0  0  0  0  0  0  0  0  0  0
   19.0603   17.5549   20.2646 H   0  0  0  0  0  0  0  0  0  0  0  0
   19.5877   17.8586   22.3294 C   0  0  0  0  0  0  0  0  0  0  0  0
   20.5437   17.3265   22.2280 H   0  0  0  0  0  0  0  0  0  0  0  0
   18.8508   17.1061   22.6424 H   0  0  0  0  0  0  0  0  0  0  0  0
   19.7111   18.9321   23.4352 C   0  0  0  0  0  0  0  0  0  0  0  0
   20.5378   19.6132   23.1954 H   0  0  0  0  0  0  0  0  0  0  0  0
   18.7906   19.5301   23.4617 H   0  0  0  0  0  0  0  0  0  0  0  0
   19.9716   18.2973   24.8228 C   0  0  0  0  0  0  0  0  0  0  0  0
   20.8608   17.6559   24.7578 H   0  0  0  0  0  0  0  0  0  0  0  0
   19.1327   17.6437   25.0965 H   0  0  0  0  0  0  0  0  0  0  0  0
   20.1949   19.3473   25.9324 C   0  0  2  0  0  0  0  0  0  0  0  0
   21.0182   20.0001   25.6263 H   0  0  0  0  0  0  0  0  0  0  0  0
   20.5888   18.6585   27.2487 C   0  0  0  0  0  0  0  0  0  0  0  0
   19.7925   17.9911   27.6013 H   0  0  0  0  0  0  0  0  0  0  0  0
   21.5013   18.0632   27.1192 H   0  0  0  0  0  0  0  0  0  0  0  0
   20.7845   19.4010   28.0321 H   0  0  0  0  0  0  0  0  0  0  0  0
   18.9950   20.2309   26.1384 N   0  3  0  0  0  0  0  0  0  0  0  0
   18.7467   20.7301   25.2801 H   0  0  0  0  0  0  0  0  0  0  0  0
   19.1679   20.9335   26.8630 H   0  0  0  0  0  0  0  0  0  0  0  0
   18.1772   19.6873   26.4272 H   0  0  0  0  0  0  0  0  0  0  0  0
  1  2  1  0  0  0  0
  1  3  1  0  0  0  0
  1  4  1  0  0  0  0
  1  5  1  0  0  0  0
  5  6  1  0  0  0  0
  5  7  1  0  0  0  0
  5  8  1  0  0  0  0
  8  9  1  0  0  0  0
  8 10  1  0  0  0  0
  8 11  1  0  0  0  0
 11 12  1  0  0  0  0
 11 13  1  0  0  0  0
 11 14  1  0  0  0  0
 14 15  1  0  0  0  0
 14 16  1  0  0  0  0
 14 17  1  0  0  0  0
 17 18  1  0  0  0  0
 17 19  1  0  0  0  0
 17 20  1  0  0  0  0
 20 21  1  0  0  0  0
 20 22  1  0  0  0  0
 22 23  1  0  0  0  0
 22 24  1  0  0  0  0
 22 25  1  0  0  0  0
 20 26  1  0  0  0  0
 26 27  1  0  0  0  0
 26 28  1  0  0  0  0
 26 29  1  0  0  0  0
M  END
> <VM2 Rank>
83

> <Conf_Id>
1289

> <Probability>
0.04

> <Sum Probability>
98.91

> <Delta G>
3.371

> <G>
37.073

> <E>
-0.655

> <-TS>
37.728

> <U+W>
-24.799

> <U>
27.547

> <W>
-52.347

> <W(PB)>
-54.805

> <W(SA)>
2.459

> <Valence>
6.159

> <Coulomb>
20.244

> <VdW>
1.144

> <VdW6>
-9.544

> <VdW12>
10.689

> <Bond>
0.271

> <Angle>
1.675

> <Pdih>
4.213

> <Idih>
0.000

> <Tether>
0.000

$$$$
VeraChem MOL file


 29 28  0  0  0  0  0  0  0  0999 V2000     
   21.0713   19.4453   19.7785 C   0  0  0  0  0  0  0  0  0  0  0  0
   21.0172   20.5293   19.6134 H   0  0  0  0  0  0  0  0  0  0  0  0
   22.1293   19.1532   19.7570 H   0  0  0  0  0  0  0  0  0  0  0  0
   20.5672   18.9461   18.9408 H   0  0  0  0  0  0  0  0  0  0  0  0
   20.4263   19.0571   21.1258 C   0  0  0  0  0  0  0  0  0  0  0  0
   20.9814   19.5456   21.9374 H   0  0  0  0  0  0  0  0  0  0  0  0
   20.5192   17.9723   21.2749 H   0  0  0  0  0  0  0  0  0  0  0  0
   18.9373   19.4680   21.1842 C   0  0  0  0  0  0  0  0  0  0  0  0
   18.8580   20.5616   21.1141 H   0  0  0  0  0  0  0  0  0  0  0  0
   18.4222   19.0676   20.3002 H   0  0  0  0  0  0  0  0  0  0  0  0
   18.1853   18.9774   22.4484 C   0  0  0  0  0  0  0  0  0  0  0  0
   18.1674   17.8791   22.4752 H   0  0  0  0  0  0  0  0  0  0  0  0
   17.1359   19.2874   22.3489 H   0  0  0  0  0  0  0  0  0  0  0  0
   18.7309   19.5407   23.7865 C   0  0  0  0  0  0  0  0  0  0  0  0
   19.2054   20.5173   23.6178 H   0  0  0  0  0  0  0  0  0  0  0  0
   17.8772   19.7270   24.4516 H   0  0  0  0  0  0  0  0  0  0  0  0
   19.7144   18.5776   24.5009 C   0  0  0  0  0  0  0  0  0  0  0  0
   20.5184   18.2912   23.8136 H   0  0  0  0  0  0  0  0  0  0  0  0
   19.1919   17.6489   24.7662 H   0  0  0  0  0  0  0  0  0  0  0  0
   20.3452   19.1953   25.7674 C   0  0  2  0  0  0  0  0  0  0  0  0
   20.8377   20.1305   25.4837 H   0  0  0  0  0  0  0  0  0  0  0  0
   21.4062   18.2494   26.3522 C   0  0  0  0  0  0  0  0  0  0  0  0
   20.9618   17.2930   26.6550 H   0  0  0  0  0  0  0  0  0  0  0  0
   22.1928   18.0428   25.6158 H   0  0  0  0  0  0  0  0  0  0  0  0
   21.8839   18.6981   27.2318 H   0  0  0  0  0  0  0  0  0  0  0  0
   19.3190   19.5454   26.8101 N   0  3  0  0  0  0  0  0  0  0  0  0
   18.6299   20.2099   26.4476 H   0  0  0  0  0  0  0  0  0  0  0  0
   19.7528   19.9723   27.6336 H   0  0  0  0  0  0  0  0  0  0  0  0
   18.8108   18.7153   27.1266 H   0  0  0  0  0  0  0  0  0  0  0  0
  1  2  1  0  0  0  0
  1  3  1  0  0  0  0
  1  4  1  0  0  0  0
  1  5  1  0  0  0  0
  5  6  1  0  0  0  0
  5  7  1  0  0  0  0
  5  8  1  0  0  0  0
  8  9  1  0  0  0  0
  8 10  1  0  0  0  0
  8 11  1  0  0  0  0
 11 12  1  0  0  0  0
 11 13  1  0  0  0  0
 11 14  1  0  0  0  0
 14 15  1  0  0  0  0
 14 16  1  0  0  0  0
 14 17  1  0  0  0  0
 17 18  1  0  0  0  0
 17 19  1  0  0  0  0
 17 20  1  0  0  0  0
 20 21  1  0  0  0  0
 20 22  1  0  0  0  0
 22 23  1  0  0  0  0
 22 24  1  0  0  0  0
 22 25  1  0  0  0  0
 20 26  1  0  0  0  0
 26 27  1  0  0  0  0
 26 28  1  0  0  0  0
 26 29  1  0  0  0  0
M  END
> <VM2 Rank>
84

> <Conf_Id>
1331

> <Probability>
0.03

> <Sum Probability>
98.94

> <Delta G>
3.398

> <G>
37.100

> <E>
-0.692

> <-TS>
37.792

> <U+W>
-24.837

> <U>
27.471

> <W>
-52.308

> <W(PB)>
-54.791

> <W(SA)>
2.483

> <Valence>
6.230

> <Coulomb>
20.131

> <VdW>
1.110

> <VdW6>
-9.661

> <VdW12>
10.771

> <Bond>
0.280

> <Angle>
1.592

> <Pdih>
4.359

> <Idih>
0.000

> <Tether>
0.000

$$$$
VeraChem MOL file


 29 28  0  0  0  0  0  0  0  0999 V2000     
   18.3708   20.0955   20.7871 C   0  0  0  0  0  0  0  0  0  0  0  0
   17.5566   20.2942   20.0783 H   0  0  0  0  0  0  0  0  0  0  0  0
   17.9456   19.5259   21.6225 H   0  0  0  0  0  0  0  0  0  0  0  0
   18.7290   21.0611   21.1667 H   0  0  0  0  0  0  0  0  0  0  0  0
   19.5079   19.3119   20.0960 C   0  0  0  0  0  0  0  0  0  0  0  0
   19.7858   19.8369   19.1714 H   0  0  0  0  0  0  0  0  0  0  0  0
   19.1344   18.3261   19.7856 H   0  0  0  0  0  0  0  0  0  0  0  0
   20.7811   19.1356   20.9624 C   0  0  0  0  0  0  0  0  0  0  0  0
   21.5276   18.6120   20.3493 H   0  0  0  0  0  0  0  0  0  0  0  0
   21.2212   20.1160   21.1910 H   0  0  0  0  0  0  0  0  0  0  0  0
   20.5707   18.3221   22.2660 C   0  0  0  0  0  0  0  0  0  0  0  0
   21.4732   17.7231   22.4510 H   0  0  0  0  0  0  0  0  0  0  0  0
   19.7509   17.6029   22.1324 H   0  0  0  0  0  0  0  0  0  0  0  0
   20.3156   19.2081   23.5098 C   0  0  0  0  0  0  0  0  0  0  0  0
   21.1765   19.8733   23.6642 H   0  0  0  0  0  0  0  0  0  0  0  0
   19.4473   19.8536   23.3384 H   0  0  0  0  0  0  0  0  0  0  0  0
   20.0919   18.3556   24.7823 C   0  0  0  0  0  0  0  0  0  0  0  0
   20.9511   17.6848   24.9159 H   0  0  0  0  0  0  0  0  0  0  0  0
   19.2109   17.7138   24.6488 H   0  0  0  0  0  0  0  0  0  0  0  0
   19.9239   19.2091   26.0580 C   0  0  2  0  0  0  0  0  0  0  0  0
   20.8004   19.8571   26.1550 H   0  0  0  0  0  0  0  0  0  0  0  0
   19.8515   18.3059   27.2994 C   0  0  0  0  0  0  0  0  0  0  0  0
   18.9848   17.6348   27.2521 H   0  0  0  0  0  0  0  0  0  0  0  0
   20.7557   17.6906   27.3872 H   0  0  0  0  0  0  0  0  0  0  0  0
   19.7688   18.9075   28.2130 H   0  0  0  0  0  0  0  0  0  0  0  0
   18.7225   20.1122   25.9929 N   0  3  0  0  0  0  0  0  0  0  0  0
   18.7783   20.7515   25.1956 H   0  0  0  0  0  0  0  0  0  0  0  0
   18.6381   20.6833   26.8387 H   0  0  0  0  0  0  0  0  0  0  0  0
   17.8568   19.5744   25.8983 H   0  0  0  0  0  0  0  0  0  0  0  0
  1  2  1  0  0  0  0
  1  3  1  0  0  0  0
  1  4  1  0  0  0  0
  1  5  1  0  0  0  0
  5  6  1  0  0  0  0
  5  7  1  0  0  0  0
  5  8  1  0  0  0  0
  8  9  1  0  0  0  0
  8 10  1  0  0  0  0
  8 11  1  0  0  0  0
 11 12  1  0  0  0  0
 11 13  1  0  0  0  0
 11 14  1  0  0  0  0
 14 15  1  0  0  0  0
 14 16  1  0  0  0  0
 14 17  1  0  0  0  0
 17 18  1  0  0  0  0
 17 19  1  0  0  0  0
 17 20  1  0  0  0  0
 20 21  1  0  0  0  0
 20 22  1  0  0  0  0
 22 23  1  0  0  0  0
 22 24  1  0  0  0  0
 22 25  1  0  0  0  0
 20 26  1  0  0  0  0
 26 27  1  0  0  0  0
 26 28  1  0  0  0  0
 26 29  1  0  0  0  0
M  END
> <VM2 Rank>
85

> <Conf_Id>
490

> <Probability>
0.03

> <Sum Probability>
98.98

> <Delta G>
3.423

> <G>
37.126

> <E>
-0.623

> <-TS>
37.749

> <U+W>
-24.768

> <U>
27.668

> <W>
-52.436

> <W(PB)>
-54.936

> <W(SA)>
2.500

> <Valence>
6.132

> <Coulomb>
20.412

> <VdW>
1.124

> <VdW6>
-9.581

> <VdW12>
10.705

> <Bond>
0.273

> <Angle>
1.615

> <Pdih>
4.244

> <Idih>
0.000

> <Tether>
0.000

$$$$
VeraChem MOL file


 29 28  0  0  0  0  0  0  0  0999 V2000     
   19.8290   20.9175   20.1511 C   0  0  0  0  0  0  0  0  0  0  0  0
   19.1034   21.5477   20.6818 H   0  0  0  0  0  0  0  0  0  0  0  0
   20.8372   21.2773   20.3948 H   0  0  0  0  0  0  0  0  0  0  0  0
   19.6724   21.0576   19.0736 H   0  0  0  0  0  0  0  0  0  0  0  0
   19.6617   19.4327   20.5374 C   0  0  0  0  0  0  0  0  0  0  0  0
   20.3764   18.8250   19.9650 H   0  0  0  0  0  0  0  0  0  0  0  0
   18.6562   19.0926   20.2524 H   0  0  0  0  0  0  0  0  0  0  0  0
   19.8785   19.2084   22.0501 C   0  0  0  0  0  0  0  0  0  0  0  0
   20.8870   19.5437   22.3290 H   0  0  0  0  0  0  0  0  0  0  0  0
   19.1617   19.8284   22.6031 H   0  0  0  0  0  0  0  0  0  0  0  0
   19.6948   17.7241   22.4430 C   0  0  0  0  0  0  0  0  0  0  0  0
   20.2901   17.0994   21.7627 H   0  0  0  0  0  0  0  0  0  0  0  0
   18.6473   17.4324   22.2854 H   0  0  0  0  0  0  0  0  0  0  0  0
   20.1137   17.3837   23.8968 C   0  0  0  0  0  0  0  0  0  0  0  0
   19.9784   16.3016   24.0309 H   0  0  0  0  0  0  0  0  0  0  0  0
   21.1887   17.5591   24.0258 H   0  0  0  0  0  0  0  0  0  0  0  0
   19.2935   18.1050   25.0015 C   0  0  0  0  0  0  0  0  0  0  0  0
   19.3082   17.4895   25.9108 H   0  0  0  0  0  0  0  0  0  0  0  0
   18.2422   18.1461   24.6876 H   0  0  0  0  0  0  0  0  0  0  0  0
   19.7799   19.5281   25.3697 C   0  0  2  0  0  0  0  0  0  0  0  0
   19.9004   20.1112   24.4543 H   0  0  0  0  0  0  0  0  0  0  0  0
   21.1308   19.5043   26.1077 C   0  0  0  0  0  0  0  0  0  0  0  0
   21.0741   18.8978   27.0201 H   0  0  0  0  0  0  0  0  0  0  0  0
   21.9277   19.0976   25.4753 H   0  0  0  0  0  0  0  0  0  0  0  0
   21.4314   20.5197   26.3939 H   0  0  0  0  0  0  0  0  0  0  0  0
   18.7540   20.2520   26.1967 N   0  3  0  0  0  0  0  0  0  0  0  0
   17.8562   20.3209   25.7089 H   0  0  0  0  0  0  0  0  0  0  0  0
   19.0557   21.2057   26.4165 H   0  0  0  0  0  0  0  0  0  0  0  0
   18.5852   19.7730   27.0854 H   0  0  0  0  0  0  0  0  0  0  0  0
  1  2  1  0  0  0  0
  1  3  1  0  0  0  0
  1  4  1  0  0  0  0
  1  5  1  0  0  0  0
  5  6  1  0  0  0  0
  5  7  1  0  0  0  0
  5  8  1  0  0  0  0
  8  9  1  0  0  0  0
  8 10  1  0  0  0  0
  8 11  1  0  0  0  0
 11 12  1  0  0  0  0
 11 13  1  0  0  0  0
 11 14  1  0  0  0  0
 14 15  1  0  0  0  0
 14 16  1  0  0  0  0
 14 17  1  0  0  0  0
 17 18  1  0  0  0  0
 17 19  1  0  0  0  0
 17 20  1  0  0  0  0
 20 21  1  0  0  0  0
 20 22  1  0  0  0  0
 22 23  1  0  0  0  0
 22 24  1  0  0  0  0
 22 25  1  0  0  0  0
 20 26  1  0  0  0  0
 26 27  1  0  0  0  0
 26 28  1  0  0  0  0
 26 29  1  0  0  0  0
M  END
> <VM2 Rank>
86

> <Conf_Id>
1025

> <Probability>
0.03

> <Sum Probability>
99.01

> <Delta G>
3.442

> <G>
37.144

> <E>
-0.497

> <-TS>
37.641

> <U+W>
-24.642

> <U>
27.991

> <W>
-52.632

> <W(PB)>
-55.124

> <W(SA)>
2.492

> <Valence>
6.342

> <Coulomb>
20.686

> <VdW>
0.963

> <VdW6>
-10.030

> <VdW12>
10.993

> <Bond>
0.289

> <Angle>
2.141

> <Pdih>
3.912

> <Idih>
0.000

> <Tether>
0.000

$$$$
VeraChem MOL file


 29 28  0  0  0  0  0  0  0  0999 V2000     
   20.7730   18.3372   19.8235 C   0  0  0  0  0  0  0  0  0  0  0  0
   21.7744   18.5754   20.2051 H   0  0  0  0  0  0  0  0  0  0  0  0
   20.7794   17.2915   19.4897 H   0  0  0  0  0  0  0  0  0  0  0  0
   20.5817   18.9697   18.9468 H   0  0  0  0  0  0  0  0  0  0  0  0
   19.6994   18.5557   20.9103 C   0  0  0  0  0  0  0  0  0  0  0  0
   19.8954   17.8790   21.7507 H   0  0  0  0  0  0  0  0  0  0  0  0
   18.7156   18.2760   20.5083 H   0  0  0  0  0  0  0  0  0  0  0  0
   19.6632   20.0275   21.3881 C   0  0  0  0  0  0  0  0  0  0  0  0
   20.6586   20.3462   21.7268 H   0  0  0  0  0  0  0  0  0  0  0  0
   19.4212   20.6608   20.5233 H   0  0  0  0  0  0  0  0  0  0  0  0
   18.6120   20.2891   22.4981 C   0  0  0  0  0  0  0  0  0  0  0  0
   17.7806   19.5760   22.4115 H   0  0  0  0  0  0  0  0  0  0  0  0
   18.1701   21.2799   22.3237 H   0  0  0  0  0  0  0  0  0  0  0  0
   19.1750   20.2776   23.9429 C   0  0  0  0  0  0  0  0  0  0  0  0
   19.9278   21.0714   24.0461 H   0  0  0  0  0  0  0  0  0  0  0  0
   18.3560   20.5420   24.6242 H   0  0  0  0  0  0  0  0  0  0  0  0
   19.7945   18.9247   24.3743 C   0  0  0  0  0  0  0  0  0  0  0  0
   20.6615   18.7113   23.7371 H   0  0  0  0  0  0  0  0  0  0  0  0
   19.0709   18.1145   24.2140 H   0  0  0  0  0  0  0  0  0  0  0  0
   20.2648   18.9177   25.8451 C   0  0  2  0  0  0  0  0  0  0  0  0
   20.9500   19.7585   25.9905 H   0  0  0  0  0  0  0  0  0  0  0  0
   21.0232   17.6175   26.1564 C   0  0  0  0  0  0  0  0  0  0  0  0
   20.3774   16.7402   26.0251 H   0  0  0  0  0  0  0  0  0  0  0  0
   21.8916   17.5046   25.4955 H   0  0  0  0  0  0  0  0  0  0  0  0
   21.3904   17.6201   27.1901 H   0  0  0  0  0  0  0  0  0  0  0  0
   19.1310   19.1089   26.8154 N   0  3  0  0  0  0  0  0  0  0  0  0
   18.6432   19.9935   26.6514 H   0  0  0  0  0  0  0  0  0  0  0  0
   19.4649   19.1182   27.7834 H   0  0  0  0  0  0  0  0  0  0  0  0
   18.4415   18.3567   26.7359 H   0  0  0  0  0  0  0  0  0  0  0  0
  1  2  1  0  0  0  0
  1  3  1  0  0  0  0
  1  4  1  0  0  0  0
  1  5  1  0  0  0  0
  5  6  1  0  0  0  0
  5  7  1  0  0  0  0
  5  8  1  0  0  0  0
  8  9  1  0  0  0  0
  8 10  1  0  0  0  0
  8 11  1  0  0  0  0
 11 12  1  0  0  0  0
 11 13  1  0  0  0  0
 11 14  1  0  0  0  0
 14 15  1  0  0  0  0
 14 16  1  0  0  0  0
 14 17  1  0  0  0  0
 17 18  1  0  0  0  0
 17 19  1  0  0  0  0
 17 20  1  0  0  0  0
 20 21  1  0  0  0  0
 20 22  1  0  0  0  0
 22 23  1  0  0  0  0
 22 24  1  0  0  0  0
 22 25  1  0  0  0  0
 20 26  1  0  0  0  0
 26 27  1  0  0  0  0
 26 28  1  0  0  0  0
 26 29  1  0  0  0  0
M  END
> <VM2 Rank>
87

> <Conf_Id>
1201

> <Probability>
0.03

> <Sum Probability>
99.04

> <Delta G>
3.449

> <G>
37.151

> <E>
-0.617

> <-TS>
37.768

> <U+W>
-24.762

> <U>
27.456

> <W>
-52.217

> <W(PB)>
-54.678

> <W(SA)>
2.461

> <Valence>
6.249

> <Coulomb>
20.070

> <VdW>
1.137

> <VdW6>
-9.668

> <VdW12>
10.805

> <Bond>
0.280

> <Angle>
1.672

> <Pdih>
4.297

> <Idih>
0.000

> <Tether>
0.000

$$$$
VeraChem MOL file


 29 28  0  0  0  0  0  0  0  0999 V2000     
   19.2011   20.8421   20.6389 C   0  0  0  0  0  0  0  0  0  0  0  0
   18.2912   21.3291   20.2650 H   0  0  0  0  0  0  0  0  0  0  0  0
   19.2970   21.0887   21.7018 H   0  0  0  0  0  0  0  0  0  0  0  0
   20.0560   21.2847   20.1114 H   0  0  0  0  0  0  0  0  0  0  0  0
   19.1353   19.3158   20.3981 C   0  0  0  0  0  0  0  0  0  0  0  0
   19.0197   19.1486   19.3181 H   0  0  0  0  0  0  0  0  0  0  0  0
   18.2359   18.8931   20.8671 H   0  0  0  0  0  0  0  0  0  0  0  0
   20.4007   18.5617   20.8818 C   0  0  0  0  0  0  0  0  0  0  0  0
   20.5965   17.7383   20.1811 H   0  0  0  0  0  0  0  0  0  0  0  0
   21.2803   19.2171   20.8206 H   0  0  0  0  0  0  0  0  0  0  0  0
   20.2908   17.9485   22.3017 C   0  0  0  0  0  0  0  0  0  0  0  0
   21.2128   17.3863   22.5043 H   0  0  0  0  0  0  0  0  0  0  0  0
   19.4745   17.2132   22.3191 H   0  0  0  0  0  0  0  0  0  0  0  0
   20.0732   18.9844   23.4287 C   0  0  0  0  0  0  0  0  0  0  0  0
   20.8347   19.7730   23.3550 H   0  0  0  0  0  0  0  0  0  0  0  0
   19.0943   19.4609   23.2958 H   0  0  0  0  0  0  0  0  0  0  0  0
   20.1413   18.3298   24.8299 C   0  0  0  0  0  0  0  0  0  0  0  0
   21.1045   17.8126   24.9341 H   0  0  0  0  0  0  0  0  0  0  0  0
   19.3616   17.5616   24.9194 H   0  0  0  0  0  0  0  0  0  0  0  0
   19.9993   19.3510   25.9793 C   0  0  2  0  0  0  0  0  0  0  0  0
   20.7687   20.1189   25.8529 H   0  0  0  0  0  0  0  0  0  0  0  0
   20.2220   18.6632   27.3356 C   0  0  0  0  0  0  0  0  0  0  0  0
   21.2153   18.1992   27.3791 H   0  0  0  0  0  0  0  0  0  0  0  0
   20.1584   19.3901   28.1548 H   0  0  0  0  0  0  0  0  0  0  0  0
   19.4720   17.8821   27.5126 H   0  0  0  0  0  0  0  0  0  0  0  0
   18.6724   20.0596   25.9599 N   0  3  0  0  0  0  0  0  0  0  0  0
   18.6041   20.7457   26.7171 H   0  0  0  0  0  0  0  0  0  0  0  0
   17.8967   19.4013   26.0717 H   0  0  0  0  0  0  0  0  0  0  0  0
   18.5288   20.5601   25.0788 H   0  0  0  0  0  0  0  0  0  0  0  0
  1  2  1  0  0  0  0
  1  3  1  0  0  0  0
  1  4  1  0  0  0  0
  1  5  1  0  0  0  0
  5  6  1  0  0  0  0
  5  7  1  0  0  0  0
  5  8  1  0  0  0  0
  8  9  1  0  0  0  0
  8 10  1  0  0  0  0
  8 11  1  0  0  0  0
 11 12  1  0  0  0  0
 11 13  1  0  0  0  0
 11 14  1  0  0  0  0
 14 15  1  0  0  0  0
 14 16  1  0  0  0  0
 14 17  1  0  0  0  0
 17 18  1  0  0  0  0
 17 19  1  0  0  0  0
 17 20  1  0  0  0  0
 20 21  1  0  0  0  0
 20 22  1  0  0  0  0
 22 23  1  0  0  0  0
 22 24  1  0  0  0  0
 22 25  1  0  0  0  0
 20 26  1  0  0  0  0
 26 27  1  0  0  0  0
 26 28  1  0  0  0  0
 26 29  1  0  0  0  0
M  END
> <VM2 Rank>
88

> <Conf_Id>
603

> <Probability>
0.03

> <Sum Probability>
99.07

> <Delta G>
3.457

> <G>
37.159

> <E>
-0.575

> <-TS>
37.734

> <U+W>
-24.719

> <U>
27.696

> <W>
-52.415

> <W(PB)>
-54.878

> <W(SA)>
2.463

> <Valence>
6.157

> <Coulomb>
20.386

> <VdW>
1.152

> <VdW6>
-9.567

> <VdW12>
10.719

> <Bond>
0.273

> <Angle>
1.661

> <Pdih>
4.223

> <Idih>
0.000

> <Tether>
0.000

$$$$
VeraChem MOL file


 29 28  0  0  0  0  0  0  0  0999 V2000     
   18.2573   19.1453   19.9985 C   0  0  0  0  0  0  0  0  0  0  0  0
   18.0123   20.2076   19.8689 H   0  0  0  0  0  0  0  0  0  0  0  0
   18.7906   18.8053   19.1011 H   0  0  0  0  0  0  0  0  0  0  0  0
   17.3143   18.5869   20.0615 H   0  0  0  0  0  0  0  0  0  0  0  0
   19.1076   18.9235   21.2672 C   0  0  0  0  0  0  0  0  0  0  0  0
   19.3147   17.8508   21.3845 H   0  0  0  0  0  0  0  0  0  0  0  0
   18.5249   19.2402   22.1420 H   0  0  0  0  0  0  0  0  0  0  0  0
   20.4365   19.7105   21.2076 C   0  0  0  0  0  0  0  0  0  0  0  0
   20.9447   19.4804   20.2611 H   0  0  0  0  0  0  0  0  0  0  0  0
   20.2213   20.7877   21.1841 H   0  0  0  0  0  0  0  0  0  0  0  0
   21.4161   19.4058   22.3703 C   0  0  0  0  0  0  0  0  0  0  0  0
   22.3305   19.9885   22.1918 H   0  0  0  0  0  0  0  0  0  0  0  0
   21.7263   18.3524   22.3359 H   0  0  0  0  0  0  0  0  0  0  0  0
   20.8825   19.7663   23.7814 C   0  0  0  0  0  0  0  0  0  0  0  0
   21.7235   20.1322   24.3867 H   0  0  0  0  0  0  0  0  0  0  0  0
   20.1753   20.6027   23.7064 H   0  0  0  0  0  0  0  0  0  0  0  0
   20.2449   18.5627   24.5237 C   0  0  0  0  0  0  0  0  0  0  0  0
   20.9869   17.7557   24.5861 H   0  0  0  0  0  0  0  0  0  0  0  0
   19.3987   18.1594   23.9563 H   0  0  0  0  0  0  0  0  0  0  0  0
   19.7804   18.9180   25.9525 C   0  0  2  0  0  0  0  0  0  0  0  0
   20.6331   19.3353   26.4968 H   0  0  0  0  0  0  0  0  0  0  0  0
   19.3072   17.6555   26.6904 C   0  0  0  0  0  0  0  0  0  0  0  0
   19.0094   17.8954   27.7186 H   0  0  0  0  0  0  0  0  0  0  0  0
   18.4485   17.1976   26.1836 H   0  0  0  0  0  0  0  0  0  0  0  0
   20.1106   16.9101   26.7423 H   0  0  0  0  0  0  0  0  0  0  0  0
   18.7035   19.9683   25.9624 N   0  3  0  0  0  0  0  0  0  0  0  0
   19.0188   20.8308   25.5104 H   0  0  0  0  0  0  0  0  0  0  0  0
   18.4241   20.2077   26.9180 H   0  0  0  0  0  0  0  0  0  0  0  0
   17.8660   19.6485   25.4689 H   0  0  0  0  0  0  0  0  0  0  0  0
  1  2  1  0  0  0  0
  1  3  1  0  0  0  0
  1  4  1  0  0  0  0
  1  5  1  0  0  0  0
  5  6  1  0  0  0  0
  5  7  1  0  0  0  0
  5  8  1  0  0  0  0
  8  9  1  0  0  0  0
  8 10  1  0  0  0  0
  8 11  1  0  0  0  0
 11 12  1  0  0  0  0
 11 13  1  0  0  0  0
 11 14  1  0  0  0  0
 14 15  1  0  0  0  0
 14 16  1  0  0  0  0
 14 17  1  0  0  0  0
 17 18  1  0  0  0  0
 17 19  1  0  0  0  0
 17 20  1  0  0  0  0
 20 21  1  0  0  0  0
 20 22  1  0  0  0  0
 22 23  1  0  0  0  0
 22 24  1  0  0  0  0
 22 25  1  0  0  0  0
 20 26  1  0  0  0  0
 26 27  1  0  0  0  0
 26 28  1  0  0  0  0
 26 29  1  0  0  0  0
M  END
> <VM2 Rank>
89

> <Conf_Id>
188

> <Probability>
0.03

> <Sum Probability>
99.10

> <Delta G>
3.515

> <G>
37.217

> <E>
-0.534

> <-TS>
37.751

> <U+W>
-24.679

> <U>
27.894

> <W>
-52.570

> <W(PB)>
-55.035

> <W(SA)>
2.466

> <Valence>
6.176

> <Coulomb>
20.675

> <VdW>
1.043

> <VdW6>
-9.723

> <VdW12>
10.766

> <Bond>
0.282

> <Angle>
1.681

> <Pdih>
4.213

> <Idih>
0.000

> <Tether>
0.000

$$$$
VeraChem MOL file


 29 28  0  0  0  0  0  0  0  0999 V2000     
   18.3492   20.2010   20.2678 C   0  0  0  0  0  0  0  0  0  0  0  0
   18.6849   21.2285   20.4589 H   0  0  0  0  0  0  0  0  0  0  0  0
   17.7236   20.2147   19.3659 H   0  0  0  0  0  0  0  0  0  0  0  0
   17.7138   19.8845   21.1041 H   0  0  0  0  0  0  0  0  0  0  0  0
   19.5522   19.2497   20.0762 C   0  0  0  0  0  0  0  0  0  0  0  0
   20.0821   19.5309   19.1554 H   0  0  0  0  0  0  0  0  0  0  0  0
   19.1910   18.2234   19.9216 H   0  0  0  0  0  0  0  0  0  0  0  0
   20.5554   19.2799   21.2544 C   0  0  0  0  0  0  0  0  0  0  0  0
   21.4269   18.6672   20.9852 H   0  0  0  0  0  0  0  0  0  0  0  0
   20.9286   20.3042   21.3918 H   0  0  0  0  0  0  0  0  0  0  0  0
   19.9611   18.7578   22.5843 C   0  0  0  0  0  0  0  0  0  0  0  0
   19.5497   17.7511   22.4277 H   0  0  0  0  0  0  0  0  0  0  0  0
   19.1251   19.3973   22.8834 H   0  0  0  0  0  0  0  0  0  0  0  0
   21.0291   18.7078   23.7048 C   0  0  0  0  0  0  0  0  0  0  0  0
   21.8495   18.0609   23.3641 H   0  0  0  0  0  0  0  0  0  0  0  0
   21.4712   19.7022   23.8575 H   0  0  0  0  0  0  0  0  0  0  0  0
   20.5027   18.1494   25.0533 C   0  0  0  0  0  0  0  0  0  0  0  0
   21.3491   17.6787   25.5712 H   0  0  0  0  0  0  0  0  0  0  0  0
   19.7748   17.3466   24.8761 H   0  0  0  0  0  0  0  0  0  0  0  0
   19.9081   19.2173   26.0012 C   0  0  2  0  0  0  0  0  0  0  0  0
   20.6619   19.9964   26.1511 H   0  0  0  0  0  0  0  0  0  0  0  0
   19.5865   18.5928   27.3685 C   0  0  0  0  0  0  0  0  0  0  0  0
   19.2029   19.3515   28.0617 H   0  0  0  0  0  0  0  0  0  0  0  0
   18.8317   17.8018   27.2756 H   0  0  0  0  0  0  0  0  0  0  0  0
   20.4860   18.1555   27.8195 H   0  0  0  0  0  0  0  0  0  0  0  0
   18.6916   19.9003   25.4438 N   0  3  0  0  0  0  0  0  0  0  0  0
   18.3303   20.6070   26.0909 H   0  0  0  0  0  0  0  0  0  0  0  0
   17.9380   19.2310   25.2658 H   0  0  0  0  0  0  0  0  0  0  0  0
   18.9063   20.3719   24.5613 H   0  0  0  0  0  0  0  0  0  0  0  0
  1  2  1  0  0  0  0
  1  3  1  0  0  0  0
  1  4  1  0  0  0  0
  1  5  1  0  0  0  0
  5  6  1  0  0  0  0
  5  7  1  0  0  0  0
  5  8  1  0  0  0  0
  8  9  1  0  0  0  0
  8 10  1  0  0  0  0
  8 11  1  0  0  0  0
 11 12  1  0  0  0  0
 11 13  1  0  0  0  0
 11 14  1  0  0  0  0
 14 15  1  0  0  0  0
 14 16  1  0  0  0  0
 14 17  1  0  0  0  0
 17 18  1  0  0  0  0
 17 19  1  0  0  0  0
 17 20  1  0  0  0  0
 20 21  1  0  0  0  0
 20 22  1  0  0  0  0
 22 23  1  0  0  0  0
 22 24  1  0  0  0  0
 22 25  1  0  0  0  0
 20 26  1  0  0  0  0
 26 27  1  0  0  0  0
 26 28  1  0  0  0  0
 26 29  1  0  0  0  0
M  END
> <VM2 Rank>
90

> <Conf_Id>
1316

> <Probability>
0.03

> <Sum Probability>
99.13

> <Delta G>
3.525

> <G>
37.228

> <E>
-0.128

> <-TS>
37.356

> <U+W>
-24.273

> <U>
27.845

> <W>
-52.117

> <W(PB)>
-54.607

> <W(SA)>
2.490

> <Valence>
5.676

> <Coulomb>
20.987

> <VdW>
1.181

> <VdW6>
-9.499

> <VdW12>
10.680

> <Bond>
0.294

> <Angle>
1.639

> <Pdih>
3.743

> <Idih>
0.000

> <Tether>
0.000

$$$$
VeraChem MOL file


 29 28  0  0  0  0  0  0  0  0999 V2000     
   20.1289   20.8592   20.0810 C   0  0  0  0  0  0  0  0  0  0  0  0
   20.7008   21.5210   20.7444 H   0  0  0  0  0  0  0  0  0  0  0  0
   20.5907   20.8986   19.0859 H   0  0  0  0  0  0  0  0  0  0  0  0
   19.1097   21.2582   19.9955 H   0  0  0  0  0  0  0  0  0  0  0  0
   20.1148   19.4124   20.6181 C   0  0  0  0  0  0  0  0  0  0  0  0
   21.1442   19.0297   20.6614 H   0  0  0  0  0  0  0  0  0  0  0  0
   19.5664   18.7686   19.9162 H   0  0  0  0  0  0  0  0  0  0  0  0
   19.4685   19.3288   22.0184 C   0  0  0  0  0  0  0  0  0  0  0  0
   20.0171   19.9887   22.6988 H   0  0  0  0  0  0  0  0  0  0  0  0
   18.4392   19.7093   21.9649 H   0  0  0  0  0  0  0  0  0  0  0  0
   19.4558   17.8768   22.5562 C   0  0  0  0  0  0  0  0  0  0  0  0
   20.4802   17.4849   22.6211 H   0  0  0  0  0  0  0  0  0  0  0  0
   18.9377   17.2473   21.8194 H   0  0  0  0  0  0  0  0  0  0  0  0
   18.7349   17.7100   23.9196 C   0  0  0  0  0  0  0  0  0  0  0  0
   17.8614   18.3730   23.9757 H   0  0  0  0  0  0  0  0  0  0  0  0
   18.3270   16.6904   23.9590 H   0  0  0  0  0  0  0  0  0  0  0  0
   19.6443   17.8863   25.1659 C   0  0  0  0  0  0  0  0  0  0  0  0
   20.4621   17.1555   25.1114 H   0  0  0  0  0  0  0  0  0  0  0  0
   19.0653   17.6252   26.0618 H   0  0  0  0  0  0  0  0  0  0  0  0
   20.2437   19.2963   25.3528 C   0  0  2  0  0  0  0  0  0  0  0  0
   20.8511   19.5319   24.4752 H   0  0  0  0  0  0  0  0  0  0  0  0
   21.1613   19.3279   26.5852 C   0  0  0  0  0  0  0  0  0  0  0  0
   20.6032   19.1015   27.5024 H   0  0  0  0  0  0  0  0  0  0  0  0
   21.9704   18.5933   26.4874 H   0  0  0  0  0  0  0  0  0  0  0  0
   21.6219   20.3167   26.7009 H   0  0  0  0  0  0  0  0  0  0  0  0
   19.1838   20.3585   25.4566 N   0  3  0  0  0  0  0  0  0  0  0  0
   18.5837   20.3643   24.6275 H   0  0  0  0  0  0  0  0  0  0  0  0
   19.5955   21.2916   25.5493 H   0  0  0  0  0  0  0  0  0  0  0  0
   18.5836   20.2055   26.2715 H   0  0  0  0  0  0  0  0  0  0  0  0
  1  2  1  0  0  0  0
  1  3  1  0  0  0  0
  1  4  1  0  0  0  0
  1  5  1  0  0  0  0
  5  6  1  0  0  0  0
  5  7  1  0  0  0  0
  5  8  1  0  0  0  0
  8  9  1  0  0  0  0
  8 10  1  0  0  0  0
  8 11  1  0  0  0  0
 11 12  1  0  0  0  0
 11 13  1  0  0  0  0
 11 14  1  0  0  0  0
 14 15  1  0  0  0  0
 14 16  1  0  0  0  0
 14 17  1  0  0  0  0
 17 18  1  0  0  0  0
 17 19  1  0  0  0  0
 17 20  1  0  0  0  0
 20 21  1  0  0  0  0
 20 22  1  0  0  0  0
 22 23  1  0  0  0  0
 22 24  1  0  0  0  0
 22 25  1  0  0  0  0
 20 26  1  0  0  0  0
 26 27  1  0  0  0  0
 26 28  1  0  0  0  0
 26 29  1  0  0  0  0
M  END
> <VM2 Rank>
91

> <Conf_Id>
902

> <Probability>
0.03

> <Sum Probability>
99.16

> <Delta G>
3.546

> <G>
37.248

> <E>
-0.604

> <-TS>
37.852

> <U+W>
-24.749

> <U>
27.636

> <W>
-52.385

> <W(PB)>
-54.895

> <W(SA)>
2.510

> <Valence>
5.823

> <Coulomb>
21.132

> <VdW>
0.682

> <VdW6>
-10.106

> <VdW12>
10.787

> <Bond>
0.276

> <Angle>
1.914

> <Pdih>
3.633

> <Idih>
0.000

> <Tether>
0.000

$$$$
VeraChem MOL file


 29 28  0  0  0  0  0  0  0  0999 V2000     
   20.7041   19.2158   19.8758 C   0  0  0  0  0  0  0  0  0  0  0  0
   20.8561   19.5988   18.8584 H   0  0  0  0  0  0  0  0  0  0  0  0
   21.6924   19.0643   20.3290 H   0  0  0  0  0  0  0  0  0  0  0  0
   20.2112   18.2393   19.7911 H   0  0  0  0  0  0  0  0  0  0  0  0
   19.8582   20.2071   20.7065 C   0  0  0  0  0  0  0  0  0  0  0  0
   18.8679   20.3249   20.2447 H   0  0  0  0  0  0  0  0  0  0  0  0
   20.3338   21.1972   20.6705 H   0  0  0  0  0  0  0  0  0  0  0  0
   19.6989   19.7847   22.1867 C   0  0  0  0  0  0  0  0  0  0  0  0
   20.6957   19.7037   22.6385 H   0  0  0  0  0  0  0  0  0  0  0  0
   19.1675   20.5827   22.7229 H   0  0  0  0  0  0  0  0  0  0  0  0
   18.9325   18.4508   22.3623 C   0  0  0  0  0  0  0  0  0  0  0  0
   19.5482   17.6195   21.9936 H   0  0  0  0  0  0  0  0  0  0  0  0
   18.0347   18.4709   21.7294 H   0  0  0  0  0  0  0  0  0  0  0  0
   18.4893   18.1482   23.8171 C   0  0  0  0  0  0  0  0  0  0  0  0
   17.7858   18.9165   24.1625 H   0  0  0  0  0  0  0  0  0  0  0  0
   17.9122   17.2134   23.7953 H   0  0  0  0  0  0  0  0  0  0  0  0
   19.6516   17.9652   24.8310 C   0  0  0  0  0  0  0  0  0  0  0  0
   20.4671   17.4125   24.3459 H   0  0  0  0  0  0  0  0  0  0  0  0
   19.3031   17.3262   25.6533 H   0  0  0  0  0  0  0  0  0  0  0  0
   20.1972   19.2792   25.4368 C   0  0  2  0  0  0  0  0  0  0  0  0
   20.4898   19.9499   24.6263 H   0  0  0  0  0  0  0  0  0  0  0  0
   21.4423   18.9941   26.2914 C   0  0  0  0  0  0  0  0  0  0  0  0
   21.2044   18.3278   27.1301 H   0  0  0  0  0  0  0  0  0  0  0  0
   22.2273   18.5192   25.6897 H   0  0  0  0  0  0  0  0  0  0  0  0
   21.8542   19.9249   26.7003 H   0  0  0  0  0  0  0  0  0  0  0  0
   19.1619   20.0109   26.2464 N   0  3  0  0  0  0  0  0  0  0  0  0
   19.5339   20.8858   26.6271 H   0  0  0  0  0  0  0  0  0  0  0  0
   18.8392   19.4459   27.0365 H   0  0  0  0  0  0  0  0  0  0  0  0
   18.3422   20.2463   25.6806 H   0  0  0  0  0  0  0  0  0  0  0  0
  1  2  1  0  0  0  0
  1  3  1  0  0  0  0
  1  4  1  0  0  0  0
  1  5  1  0  0  0  0
  5  6  1  0  0  0  0
  5  7  1  0  0  0  0
  5  8  1  0  0  0  0
  8  9  1  0  0  0  0
  8 10  1  0  0  0  0
  8 11  1  0  0  0  0
 11 12  1  0  0  0  0
 11 13  1  0  0  0  0
 11 14  1  0  0  0  0
 14 15  1  0  0  0  0
 14 16  1  0  0  0  0
 14 17  1  0  0  0  0
 17 18  1  0  0  0  0
 17 19  1  0  0  0  0
 17 20  1  0  0  0  0
 20 21  1  0  0  0  0
 20 22  1  0  0  0  0
 22 23  1  0  0  0  0
 22 24  1  0  0  0  0
 22 25  1  0  0  0  0
 20 26  1  0  0  0  0
 26 27  1  0  0  0  0
 26 28  1  0  0  0  0
 26 29  1  0  0  0  0
M  END
> <VM2 Rank>
92

> <Conf_Id>
1322

> <Probability>
0.03

> <Sum Probability>
99.18

> <Delta G>
3.584

> <G>
37.286

> <E>
-0.558

> <-TS>
37.844

> <U+W>
-24.703

> <U>
27.777

> <W>
-52.480

> <W(PB)>
-54.934

> <W(SA)>
2.455

> <Valence>
6.109

> <Coulomb>
20.731

> <VdW>
0.938

> <VdW6>
-10.573

> <VdW12>
11.510

> <Bond>
0.307

> <Angle>
1.994

> <Pdih>
3.808

> <Idih>
0.000

> <Tether>
0.000

$$$$
VeraChem MOL file


 29 28  0  0  0  0  0  0  0  0999 V2000     
   20.0033   19.9132   19.1691 C   0  0  0  0  0  0  0  0  0  0  0  0
   19.1223   20.5089   18.8964 H   0  0  0  0  0  0  0  0  0  0  0  0
   20.8844   20.3905   18.7210 H   0  0  0  0  0  0  0  0  0  0  0  0
   19.8947   18.9170   18.7207 H   0  0  0  0  0  0  0  0  0  0  0  0
   20.1559   19.8174   20.7019 C   0  0  0  0  0  0  0  0  0  0  0  0
   20.2924   20.8254   21.1179 H   0  0  0  0  0  0  0  0  0  0  0  0
   21.0670   19.2504   20.9350 H   0  0  0  0  0  0  0  0  0  0  0  0
   18.9264   19.1440   21.3560 C   0  0  0  0  0  0  0  0  0  0  0  0
   18.0189   19.6842   21.0527 H   0  0  0  0  0  0  0  0  0  0  0  0
   18.8176   18.1201   20.9727 H   0  0  0  0  0  0  0  0  0  0  0  0
   18.9888   19.1159   22.9028 C   0  0  0  0  0  0  0  0  0  0  0  0
   18.0404   18.7098   23.2809 H   0  0  0  0  0  0  0  0  0  0  0  0
   19.0658   20.1472   23.2680 H   0  0  0  0  0  0  0  0  0  0  0  0
   20.1634   18.2679   23.4519 C   0  0  0  0  0  0  0  0  0  0  0  0
   20.1979   17.3171   22.9023 H   0  0  0  0  0  0  0  0  0  0  0  0
   21.1164   18.7743   23.2479 H   0  0  0  0  0  0  0  0  0  0  0  0
   20.0766   17.9408   24.9660 C   0  0  0  0  0  0  0  0  0  0  0  0
   20.8866   17.2337   25.1896 H   0  0  0  0  0  0  0  0  0  0  0  0
   19.1433   17.4056   25.1858 H   0  0  0  0  0  0  0  0  0  0  0  0
   20.2189   19.1632   25.9035 C   0  0  2  0  0  0  0  0  0  0  0  0
   21.0013   19.8156   25.5037 H   0  0  0  0  0  0  0  0  0  0  0  0
   20.6420   18.7111   27.3109 C   0  0  0  0  0  0  0  0  0  0  0  0
   19.8953   18.0394   27.7529 H   0  0  0  0  0  0  0  0  0  0  0  0
   21.6024   18.1815   27.2794 H   0  0  0  0  0  0  0  0  0  0  0  0
   20.7622   19.5745   27.9768 H   0  0  0  0  0  0  0  0  0  0  0  0
   18.9607   19.9825   25.9919 N   0  3  0  0  0  0  0  0  0  0  0  0
   18.6624   20.3093   25.0702 H   0  0  0  0  0  0  0  0  0  0  0  0
   19.0925   20.8069   26.5850 H   0  0  0  0  0  0  0  0  0  0  0  0
   18.1909   19.4385   26.3905 H   0  0  0  0  0  0  0  0  0  0  0  0
  1  2  1  0  0  0  0
  1  3  1  0  0  0  0
  1  4  1  0  0  0  0
  1  5  1  0  0  0  0
  5  6  1  0  0  0  0
  5  7  1  0  0  0  0
  5  8  1  0  0  0  0
  8  9  1  0  0  0  0
  8 10  1  0  0  0  0
  8 11  1  0  0  0  0
 11 12  1  0  0  0  0
 11 13  1  0  0  0  0
 11 14  1  0  0  0  0
 14 15  1  0  0  0  0
 14 16  1  0  0  0  0
 14 17  1  0  0  0  0
 17 18  1  0  0  0  0
 17 19  1  0  0  0  0
 17 20  1  0  0  0  0
 20 21  1  0  0  0  0
 20 22  1  0  0  0  0
 22 23  1  0  0  0  0
 22 24  1  0  0  0  0
 22 25  1  0  0  0  0
 20 26  1  0  0  0  0
 26 27  1  0  0  0  0
 26 28  1  0  0  0  0
 26 29  1  0  0  0  0
M  END
> <VM2 Rank>
93

> <Conf_Id>
855

> <Probability>
0.02

> <Sum Probability>
99.21

> <Delta G>
3.592

> <G>
37.294

> <E>
-0.216

> <-TS>
37.510

> <U+W>
-24.361

> <U>
27.700

> <W>
-52.061

> <W(PB)>
-54.564

> <W(SA)>
2.503

> <Valence>
5.425

> <Coulomb>
21.143

> <VdW>
1.132

> <VdW6>
-9.721

> <VdW12>
10.853

> <Bond>
0.283

> <Angle>
1.776

> <Pdih>
3.366

> <Idih>
0.000

> <Tether>
0.000

$$$$
VeraChem MOL file


 29 28  0  0  0  0  0  0  0  0999 V2000     
   18.3480   19.7134   20.0266 C   0  0  0  0  0  0  0  0  0  0  0  0
   17.7353   19.7925   20.9331 H   0  0  0  0  0  0  0  0  0  0  0  0
   17.9140   20.3861   19.2756 H   0  0  0  0  0  0  0  0  0  0  0  0
   18.2675   18.6874   19.6448 H   0  0  0  0  0  0  0  0  0  0  0  0
   19.8215   20.0895   20.3021 C   0  0  0  0  0  0  0  0  0  0  0  0
   19.8725   21.1082   20.7114 H   0  0  0  0  0  0  0  0  0  0  0  0
   20.3650   20.1145   19.3473 H   0  0  0  0  0  0  0  0  0  0  0  0
   20.5396   19.1050   21.2563 C   0  0  0  0  0  0  0  0  0  0  0  0
   20.5095   18.0933   20.8286 H   0  0  0  0  0  0  0  0  0  0  0  0
   21.6006   19.3853   21.3132 H   0  0  0  0  0  0  0  0  0  0  0  0
   19.9444   19.0867   22.6845 C   0  0  0  0  0  0  0  0  0  0  0  0
   18.9078   18.7266   22.6498 H   0  0  0  0  0  0  0  0  0  0  0  0
   19.9279   20.1140   23.0680 H   0  0  0  0  0  0  0  0  0  0  0  0
   20.7684   18.1843   23.6335 C   0  0  0  0  0  0  0  0  0  0  0  0
   20.9290   17.2132   23.1449 H   0  0  0  0  0  0  0  0  0  0  0  0
   21.7664   18.6204   23.7792 H   0  0  0  0  0  0  0  0  0  0  0  0
   20.1136   17.9203   25.0151 C   0  0  0  0  0  0  0  0  0  0  0  0
   20.7450   17.1880   25.5357 H   0  0  0  0  0  0  0  0  0  0  0  0
   19.1375   17.4345   24.8850 H   0  0  0  0  0  0  0  0  0  0  0  0
   19.9650   19.1711   25.9135 C   0  0  2  0  0  0  0  0  0  0  0  0
   20.8627   19.7865   25.8001 H   0  0  0  0  0  0  0  0  0  0  0  0
   19.8474   18.7586   27.3901 C   0  0  0  0  0  0  0  0  0  0  0  0
   18.9680   18.1236   27.5558 H   0  0  0  0  0  0  0  0  0  0  0  0
   20.7365   18.2026   27.7128 H   0  0  0  0  0  0  0  0  0  0  0  0
   19.7580   19.6419   28.0345 H   0  0  0  0  0  0  0  0  0  0  0  0
   18.7881   20.0271   25.5323 N   0  3  0  0  0  0  0  0  0  0  0  0
   18.8430   20.3244   24.5555 H   0  0  0  0  0  0  0  0  0  0  0  0
   18.7368   20.8706   26.1108 H   0  0  0  0  0  0  0  0  0  0  0  0
   17.9069   19.5203   25.6515 H   0  0  0  0  0  0  0  0  0  0  0  0
  1  2  1  0  0  0  0
  1  3  1  0  0  0  0
  1  4  1  0  0  0  0
  1  5  1  0  0  0  0
  5  6  1  0  0  0  0
  5  7  1  0  0  0  0
  5  8  1  0  0  0  0
  8  9  1  0  0  0  0
  8 10  1  0  0  0  0
  8 11  1  0  0  0  0
 11 12  1  0  0  0  0
 11 13  1  0  0  0  0
 11 14  1  0  0  0  0
 14 15  1  0  0  0  0
 14 16  1  0  0  0  0
 14 17  1  0  0  0  0
 17 18  1  0  0  0  0
 17 19  1  0  0  0  0
 17 20  1  0  0  0  0
 20 21  1  0  0  0  0
 20 22  1  0  0  0  0
 22 23  1  0  0  0  0
 22 24  1  0  0  0  0
 22 25  1  0  0  0  0
 20 26  1  0  0  0  0
 26 27  1  0  0  0  0
 26 28  1  0  0  0  0
 26 29  1  0  0  0  0
M  END
> <VM2 Rank>
94

> <Conf_Id>
1506

> <Probability>
0.02

> <Sum Probability>
99.23

> <Delta G>
3.719

> <G>
37.422

> <E>
-0.102

> <-TS>
37.523

> <U+W>
-24.246

> <U>
27.822

> <W>
-52.068

> <W(PB)>
-54.585

> <W(SA)>
2.516

> <Valence>
5.450

> <Coulomb>
21.220

> <VdW>
1.151

> <VdW6>
-9.708

> <VdW12>
10.859

> <Bond>
0.277

> <Angle>
1.825

> <Pdih>
3.348

> <Idih>
0.000

> <Tether>
0.000

$$$$
VeraChem MOL file


 29 28  0  0  0  0  0  0  0  0999 V2000     
   18.4844   18.6319   19.9315 C   0  0  0  0  0  0  0  0  0  0  0  0
   18.9333   17.6701   19.6510 H   0  0  0  0  0  0  0  0  0  0  0  0
   17.3992   18.4869   20.0116 H   0  0  0  0  0  0  0  0  0  0  0  0
   18.6696   19.3460   19.1185 H   0  0  0  0  0  0  0  0  0  0  0  0
   19.0652   19.1463   21.2657 C   0  0  0  0  0  0  0  0  0  0  0  0
   18.8260   18.4234   22.0566 H   0  0  0  0  0  0  0  0  0  0  0  0
   18.5794   20.0949   21.5333 H   0  0  0  0  0  0  0  0  0  0  0  0
   20.5955   19.3466   21.1817 C   0  0  0  0  0  0  0  0  0  0  0  0
   21.0804   18.3766   21.0053 H   0  0  0  0  0  0  0  0  0  0  0  0
   20.8265   19.9670   20.3048 H   0  0  0  0  0  0  0  0  0  0  0  0
   21.2248   20.0176   22.4300 C   0  0  0  0  0  0  0  0  0  0  0  0
   20.8316   21.0366   22.5487 H   0  0  0  0  0  0  0  0  0  0  0  0
   22.2992   20.1372   22.2334 H   0  0  0  0  0  0  0  0  0  0  0  0
   21.0616   19.2176   23.7489 C   0  0  0  0  0  0  0  0  0  0  0  0
   21.0031   18.1453   23.5222 H   0  0  0  0  0  0  0  0  0  0  0  0
   21.9706   19.3524   24.3515 H   0  0  0  0  0  0  0  0  0  0  0  0
   19.8484   19.6771   24.6001 C   0  0  0  0  0  0  0  0  0  0  0  0
   18.9130   19.5519   24.0433 H   0  0  0  0  0  0  0  0  0  0  0  0
   19.9492   20.7536   24.7912 H   0  0  0  0  0  0  0  0  0  0  0  0
   19.7358   18.9506   25.9596 C   0  0  2  0  0  0  0  0  0  0  0  0
   20.6964   19.0374   26.4767 H   0  0  0  0  0  0  0  0  0  0  0  0
   19.4040   17.4569   25.7913 C   0  0  0  0  0  0  0  0  0  0  0  0
   18.4764   17.3181   25.2220 H   0  0  0  0  0  0  0  0  0  0  0  0
   20.2088   16.9245   25.2718 H   0  0  0  0  0  0  0  0  0  0  0  0
   19.2774   16.9770   26.7695 H   0  0  0  0  0  0  0  0  0  0  0  0
   18.7163   19.6116   26.8452 N   0  3  0  0  0  0  0  0  0  0  0  0
   18.9402   20.5978   27.0070 H   0  0  0  0  0  0  0  0  0  0  0  0
   18.6662   19.1567   27.7613 H   0  0  0  0  0  0  0  0  0  0  0  0
   17.7803   19.5719   26.4328 H   0  0  0  0  0  0  0  0  0  0  0  0
  1  2  1  0  0  0  0
  1  3  1  0  0  0  0
  1  4  1  0  0  0  0
  1  5  1  0  0  0  0
  5  6  1  0  0  0  0
  5  7  1  0  0  0  0
  5  8  1  0  0  0  0
  8  9  1  0  0  0  0
  8 10  1  0  0  0  0
  8 11  1  0  0  0  0
 11 12  1  0  0  0  0
 11 13  1  0  0  0  0
 11 14  1  0  0  0  0
 14 15  1  0  0  0  0
 14 16  1  0  0  0  0
 14 17  1  0  0  0  0
 17 18  1  0  0  0  0
 17 19  1  0  0  0  0
 17 20  1  0  0  0  0
 20 21  1  0  0  0  0
 20 22  1  0  0  0  0
 22 23  1  0  0  0  0
 22 24  1  0  0  0  0
 22 25  1  0  0  0  0
 20 26  1  0  0  0  0
 26 27  1  0  0  0  0
 26 28  1  0  0  0  0
 26 29  1  0  0  0  0
M  END
> <VM2 Rank>
95

> <Conf_Id>
1530

> <Probability>
0.02

> <Sum Probability>
99.25

> <Delta G>
3.720

> <G>
37.422

> <E>
-0.309

> <-TS>
37.731

> <U+W>
-24.453

> <U>
28.051

> <W>
-52.505

> <W(PB)>
-54.965

> <W(SA)>
2.460

> <Valence>
6.726

> <Coulomb>
20.160

> <VdW>
1.165

> <VdW6>
-9.906

> <VdW12>
11.071

> <Bond>
0.295

> <Angle>
1.941

> <Pdih>
4.490

> <Idih>
0.000

> <Tether>
0.000

$$$$
VeraChem MOL file


 29 28  0  0  0  0  0  0  0  0999 V2000     
   21.2631   19.8208   20.5148 C   0  0  0  0  0  0  0  0  0  0  0  0
   21.4860   20.0156   21.5695 H   0  0  0  0  0  0  0  0  0  0  0  0
   22.1788   19.4369   20.0468 H   0  0  0  0  0  0  0  0  0  0  0  0
   21.0228   20.7799   20.0380 H   0  0  0  0  0  0  0  0  0  0  0  0
   20.1033   18.8127   20.3404 C   0  0  0  0  0  0  0  0  0  0  0  0
   20.3812   17.8344   20.7566 H   0  0  0  0  0  0  0  0  0  0  0  0
   19.9546   18.6516   19.2634 H   0  0  0  0  0  0  0  0  0  0  0  0
   18.7663   19.3002   20.9557 C   0  0  0  0  0  0  0  0  0  0  0  0
   18.7146   20.3974   20.9316 H   0  0  0  0  0  0  0  0  0  0  0  0
   17.9468   18.9517   20.3119 H   0  0  0  0  0  0  0  0  0  0  0  0
   18.4826   18.7847   22.3903 C   0  0  0  0  0  0  0  0  0  0  0  0
   18.4295   17.6873   22.3796 H   0  0  0  0  0  0  0  0  0  0  0  0
   17.4854   19.1361   22.6893 H   0  0  0  0  0  0  0  0  0  0  0  0
   19.5162   19.2386   23.4470 C   0  0  0  0  0  0  0  0  0  0  0  0
   20.4877   18.7869   23.2136 H   0  0  0  0  0  0  0  0  0  0  0  0
   19.6400   20.3291   23.3958 H   0  0  0  0  0  0  0  0  0  0  0  0
   19.0894   18.8328   24.8791 C   0  0  0  0  0  0  0  0  0  0  0  0
   19.0237   17.7389   24.9496 H   0  0  0  0  0  0  0  0  0  0  0  0
   18.0783   19.2181   25.0659 H   0  0  0  0  0  0  0  0  0  0  0  0
   20.0275   19.3701   25.9840 C   0  0  2  0  0  0  0  0  0  0  0  0
   20.1074   20.4555   25.8685 H   0  0  0  0  0  0  0  0  0  0  0  0
   21.4401   18.7652   25.8926 C   0  0  0  0  0  0  0  0  0  0  0  0
   21.4061   17.6695   25.9365 H   0  0  0  0  0  0  0  0  0  0  0  0
   21.9399   19.0571   24.9618 H   0  0  0  0  0  0  0  0  0  0  0  0
   22.0662   19.1195   26.7207 H   0  0  0  0  0  0  0  0  0  0  0  0
   19.4475   19.1308   27.3502 N   0  3  0  0  0  0  0  0  0  0  0  0
   18.5243   19.5630   27.4490 H   0  0  0  0  0  0  0  0  0  0  0  0
   20.0461   19.5204   28.0841 H   0  0  0  0  0  0  0  0  0  0  0  0
   19.3413   18.1309   27.5415 H   0  0  0  0  0  0  0  0  0  0  0  0
  1  2  1  0  0  0  0
  1  3  1  0  0  0  0
  1  4  1  0  0  0  0
  1  5  1  0  0  0  0
  5  6  1  0  0  0  0
  5  7  1  0  0  0  0
  5  8  1  0  0  0  0
  8  9  1  0  0  0  0
  8 10  1  0  0  0  0
  8 11  1  0  0  0  0
 11 12  1  0  0  0  0
 11 13  1  0  0  0  0
 11 14  1  0  0  0  0
 14 15  1  0  0  0  0
 14 16  1  0  0  0  0
 14 17  1  0  0  0  0
 17 18  1  0  0  0  0
 17 19  1  0  0  0  0
 17 20  1  0  0  0  0
 20 21  1  0  0  0  0
 20 22  1  0  0  0  0
 22 23  1  0  0  0  0
 22 24  1  0  0  0  0
 22 25  1  0  0  0  0
 20 26  1  0  0  0  0
 26 27  1  0  0  0  0
 26 28  1  0  0  0  0
 26 29  1  0  0  0  0
M  END
> <VM2 Rank>
96

> <Conf_Id>
703

> <Probability>
0.02

> <Sum Probability>
99.27

> <Delta G>
3.733

> <G>
37.435

> <E>
-0.322

> <-TS>
37.757

> <U+W>
-24.466

> <U>
27.667

> <W>
-52.133

> <W(PB)>
-54.581

> <W(SA)>
2.448

> <Valence>
6.692

> <Coulomb>
19.695

> <VdW>
1.280

> <VdW6>
-9.753

> <VdW12>
11.033

> <Bond>
0.286

> <Angle>
1.948

> <Pdih>
4.458

> <Idih>
0.000

> <Tether>
0.000

$$$$
VeraChem MOL file


 29 28  0  0  0  0  0  0  0  0999 V2000     
   19.6762   19.5327   18.9981 C   0  0  0  0  0  0  0  0  0  0  0  0
   20.6481   20.0258   18.8656 H   0  0  0  0  0  0  0  0  0  0  0  0
   19.6022   18.7281   18.2550 H   0  0  0  0  0  0  0  0  0  0  0  0
   18.8883   20.2656   18.7805 H   0  0  0  0  0  0  0  0  0  0  0  0
   19.5311   18.9691   20.4276 C   0  0  0  0  0  0  0  0  0  0  0  0
   20.3084   18.2113   20.5904 H   0  0  0  0  0  0  0  0  0  0  0  0
   18.5629   18.4575   20.5201 H   0  0  0  0  0  0  0  0  0  0  0  0
   19.6358   20.0862   21.4931 C   0  0  0  0  0  0  0  0  0  0  0  0
   20.6235   20.5642   21.4359 H   0  0  0  0  0  0  0  0  0  0  0  0
   18.9015   20.8687   21.2565 H   0  0  0  0  0  0  0  0  0  0  0  0
   19.3770   19.5959   22.9392 C   0  0  0  0  0  0  0  0  0  0  0  0
   18.4080   19.0796   22.9833 H   0  0  0  0  0  0  0  0  0  0  0  0
   19.2964   20.4845   23.5764 H   0  0  0  0  0  0  0  0  0  0  0  0
   20.4953   18.6748   23.4891 C   0  0  0  0  0  0  0  0  0  0  0  0
   20.6679   17.8508   22.7857 H   0  0  0  0  0  0  0  0  0  0  0  0
   21.4387   19.2358   23.5380 H   0  0  0  0  0  0  0  0  0  0  0  0
   20.1977   18.0456   24.8759 C   0  0  0  0  0  0  0  0  0  0  0  0
   21.0164   17.3465   25.0932 H   0  0  0  0  0  0  0  0  0  0  0  0
   19.2877   17.4331   24.8264 H   0  0  0  0  0  0  0  0  0  0  0  0
   20.0898   19.0577   26.0413 C   0  0  2  0  0  0  0  0  0  0  0  0
   20.8361   19.8431   25.8874 H   0  0  0  0  0  0  0  0  0  0  0  0
   20.3884   18.3657   27.3816 C   0  0  0  0  0  0  0  0  0  0  0  0
   19.6755   17.5547   27.5769 H   0  0  0  0  0  0  0  0  0  0  0  0
   21.3999   17.9405   27.3853 H   0  0  0  0  0  0  0  0  0  0  0  0
   20.3279   19.0816   28.2107 H   0  0  0  0  0  0  0  0  0  0  0  0
   18.7448   19.7284   26.1081 N   0  3  0  0  0  0  0  0  0  0  0  0
   18.5196   20.2047   25.2319 H   0  0  0  0  0  0  0  0  0  0  0  0
   18.7119   20.4260   26.8571 H   0  0  0  0  0  0  0  0  0  0  0  0
   18.0004   19.0496   26.2896 H   0  0  0  0  0  0  0  0  0  0  0  0
  1  2  1  0  0  0  0
  1  3  1  0  0  0  0
  1  4  1  0  0  0  0
  1  5  1  0  0  0  0
  5  6  1  0  0  0  0
  5  7  1  0  0  0  0
  5  8  1  0  0  0  0
  8  9  1  0  0  0  0
  8 10  1  0  0  0  0
  8 11  1  0  0  0  0
 11 12  1  0  0  0  0
 11 13  1  0  0  0  0
 11 14  1  0  0  0  0
 14 15  1  0  0  0  0
 14 16  1  0  0  0  0
 14 17  1  0  0  0  0
 17 18  1  0  0  0  0
 17 19  1  0  0  0  0
 17 20  1  0  0  0  0
 20 21  1  0  0  0  0
 20 22  1  0  0  0  0
 22 23  1  0  0  0  0
 22 24  1  0  0  0  0
 22 25  1  0  0  0  0
 20 26  1  0  0  0  0
 26 27  1  0  0  0  0
 26 28  1  0  0  0  0
 26 29  1  0  0  0  0
M  END
> <VM2 Rank>
97

> <Conf_Id>
1511

> <Probability>
0.02

> <Sum Probability>
99.29

> <Delta G>
3.735

> <G>
37.437

> <E>
0.032

> <-TS>
37.405

> <U+W>
-24.113

> <U>
28.001

> <W>
-52.114

> <W(PB)>
-54.583

> <W(SA)>
2.469

> <Valence>
5.678

> <Coulomb>
21.086

> <VdW>
1.237

> <VdW6>
-9.584

> <VdW12>
10.821

> <Bond>
0.291

> <Angle>
1.936

> <Pdih>
3.451

> <Idih>
0.000

> <Tether>
0.000

$$$$
VeraChem MOL file


 29 28  0  0  0  0  0  0  0  0999 V2000     
   20.9073   20.3694   20.5249 C   0  0  0  0  0  0  0  0  0  0  0  0
   21.7109   19.7937   20.0475 H   0  0  0  0  0  0  0  0  0  0  0  0
   20.8960   21.3672   20.0675 H   0  0  0  0  0  0  0  0  0  0  0  0
   21.1636   20.4925   21.5828 H   0  0  0  0  0  0  0  0  0  0  0  0
   19.5405   19.6716   20.3334 C   0  0  0  0  0  0  0  0  0  0  0  0
   19.3414   19.6087   19.2544 H   0  0  0  0  0  0  0  0  0  0  0  0
   18.7341   20.2885   20.7539 H   0  0  0  0  0  0  0  0  0  0  0  0
   19.4906   18.2407   20.9283 C   0  0  0  0  0  0  0  0  0  0  0  0
   18.8598   17.6213   20.2758 H   0  0  0  0  0  0  0  0  0  0  0  0
   20.4882   17.7814   20.8973 H   0  0  0  0  0  0  0  0  0  0  0  0
   18.9065   18.1509   22.3619 C   0  0  0  0  0  0  0  0  0  0  0  0
   18.8586   17.0909   22.6472 H   0  0  0  0  0  0  0  0  0  0  0  0
   17.8692   18.5131   22.3558 H   0  0  0  0  0  0  0  0  0  0  0  0
   19.7152   18.9231   23.4298 C   0  0  0  0  0  0  0  0  0  0  0  0
   20.7717   18.6343   23.3571 H   0  0  0  0  0  0  0  0  0  0  0  0
   19.6547   20.0006   23.2291 H   0  0  0  0  0  0  0  0  0  0  0  0
   19.1859   18.6482   24.8587 C   0  0  0  0  0  0  0  0  0  0  0  0
   19.3073   17.5840   25.1006 H   0  0  0  0  0  0  0  0  0  0  0  0
   18.1067   18.8505   24.8763 H   0  0  0  0  0  0  0  0  0  0  0  0
   19.8628   19.5095   25.9492 C   0  0  2  0  0  0  0  0  0  0  0  0
   19.7596   20.5622   25.6683 H   0  0  0  0  0  0  0  0  0  0  0  0
   21.3611   19.1889   26.0955 C   0  0  0  0  0  0  0  0  0  0  0  0
   21.5198   18.1257   26.3147 H   0  0  0  0  0  0  0  0  0  0  0  0
   21.9134   19.4382   25.1821 H   0  0  0  0  0  0  0  0  0  0  0  0
   21.8034   19.7740   26.9112 H   0  0  0  0  0  0  0  0  0  0  0  0
   19.1662   19.3536   27.2724 N   0  3  0  0  0  0  0  0  0  0  0  0
   18.1752   19.6041   27.2087 H   0  0  0  0  0  0  0  0  0  0  0  0
   19.5862   19.9526   27.9890 H   0  0  0  0  0  0  0  0  0  0  0  0
   19.2187   18.3892   27.6113 H   0  0  0  0  0  0  0  0  0  0  0  0
  1  2  1  0  0  0  0
  1  3  1  0  0  0  0
  1  4  1  0  0  0  0
  1  5  1  0  0  0  0
  5  6  1  0  0  0  0
  5  7  1  0  0  0  0
  5  8  1  0  0  0  0
  8  9  1  0  0  0  0
  8 10  1  0  0  0  0
  8 11  1  0  0  0  0
 11 12  1  0  0  0  0
 11 13  1  0  0  0  0
 11 14  1  0  0  0  0
 14 15  1  0  0  0  0
 14 16  1  0  0  0  0
 14 17  1  0  0  0  0
 17 18  1  0  0  0  0
 17 19  1  0  0  0  0
 17 20  1  0  0  0  0
 20 21  1  0  0  0  0
 20 22  1  0  0  0  0
 22 23  1  0  0  0  0
 22 24  1  0  0  0  0
 22 25  1  0  0  0  0
 20 26  1  0  0  0  0
 26 27  1  0  0  0  0
 26 28  1  0  0  0  0
 26 29  1  0  0  0  0
M  END
> <VM2 Rank>
98

> <Conf_Id>
655

> <Probability>
0.02

> <Sum Probability>
99.30

> <Delta G>
3.749

> <G>
37.451

> <E>
-0.302

> <-TS>
37.753

> <U+W>
-24.446

> <U>
27.666

> <W>
-52.112

> <W(PB)>
-54.553

> <W(SA)>
2.441

> <Valence>
6.691

> <Coulomb>
19.707

> <VdW>
1.268

> <VdW6>
-9.727

> <VdW12>
10.995

> <Bond>
0.283

> <Angle>
1.951

> <Pdih>
4.457

> <Idih>
0.000

> <Tether>
0.000

$$$$
VeraChem MOL file


 29 28  0  0  0  0  0  0  0  0999 V2000     
   20.7505   18.0424   20.6076 C   0  0  0  0  0  0  0  0  0  0  0  0
   21.6826   18.5109   20.9487 H   0  0  0  0  0  0  0  0  0  0  0  0
   20.3152   17.4793   21.4423 H   0  0  0  0  0  0  0  0  0  0  0  0
   21.0058   17.3190   19.8224 H   0  0  0  0  0  0  0  0  0  0  0  0
   19.7614   19.0980   20.0672 C   0  0  0  0  0  0  0  0  0  0  0  0
   18.8171   18.6063   19.7948 H   0  0  0  0  0  0  0  0  0  0  0  0
   20.1667   19.5156   19.1350 H   0  0  0  0  0  0  0  0  0  0  0  0
   19.4754   20.2660   21.0453 C   0  0  0  0  0  0  0  0  0  0  0  0
   20.3986   20.8280   21.2426 H   0  0  0  0  0  0  0  0  0  0  0  0
   18.8048   20.9693   20.5324 H   0  0  0  0  0  0  0  0  0  0  0  0
   18.8051   19.8454   22.3792 C   0  0  0  0  0  0  0  0  0  0  0  0
   18.2012   18.9402   22.2276 H   0  0  0  0  0  0  0  0  0  0  0  0
   18.1008   20.6342   22.6776 H   0  0  0  0  0  0  0  0  0  0  0  0
   19.8137   19.6352   23.5351 C   0  0  0  0  0  0  0  0  0  0  0  0
   20.5605   18.8881   23.2461 H   0  0  0  0  0  0  0  0  0  0  0  0
   20.3588   20.5717   23.7165 H   0  0  0  0  0  0  0  0  0  0  0  0
   19.1048   19.1928   24.8387 C   0  0  0  0  0  0  0  0  0  0  0  0
   18.6083   18.2263   24.6801 H   0  0  0  0  0  0  0  0  0  0  0  0
   18.3114   19.9164   25.0680 H   0  0  0  0  0  0  0  0  0  0  0  0
   20.0482   19.0982   26.0596 C   0  0  2  0  0  0  0  0  0  0  0  0
   20.5639   20.0571   26.1702 H   0  0  0  0  0  0  0  0  0  0  0  0
   21.1057   17.9922   25.8923 C   0  0  0  0  0  0  0  0  0  0  0  0
   20.6355   17.0175   25.7121 H   0  0  0  0  0  0  0  0  0  0  0  0
   21.7809   18.2084   25.0564 H   0  0  0  0  0  0  0  0  0  0  0  0
   21.7242   17.9097   26.7946 H   0  0  0  0  0  0  0  0  0  0  0  0
   19.2712   18.8859   27.3290 N   0  3  0  0  0  0  0  0  0  0  0  0
   19.8884   18.8621   28.1458 H   0  0  0  0  0  0  0  0  0  0  0  0
   18.7567   18.0012   27.3091 H   0  0  0  0  0  0  0  0  0  0  0  0
   18.5900   19.6348   27.4839 H   0  0  0  0  0  0  0  0  0  0  0  0
  1  2  1  0  0  0  0
  1  3  1  0  0  0  0
  1  4  1  0  0  0  0
  1  5  1  0  0  0  0
  5  6  1  0  0  0  0
  5  7  1  0  0  0  0
  5  8  1  0  0  0  0
  8  9  1  0  0  0  0
  8 10  1  0  0  0  0
  8 11  1  0  0  0  0
 11 12  1  0  0  0  0
 11 13  1  0  0  0  0
 11 14  1  0  0  0  0
 14 15  1  0  0  0  0
 14 16  1  0  0  0  0
 14 17  1  0  0  0  0
 17 18  1  0  0  0  0
 17 19  1  0  0  0  0
 17 20  1  0  0  0  0
 20 21  1  0  0  0  0
 20 22  1  0  0  0  0
 22 23  1  0  0  0  0
 22 24  1  0  0  0  0
 22 25  1  0  0  0  0
 20 26  1  0  0  0  0
 26 27  1  0  0  0  0
 26 28  1  0  0  0  0
 26 29  1  0  0  0  0
M  END
> <VM2 Rank>
99

> <Conf_Id>
258

> <Probability>
0.02

> <Sum Probability>
99.32

> <Delta G>
3.756

> <G>
37.458

> <E>
-0.301

> <-TS>
37.759

> <U+W>
-24.446

> <U>
27.633

> <W>
-52.079

> <W(PB)>
-54.518

> <W(SA)>
2.439

> <Valence>
6.676

> <Coulomb>
19.710

> <VdW>
1.246

> <VdW6>
-9.759

> <VdW12>
11.005

> <Bond>
0.286

> <Angle>
1.893

> <Pdih>
4.497

> <Idih>
0.000

> <Tether>
0.000

$$$$
VeraChem MOL file


 29 28  0  0  0  0  0  0  0  0999 V2000     
   18.8985   17.9581   20.7184 C   0  0  0  0  0  0  0  0  0  0  0  0
   17.9466   18.2597   21.1742 H   0  0  0  0  0  0  0  0  0  0  0  0
   18.6748   17.2481   19.9117 H   0  0  0  0  0  0  0  0  0  0  0  0
   19.4930   17.4232   21.4694 H   0  0  0  0  0  0  0  0  0  0  0  0
   19.6632   19.1800   20.1647 C   0  0  0  0  0  0  0  0  0  0  0  0
   19.1104   19.5806   19.3035 H   0  0  0  0  0  0  0  0  0  0  0  0
   20.6378   18.8538   19.7754 H   0  0  0  0  0  0  0  0  0  0  0  0
   19.8702   20.3235   21.1905 C   0  0  0  0  0  0  0  0  0  0  0  0
   20.3764   21.1474   20.6687 H   0  0  0  0  0  0  0  0  0  0  0  0
   18.8986   20.7267   21.5076 H   0  0  0  0  0  0  0  0  0  0  0  0
   20.7237   19.9388   22.4271 C   0  0  0  0  0  0  0  0  0  0  0  0
   21.3295   20.8090   22.7154 H   0  0  0  0  0  0  0  0  0  0  0  0
   21.4370   19.1471   22.1597 H   0  0  0  0  0  0  0  0  0  0  0  0
   19.8768   19.5132   23.6513 C   0  0  0  0  0  0  0  0  0  0  0  0
   19.2178   20.3440   23.9355 H   0  0  0  0  0  0  0  0  0  0  0  0
   19.2265   18.6744   23.3810 H   0  0  0  0  0  0  0  0  0  0  0  0
   20.7730   19.1163   24.8531 C   0  0  0  0  0  0  0  0  0  0  0  0
   21.4441   19.9513   25.0938 H   0  0  0  0  0  0  0  0  0  0  0  0
   21.4231   18.2813   24.5601 H   0  0  0  0  0  0  0  0  0  0  0  0
   20.0050   18.7208   26.1364 C   0  0  2  0  0  0  0  0  0  0  0  0
   20.7509   18.4981   26.9057 H   0  0  0  0  0  0  0  0  0  0  0  0
   19.1532   17.4553   25.9348 C   0  0  0  0  0  0  0  0  0  0  0  0
   18.3184   17.6330   25.2465 H   0  0  0  0  0  0  0  0  0  0  0  0
   19.7618   16.6355   25.5335 H   0  0  0  0  0  0  0  0  0  0  0  0
   18.7329   17.1201   26.8909 H   0  0  0  0  0  0  0  0  0  0  0  0
   19.1723   19.8500   26.6778 N   0  3  0  0  0  0  0  0  0  0  0  0
   19.7407   20.6828   26.8572 H   0  0  0  0  0  0  0  0  0  0  0  0
   18.7203   19.5919   27.5597 H   0  0  0  0  0  0  0  0  0  0  0  0
   18.4347   20.1154   26.0205 H   0  0  0  0  0  0  0  0  0  0  0  0
  1  2  1  0  0  0  0
  1  3  1  0  0  0  0
  1  4  1  0  0  0  0
  1  5  1  0  0  0  0
  5  6  1  0  0  0  0
  5  7  1  0  0  0  0
  5  8  1  0  0  0  0
  8  9  1  0  0  0  0
  8 10  1  0  0  0  0
  8 11  1  0  0  0  0
 11 12  1  0  0  0  0
 11 13  1  0  0  0  0
 11 14  1  0  0  0  0
 14 15  1  0  0  0  0
 14 16  1  0  0  0  0
 14 17  1  0  0  0  0
 17 18  1  0  0  0  0
 17 19  1  0  0  0  0
 17 20  1  0  0  0  0
 20 21  1  0  0  0  0
 20 22  1  0  0  0  0
 22 23  1  0  0  0  0
 22 24  1  0  0  0  0
 22 25  1  0  0  0  0
 20 26  1  0  0  0  0
 26 27  1  0  0  0  0
 26 28  1  0  0  0  0
 26 29  1  0  0  0  0
M  END
> <VM2 Rank>
100

> <Conf_Id>
699

> <Probability>
0.02

> <Sum Probability>
99.34

> <Delta G>
3.771

> <G>
37.473

> <E>
-0.420

> <-TS>
37.893

> <U+W>
-24.564

> <U>
27.852

> <W>
-52.416

> <W(PB)>
-54.828

> <W(SA)>
2.412

> <Valence>
6.641

> <Coulomb>
19.992

> <VdW>
1.219

> <VdW6>
-10.253

> <VdW12>
11.472

> <Bond>
0.310

> <Angle>
1.946

> <Pdih>
4.385

> <Idih>
0.000

> <Tether>
0.000

$$$$
VeraChem MOL file


 29 28  0  0  0  0  0  0  0  0999 V2000     
   18.2553   19.4232   20.0096 C   0  0  0  0  0  0  0  0  0  0  0  0
   18.6990   19.0880   19.0630 H   0  0  0  0  0  0  0  0  0  0  0  0
   17.6339   18.6085   20.4035 H   0  0  0  0  0  0  0  0  0  0  0  0
   17.5968   20.2738   19.7905 H   0  0  0  0  0  0  0  0  0  0  0  0
   19.3476   19.8264   21.0225 C   0  0  0  0  0  0  0  0  0  0  0  0
   18.8689   20.1964   21.9369 H   0  0  0  0  0  0  0  0  0  0  0  0
   19.9290   20.6643   20.6132 H   0  0  0  0  0  0  0  0  0  0  0  0
   20.2952   18.6442   21.3389 C   0  0  0  0  0  0  0  0  0  0  0  0
   19.7215   17.7788   21.6982 H   0  0  0  0  0  0  0  0  0  0  0  0
   20.7671   18.3255   20.3992 H   0  0  0  0  0  0  0  0  0  0  0  0
   21.4143   19.0003   22.3521 C   0  0  0  0  0  0  0  0  0  0  0  0
   21.6774   20.0641   22.2724 H   0  0  0  0  0  0  0  0  0  0  0  0
   22.3211   18.4498   22.0658 H   0  0  0  0  0  0  0  0  0  0  0  0
   21.0950   18.6364   23.8251 C   0  0  0  0  0  0  0  0  0  0  0  0
   20.9327   17.5527   23.8960 H   0  0  0  0  0  0  0  0  0  0  0  0
   21.9824   18.8559   24.4348 H   0  0  0  0  0  0  0  0  0  0  0  0
   19.8792   19.3916   24.4176 C   0  0  0  0  0  0  0  0  0  0  0  0
   18.9568   19.0515   23.9303 H   0  0  0  0  0  0  0  0  0  0  0  0
   19.9857   20.4605   24.1912 H   0  0  0  0  0  0  0  0  0  0  0  0
   19.7345   19.2266   25.9474 C   0  0  2  0  0  0  0  0  0  0  0  0
   20.6746   19.5335   26.4162 H   0  0  0  0  0  0  0  0  0  0  0  0
   19.4438   17.7690   26.3473 C   0  0  0  0  0  0  0  0  0  0  0  0
   18.5380   17.3953   25.8539 H   0  0  0  0  0  0  0  0  0  0  0  0
   20.2776   17.1090   26.0809 H   0  0  0  0  0  0  0  0  0  0  0  0
   19.2990   17.6873   27.4316 H   0  0  0  0  0  0  0  0  0  0  0  0
   18.6710   20.1383   26.4934 N   0  3  0  0  0  0  0  0  0  0  0  0
   18.8675   21.1196   26.2760 H   0  0  0  0  0  0  0  0  0  0  0  0
   18.5994   20.0607   27.5120 H   0  0  0  0  0  0  0  0  0  0  0  0
   17.7509   19.9148   26.1046 H   0  0  0  0  0  0  0  0  0  0  0  0
  1  2  1  0  0  0  0
  1  3  1  0  0  0  0
  1  4  1  0  0  0  0
  1  5  1  0  0  0  0
  5  6  1  0  0  0  0
  5  7  1  0  0  0  0
  5  8  1  0  0  0  0
  8  9  1  0  0  0  0
  8 10  1  0  0  0  0
  8 11  1  0  0  0  0
 11 12  1  0  0  0  0
 11 13  1  0  0  0  0
 11 14  1  0  0  0  0
 14 15  1  0  0  0  0
 14 16  1  0  0  0  0
 14 17  1  0  0  0  0
 17 18  1  0  0  0  0
 17 19  1  0  0  0  0
 17 20  1  0  0  0  0
 20 21  1  0  0  0  0
 20 22  1  0  0  0  0
 22 23  1  0  0  0  0
 22 24  1  0  0  0  0
 22 25  1  0  0  0  0
 20 26  1  0  0  0  0
 26 27  1  0  0  0  0
 26 28  1  0  0  0  0
 26 29  1  0  0  0  0
M  END
> <VM2 Rank>
101

> <Conf_Id>
145

> <Probability>
0.02

> <Sum Probability>
99.36

> <Delta G>
3.774

> <G>
37.476

> <E>
-0.326

> <-TS>
37.802

> <U+W>
-24.470

> <U>
28.013

> <W>
-52.484

> <W(PB)>
-54.955

> <W(SA)>
2.471

> <Valence>
6.671

> <Coulomb>
20.180

> <VdW>
1.162

> <VdW6>
-9.853

> <VdW12>
11.014

> <Bond>
0.284

> <Angle>
1.876

> <Pdih>
4.511

> <Idih>
0.000

> <Tether>
0.000

$$$$
VeraChem MOL file


 29 28  0  0  0  0  0  0  0  0999 V2000     
   20.5550   19.7384   19.3122 C   0  0  0  0  0  0  0  0  0  0  0  0
   20.6285   18.7820   18.7782 H   0  0  0  0  0  0  0  0  0  0  0  0
   19.6719   20.2723   18.9378 H   0  0  0  0  0  0  0  0  0  0  0  0
   21.4417   20.3342   19.0593 H   0  0  0  0  0  0  0  0  0  0  0  0
   20.4637   19.5174   20.8369 C   0  0  0  0  0  0  0  0  0  0  0  0
   20.4340   20.4946   21.3366 H   0  0  0  0  0  0  0  0  0  0  0  0
   21.3728   19.0082   21.1860 H   0  0  0  0  0  0  0  0  0  0  0  0
   19.2183   18.6826   21.2178 C   0  0  0  0  0  0  0  0  0  0  0  0
   18.3065   19.2159   20.9154 H   0  0  0  0  0  0  0  0  0  0  0  0
   19.2305   17.7445   20.6459 H   0  0  0  0  0  0  0  0  0  0  0  0
   19.1437   18.3363   22.7250 C   0  0  0  0  0  0  0  0  0  0  0  0
   20.0543   17.8001   23.0177 H   0  0  0  0  0  0  0  0  0  0  0  0
   18.3148   17.6310   22.8759 H   0  0  0  0  0  0  0  0  0  0  0  0
   18.9170   19.5735   23.6322 C   0  0  0  0  0  0  0  0  0  0  0  0
   19.7214   20.3093   23.5048 H   0  0  0  0  0  0  0  0  0  0  0  0
   17.9947   20.0723   23.3036 H   0  0  0  0  0  0  0  0  0  0  0  0
   18.7727   19.2149   25.1352 C   0  0  0  0  0  0  0  0  0  0  0  0
   18.3743   18.1980   25.2488 H   0  0  0  0  0  0  0  0  0  0  0  0
   18.0150   19.8821   25.5671 H   0  0  0  0  0  0  0  0  0  0  0  0
   20.0656   19.3785   25.9701 C   0  0  2  0  0  0  0  0  0  0  0  0
   20.4008   20.4162   25.8783 H   0  0  0  0  0  0  0  0  0  0  0  0
   21.2057   18.4632   25.4932 C   0  0  0  0  0  0  0  0  0  0  0  0
   20.8900   17.4127   25.4717 H   0  0  0  0  0  0  0  0  0  0  0  0
   21.5441   18.7474   24.4902 H   0  0  0  0  0  0  0  0  0  0  0  0
   22.0725   18.5449   26.1604 H   0  0  0  0  0  0  0  0  0  0  0  0
   19.7944   19.1512   27.4314 N   0  3  0  0  0  0  0  0  0  0  0  0
   19.0707   19.7845   27.7838 H   0  0  0  0  0  0  0  0  0  0  0  0
   20.6348   19.3048   27.9960 H   0  0  0  0  0  0  0  0  0  0  0  0
   19.4784   18.1938   27.6083 H   0  0  0  0  0  0  0  0  0  0  0  0
  1  2  1  0  0  0  0
  1  3  1  0  0  0  0
  1  4  1  0  0  0  0
  1  5  1  0  0  0  0
  5  6  1  0  0  0  0
  5  7  1  0  0  0  0
  5  8  1  0  0  0  0
  8  9  1  0  0  0  0
  8 10  1  0  0  0  0
  8 11  1  0  0  0  0
 11 12  1  0  0  0  0
 11 13  1  0  0  0  0
 11 14  1  0  0  0  0
 14 15  1  0  0  0  0
 14 16  1  0  0  0  0
 14 17  1  0  0  0  0
 17 18  1  0  0  0  0
 17 19  1  0  0  0  0
 17 20  1  0  0  0  0
 20 21  1  0  0  0  0
 20 22  1  0  0  0  0
 22 23  1  0  0  0  0
 22 24  1  0  0  0  0
 22 25  1  0  0  0  0
 20 26  1  0  0  0  0
 26 27  1  0  0  0  0
 26 28  1  0  0  0  0
 26 29  1  0  0  0  0
M  END
> <VM2 Rank>
102

> <Conf_Id>
290

> <Probability>
0.02

> <Sum Probability>
99.38

> <Delta G>
3.783

> <G>
37.485

> <E>
-0.253

> <-TS>
37.738

> <U+W>
-24.398

> <U>
27.862

> <W>
-52.260

> <W(PB)>
-54.709

> <W(SA)>
2.449

> <Valence>
6.792

> <Coulomb>
19.861

> <VdW>
1.209

> <VdW6>
-9.832

> <VdW12>
11.041

> <Bond>
0.295

> <Angle>
1.936

> <Pdih>
4.561

> <Idih>
0.000

> <Tether>
0.000

$$$$
VeraChem MOL file


 29 28  0  0  0  0  0  0  0  0999 V2000     
   20.1561   17.8137   20.0316 C   0  0  0  0  0  0  0  0  0  0  0  0
   21.2419   17.7719   20.1875 H   0  0  0  0  0  0  0  0  0  0  0  0
   19.6729   17.2112   20.8106 H   0  0  0  0  0  0  0  0  0  0  0  0
   19.9371   17.3404   19.0657 H   0  0  0  0  0  0  0  0  0  0  0  0
   19.6485   19.2735   20.0455 C   0  0  0  0  0  0  0  0  0  0  0  0
   18.5568   19.2866   19.9203 H   0  0  0  0  0  0  0  0  0  0  0  0
   20.0641   19.8008   19.1755 H   0  0  0  0  0  0  0  0  0  0  0  0
   20.0379   20.0483   21.3275 C   0  0  0  0  0  0  0  0  0  0  0  0
   21.1311   20.0475   21.4382 H   0  0  0  0  0  0  0  0  0  0  0  0
   19.7404   21.0988   21.2043 H   0  0  0  0  0  0  0  0  0  0  0  0
   19.3832   19.4847   22.6113 C   0  0  0  0  0  0  0  0  0  0  0  0
   19.7164   18.4538   22.7730 H   0  0  0  0  0  0  0  0  0  0  0  0
   18.2935   19.4451   22.4769 H   0  0  0  0  0  0  0  0  0  0  0  0
   19.7156   20.3517   23.8505 C   0  0  0  0  0  0  0  0  0  0  0  0
   20.8030   20.4669   23.9588 H   0  0  0  0  0  0  0  0  0  0  0  0
   19.3201   21.3621   23.6769 H   0  0  0  0  0  0  0  0  0  0  0  0
   19.1042   19.8040   25.1674 C   0  0  0  0  0  0  0  0  0  0  0  0
   18.1938   19.2280   24.9545 H   0  0  0  0  0  0  0  0  0  0  0  0
   18.7798   20.6637   25.7686 H   0  0  0  0  0  0  0  0  0  0  0  0
   20.0744   18.9685   26.0370 C   0  0  2  0  0  0  0  0  0  0  0  0
   20.9441   19.5907   26.2697 H   0  0  0  0  0  0  0  0  0  0  0  0
   20.5708   17.6976   25.3273 C   0  0  0  0  0  0  0  0  0  0  0  0
   19.7316   17.0787   24.9863 H   0  0  0  0  0  0  0  0  0  0  0  0
   21.1944   17.9489   24.4616 H   0  0  0  0  0  0  0  0  0  0  0  0
   21.1876   17.0927   26.0034 H   0  0  0  0  0  0  0  0  0  0  0  0
   19.4452   18.6140   27.3557 N   0  3  0  0  0  0  0  0  0  0  0  0
   20.0983   18.1021   27.9559 H   0  0  0  0  0  0  0  0  0  0  0  0
   18.6194   18.0227   27.2288 H   0  0  0  0  0  0  0  0  0  0  0  0
   19.1500   19.4492   27.8696 H   0  0  0  0  0  0  0  0  0  0  0  0
  1  2  1  0  0  0  0
  1  3  1  0  0  0  0
  1  4  1  0  0  0  0
  1  5  1  0  0  0  0
  5  6  1  0  0  0  0
  5  7  1  0  0  0  0
  5  8  1  0  0  0  0
  8  9  1  0  0  0  0
  8 10  1  0  0  0  0
  8 11  1  0  0  0  0
 11 12  1  0  0  0  0
 11 13  1  0  0  0  0
 11 14  1  0  0  0  0
 14 15  1  0  0  0  0
 14 16  1  0  0  0  0
 14 17  1  0  0  0  0
 17 18  1  0  0  0  0
 17 19  1  0  0  0  0
 17 20  1  0  0  0  0
 20 21  1  0  0  0  0
 20 22  1  0  0  0  0
 22 23  1  0  0  0  0
 22 24  1  0  0  0  0
 22 25  1  0  0  0  0
 20 26  1  0  0  0  0
 26 27  1  0  0  0  0
 26 28  1  0  0  0  0
 26 29  1  0  0  0  0
M  END
> <VM2 Rank>
103

> <Conf_Id>
195

> <Probability>
0.02

> <Sum Probability>
99.40

> <Delta G>
3.804

> <G>
37.506

> <E>
-0.288

> <-TS>
37.793

> <U+W>
-24.432

> <U>
27.713

> <W>
-52.145

> <W(PB)>
-54.603

> <W(SA)>
2.458

> <Valence>
6.758

> <Coulomb>
19.720

> <VdW>
1.236

> <VdW6>
-9.782

> <VdW12>
11.017

> <Bond>
0.287

> <Angle>
1.880

> <Pdih>
4.591

> <Idih>
0.000

> <Tether>
0.000

$$$$
VeraChem MOL file


 29 28  0  0  0  0  0  0  0  0999 V2000     
   19.3863   18.8042   19.3280 C   0  0  0  0  0  0  0  0  0  0  0  0
   19.3335   17.8149   18.8554 H   0  0  0  0  0  0  0  0  0  0  0  0
   18.4827   19.3606   19.0468 H   0  0  0  0  0  0  0  0  0  0  0  0
   20.2554   19.3306   18.9123 H   0  0  0  0  0  0  0  0  0  0  0  0
   19.5010   18.6701   20.8612 C   0  0  0  0  0  0  0  0  0  0  0  0
   20.3922   18.0751   21.1013 H   0  0  0  0  0  0  0  0  0  0  0  0
   18.6337   18.1143   21.2440 H   0  0  0  0  0  0  0  0  0  0  0  0
   19.5811   20.0530   21.5498 C   0  0  0  0  0  0  0  0  0  0  0  0
   20.4755   20.5885   21.2025 H   0  0  0  0  0  0  0  0  0  0  0  0
   18.7192   20.6585   21.2372 H   0  0  0  0  0  0  0  0  0  0  0  0
   19.5909   19.9728   23.0958 C   0  0  0  0  0  0  0  0  0  0  0  0
   18.6806   19.4579   23.4262 H   0  0  0  0  0  0  0  0  0  0  0  0
   19.5453   20.9946   23.4970 H   0  0  0  0  0  0  0  0  0  0  0  0
   20.8423   19.2582   23.6644 C   0  0  0  0  0  0  0  0  0  0  0  0
   20.8207   18.1933   23.3998 H   0  0  0  0  0  0  0  0  0  0  0  0
   21.7344   19.6697   23.1725 H   0  0  0  0  0  0  0  0  0  0  0  0
   21.0331   19.4116   25.1997 C   0  0  0  0  0  0  0  0  0  0  0  0
   21.1759   20.4725   25.4435 H   0  0  0  0  0  0  0  0  0  0  0  0
   21.9781   18.9218   25.4690 H   0  0  0  0  0  0  0  0  0  0  0  0
   19.9273   18.8290   26.1165 C   0  0  2  0  0  0  0  0  0  0  0  0
   20.3270   18.8341   27.1353 H   0  0  0  0  0  0  0  0  0  0  0  0
   19.5811   17.3712   25.7671 C   0  0  0  0  0  0  0  0  0  0  0  0
   19.0853   17.2953   24.7919 H   0  0  0  0  0  0  0  0  0  0  0  0
   20.4863   16.7520   25.7426 H   0  0  0  0  0  0  0  0  0  0  0  0
   18.9068   16.9455   26.5202 H   0  0  0  0  0  0  0  0  0  0  0  0
   18.6928   19.6859   26.1714 N   0  3  0  0  0  0  0  0  0  0  0  0
   18.2447   19.7498   25.2551 H   0  0  0  0  0  0  0  0  0  0  0  0
   18.9121   20.6389   26.4755 H   0  0  0  0  0  0  0  0  0  0  0  0
   18.0040   19.3066   26.8275 H   0  0  0  0  0  0  0  0  0  0  0  0
  1  2  1  0  0  0  0
  1  3  1  0  0  0  0
  1  4  1  0  0  0  0
  1  5  1  0  0  0  0
  5  6  1  0  0  0  0
  5  7  1  0  0  0  0
  5  8  1  0  0  0  0
  8  9  1  0  0  0  0
  8 10  1  0  0  0  0
  8 11  1  0  0  0  0
 11 12  1  0  0  0  0
 11 13  1  0  0  0  0
 11 14  1  0  0  0  0
 14 15  1  0  0  0  0
 14 16  1  0  0  0  0
 14 17  1  0  0  0  0
 17 18  1  0  0  0  0
 17 19  1  0  0  0  0
 17 20  1  0  0  0  0
 20 21  1  0  0  0  0
 20 22  1  0  0  0  0
 22 23  1  0  0  0  0
 22 24  1  0  0  0  0
 22 25  1  0  0  0  0
 20 26  1  0  0  0  0
 26 27  1  0  0  0  0
 26 28  1  0  0  0  0
 26 29  1  0  0  0  0
M  END
> <VM2 Rank>
104

> <Conf_Id>
546

> <Probability>
0.02

> <Sum Probability>
99.41

> <Delta G>
3.829

> <G>
37.532

> <E>
-0.571

> <-TS>
38.103

> <U+W>
-24.716

> <U>
27.804

> <W>
-52.520

> <W(PB)>
-54.966

> <W(SA)>
2.446

> <Valence>
5.527

> <Coulomb>
21.305

> <VdW>
0.973

> <VdW6>
-10.820

> <VdW12>
11.793

> <Bond>
0.332

> <Angle>
2.322

> <Pdih>
2.873

> <Idih>
0.000

> <Tether>
0.000

$$$$
VeraChem MOL file


 29 28  0  0  0  0  0  0  0  0999 V2000     
   20.6370   18.3337   19.8455 C   0  0  0  0  0  0  0  0  0  0  0  0
   19.7405   17.7991   19.5056 H   0  0  0  0  0  0  0  0  0  0  0  0
   21.3595   18.3372   19.0191 H   0  0  0  0  0  0  0  0  0  0  0  0
   21.0838   17.7666   20.6715 H   0  0  0  0  0  0  0  0  0  0  0  0
   20.2940   19.7797   20.2698 C   0  0  0  0  0  0  0  0  0  0  0  0
   19.9668   20.3407   19.3833 H   0  0  0  0  0  0  0  0  0  0  0  0
   21.2006   20.2825   20.6345 H   0  0  0  0  0  0  0  0  0  0  0  0
   19.1834   19.8582   21.3449 C   0  0  0  0  0  0  0  0  0  0  0  0
   18.9309   20.9149   21.5090 H   0  0  0  0  0  0  0  0  0  0  0  0
   18.2712   19.3776   20.9652 H   0  0  0  0  0  0  0  0  0  0  0  0
   19.5873   19.2195   22.6951 C   0  0  0  0  0  0  0  0  0  0  0  0
   20.5314   19.6665   23.0327 H   0  0  0  0  0  0  0  0  0  0  0  0
   19.7648   18.1445   22.5602 H   0  0  0  0  0  0  0  0  0  0  0  0
   18.4968   19.4226   23.7727 C   0  0  0  0  0  0  0  0  0  0  0  0
   18.3698   20.4967   23.9668 H   0  0  0  0  0  0  0  0  0  0  0  0
   17.5347   19.0656   23.3800 H   0  0  0  0  0  0  0  0  0  0  0  0
   18.7814   18.6906   25.1089 C   0  0  0  0  0  0  0  0  0  0  0  0
   18.8211   17.6056   24.9438 H   0  0  0  0  0  0  0  0  0  0  0  0
   17.9163   18.8582   25.7641 H   0  0  0  0  0  0  0  0  0  0  0  0
   20.0638   19.1756   25.8278 C   0  0  2  0  0  0  0  0  0  0  0  0
   20.3219   20.1644   25.4364 H   0  0  0  0  0  0  0  0  0  0  0  0
   21.2480   18.2220   25.5843 C   0  0  0  0  0  0  0  0  0  0  0  0
   22.1602   18.6124   26.0520 H   0  0  0  0  0  0  0  0  0  0  0  0
   21.0487   17.2294   26.0072 H   0  0  0  0  0  0  0  0  0  0  0  0
   21.4523   18.0972   24.5153 H   0  0  0  0  0  0  0  0  0  0  0  0
   19.8443   19.3541   27.3050 N   0  3  0  0  0  0  0  0  0  0  0  0
   20.6874   19.7050   27.7686 H   0  0  0  0  0  0  0  0  0  0  0  0
   19.5935   18.4697   27.7555 H   0  0  0  0  0  0  0  0  0  0  0  0
   19.0915   20.0219   27.4958 H   0  0  0  0  0  0  0  0  0  0  0  0
  1  2  1  0  0  0  0
  1  3  1  0  0  0  0
  1  4  1  0  0  0  0
  1  5  1  0  0  0  0
  5  6  1  0  0  0  0
  5  7  1  0  0  0  0
  5  8  1  0  0  0  0
  8  9  1  0  0  0  0
  8 10  1  0  0  0  0
  8 11  1  0  0  0  0
 11 12  1  0  0  0  0
 11 13  1  0  0  0  0
 11 14  1  0  0  0  0
 14 15  1  0  0  0  0
 14 16  1  0  0  0  0
 14 17  1  0  0  0  0
 17 18  1  0  0  0  0
 17 19  1  0  0  0  0
 17 20  1  0  0  0  0
 20 21  1  0  0  0  0
 20 22  1  0  0  0  0
 22 23  1  0  0  0  0
 22 24  1  0  0  0  0
 22 25  1  0  0  0  0
 20 26  1  0  0  0  0
 26 27  1  0  0  0  0
 26 28  1  0  0  0  0
 26 29  1  0  0  0  0
M  END
> <VM2 Rank>
105

> <Conf_Id>
1046

> <Probability>
0.02

> <Sum Probability>
99.43

> <Delta G>
3.839

> <G>
37.541

> <E>
-0.122

> <-TS>
37.663

> <U+W>
-24.266

> <U>
27.819

> <W>
-52.086

> <W(PB)>
-54.560

> <W(SA)>
2.474

> <Valence>
6.783

> <Coulomb>
19.802

> <VdW>
1.234

> <VdW6>
-9.714

> <VdW12>
10.948

> <Bond>
0.259

> <Angle>
1.621

> <Pdih>
4.902

> <Idih>
0.000

> <Tether>
0.000

$$$$
VeraChem MOL file


 29 28  0  0  0  0  0  0  0  0999 V2000     
   21.0216   20.1822   20.2302 C   0  0  0  0  0  0  0  0  0  0  0  0
   21.6848   20.1933   19.3556 H   0  0  0  0  0  0  0  0  0  0  0  0
   20.5019   21.1484   20.2697 H   0  0  0  0  0  0  0  0  0  0  0  0
   21.6542   20.0945   21.1221 H   0  0  0  0  0  0  0  0  0  0  0  0
   20.0150   19.0136   20.1304 C   0  0  0  0  0  0  0  0  0  0  0  0
   20.5577   18.0580   20.1258 H   0  0  0  0  0  0  0  0  0  0  0  0
   19.4947   19.0763   19.1644 H   0  0  0  0  0  0  0  0  0  0  0  0
   18.9601   19.0110   21.2629 C   0  0  0  0  0  0  0  0  0  0  0  0
   18.4048   19.9590   21.2493 H   0  0  0  0  0  0  0  0  0  0  0  0
   18.2268   18.2200   21.0535 H   0  0  0  0  0  0  0  0  0  0  0  0
   19.5657   18.7811   22.6681 C   0  0  0  0  0  0  0  0  0  0  0  0
   20.2479   19.6057   22.9085 H   0  0  0  0  0  0  0  0  0  0  0  0
   20.1593   17.8566   22.6639 H   0  0  0  0  0  0  0  0  0  0  0  0
   18.4701   18.6883   23.7557 C   0  0  0  0  0  0  0  0  0  0  0  0
   17.9205   19.6387   23.8025 H   0  0  0  0  0  0  0  0  0  0  0  0
   17.7373   17.9238   23.4629 H   0  0  0  0  0  0  0  0  0  0  0  0
   19.0058   18.3357   25.1667 C   0  0  0  0  0  0  0  0  0  0  0  0
   19.4807   17.3455   25.1533 H   0  0  0  0  0  0  0  0  0  0  0  0
   18.1372   18.2375   25.8313 H   0  0  0  0  0  0  0  0  0  0  0  0
   19.9749   19.3924   25.7507 C   0  0  2  0  0  0  0  0  0  0  0  0
   19.8225   20.3315   25.2099 H   0  0  0  0  0  0  0  0  0  0  0  0
   21.4454   18.9638   25.5942 C   0  0  0  0  0  0  0  0  0  0  0  0
   22.1176   19.7507   25.9580 H   0  0  0  0  0  0  0  0  0  0  0  0
   21.6531   18.0502   26.1652 H   0  0  0  0  0  0  0  0  0  0  0  0
   21.6999   18.7704   24.5463 H   0  0  0  0  0  0  0  0  0  0  0  0
   19.6773   19.6879   27.1951 N   0  3  0  0  0  0  0  0  0  0  0  0
   19.7937   18.8551   27.7789 H   0  0  0  0  0  0  0  0  0  0  0  0
   18.7172   20.0214   27.3211 H   0  0  0  0  0  0  0  0  0  0  0  0
   20.3017   20.4104   27.5652 H   0  0  0  0  0  0  0  0  0  0  0  0
  1  2  1  0  0  0  0
  1  3  1  0  0  0  0
  1  4  1  0  0  0  0
  1  5  1  0  0  0  0
  5  6  1  0  0  0  0
  5  7  1  0  0  0  0
  5  8  1  0  0  0  0
  8  9  1  0  0  0  0
  8 10  1  0  0  0  0
  8 11  1  0  0  0  0
 11 12  1  0  0  0  0
 11 13  1  0  0  0  0
 11 14  1  0  0  0  0
 14 15  1  0  0  0  0
 14 16  1  0  0  0  0
 14 17  1  0  0  0  0
 17 18  1  0  0  0  0
 17 19  1  0  0  0  0
 17 20  1  0  0  0  0
 20 21  1  0  0  0  0
 20 22  1  0  0  0  0
 22 23  1  0  0  0  0
 22 24  1  0  0  0  0
 22 25  1  0  0  0  0
 20 26  1  0  0  0  0
 26 27  1  0  0  0  0
 26 28  1  0  0  0  0
 26 29  1  0  0  0  0
M  END
> <VM2 Rank>
106

> <Conf_Id>
237

> <Probability>
0.02

> <Sum Probability>
99.45

> <Delta G>
3.848

> <G>
37.550

> <E>
-0.112

> <-TS>
37.662

> <U+W>
-24.257

> <U>
27.879

> <W>
-52.135

> <W(PB)>
-54.595

> <W(SA)>
2.460

> <Valence>
6.781

> <Coulomb>
19.866

> <VdW>
1.231

> <VdW6>
-9.740

> <VdW12>
10.970

> <Bond>
0.261

> <Angle>
1.614

> <Pdih>
4.906

> <Idih>
0.000

> <Tether>
0.000

$$$$
VeraChem MOL file


 29 28  0  0  0  0  0  0  0  0999 V2000     
   20.8592   19.9908   19.8046 C   0  0  0  0  0  0  0  0  0  0  0  0
   20.9978   21.0301   19.4794 H   0  0  0  0  0  0  0  0  0  0  0  0
   21.8273   19.6179   20.1637 H   0  0  0  0  0  0  0  0  0  0  0  0
   20.5690   19.3989   18.9267 H   0  0  0  0  0  0  0  0  0  0  0  0
   19.7872   19.9044   20.9113 C   0  0  0  0  0  0  0  0  0  0  0  0
   18.8414   20.3158   20.5318 H   0  0  0  0  0  0  0  0  0  0  0  0
   20.0879   20.5402   21.7525 H   0  0  0  0  0  0  0  0  0  0  0  0
   19.5665   18.4454   21.3781 C   0  0  0  0  0  0  0  0  0  0  0  0
   19.2369   17.8565   20.5109 H   0  0  0  0  0  0  0  0  0  0  0  0
   20.5162   17.9989   21.7035 H   0  0  0  0  0  0  0  0  0  0  0  0
   18.5011   18.3085   22.4971 C   0  0  0  0  0  0  0  0  0  0  0  0
   17.9461   17.3754   22.3273 H   0  0  0  0  0  0  0  0  0  0  0  0
   17.7571   19.1129   22.4167 H   0  0  0  0  0  0  0  0  0  0  0  0
   19.0752   18.2532   23.9363 C   0  0  0  0  0  0  0  0  0  0  0  0
   18.2407   18.0731   24.6264 H   0  0  0  0  0  0  0  0  0  0  0  0
   19.7380   17.3818   24.0211 H   0  0  0  0  0  0  0  0  0  0  0  0
   19.8356   19.5359   24.3658 C   0  0  0  0  0  0  0  0  0  0  0  0
   19.2158   20.4153   24.1479 H   0  0  0  0  0  0  0  0  0  0  0  0
   20.7446   19.6395   23.7604 H   0  0  0  0  0  0  0  0  0  0  0  0
   20.2436   19.5804   25.8573 C   0  0  2  0  0  0  0  0  0  0  0  0
   20.7659   20.5277   26.0234 H   0  0  0  0  0  0  0  0  0  0  0  0
   21.2127   18.4433   26.2249 C   0  0  0  0  0  0  0  0  0  0  0  0
   20.7258   17.4623   26.1693 H   0  0  0  0  0  0  0  0  0  0  0  0
   22.0788   18.4363   25.5515 H   0  0  0  0  0  0  0  0  0  0  0  0
   21.5874   18.5741   27.2475 H   0  0  0  0  0  0  0  0  0  0  0  0
   19.0549   19.5943   26.7786 N   0  3  0  0  0  0  0  0  0  0  0  0
   18.5127   18.7306   26.6984 H   0  0  0  0  0  0  0  0  0  0  0  0
   18.4259   20.3744   26.5680 H   0  0  0  0  0  0  0  0  0  0  0  0
   19.3414   19.6874   27.7573 H   0  0  0  0  0  0  0  0  0  0  0  0
  1  2  1  0  0  0  0
  1  3  1  0  0  0  0
  1  4  1  0  0  0  0
  1  5  1  0  0  0  0
  5  6  1  0  0  0  0
  5  7  1  0  0  0  0
  5  8  1  0  0  0  0
  8  9  1  0  0  0  0
  8 10  1  0  0  0  0
  8 11  1  0  0  0  0
 11 12  1  0  0  0  0
 11 13  1  0  0  0  0
 11 14  1  0  0  0  0
 14 15  1  0  0  0  0
 14 16  1  0  0  0  0
 14 17  1  0  0  0  0
 17 18  1  0  0  0  0
 17 19  1  0  0  0  0
 17 20  1  0  0  0  0
 20 21  1  0  0  0  0
 20 22  1  0  0  0  0
 22 23  1  0  0  0  0
 22 24  1  0  0  0  0
 22 25  1  0  0  0  0
 20 26  1  0  0  0  0
 26 27  1  0  0  0  0
 26 28  1  0  0  0  0
 26 29  1  0  0  0  0
M  END
> <VM2 Rank>
107

> <Conf_Id>
113

> <Probability>
0.02

> <Sum Probability>
99.46

> <Delta G>
3.860

> <G>
37.562

> <E>
-0.373

> <-TS>
37.935

> <U+W>
-24.518

> <U>
27.916

> <W>
-52.434

> <W(PB)>
-54.867

> <W(SA)>
2.433

> <Valence>
6.693

> <Coulomb>
20.015

> <VdW>
1.208

> <VdW6>
-10.294

> <VdW12>
11.502

> <Bond>
0.312

> <Angle>
1.940

> <Pdih>
4.441

> <Idih>
0.000

> <Tether>
0.000

$$$$
VeraChem MOL file


 29 28  0  0  0  0  0  0  0  0999 V2000     
   19.6271   20.0609   19.7016 C   0  0  0  0  0  0  0  0  0  0  0  0
   18.7726   19.3819   19.5943 H   0  0  0  0  0  0  0  0  0  0  0  0
   19.2513   21.0379   20.0321 H   0  0  0  0  0  0  0  0  0  0  0  0
   20.0700   20.1916   18.7058 H   0  0  0  0  0  0  0  0  0  0  0  0
   20.6774   19.5060   20.6907 C   0  0  0  0  0  0  0  0  0  0  0  0
   21.5632   20.1558   20.6623 H   0  0  0  0  0  0  0  0  0  0  0  0
   21.0135   18.5140   20.3579 H   0  0  0  0  0  0  0  0  0  0  0  0
   20.1704   19.4260   22.1511 C   0  0  0  0  0  0  0  0  0  0  0  0
   21.0291   19.1777   22.7872 H   0  0  0  0  0  0  0  0  0  0  0  0
   19.8118   20.4142   22.4699 H   0  0  0  0  0  0  0  0  0  0  0  0
   19.0607   18.3662   22.3622 C   0  0  0  0  0  0  0  0  0  0  0  0
   19.4622   17.3697   22.1326 H   0  0  0  0  0  0  0  0  0  0  0  0
   18.2475   18.5390   21.6462 H   0  0  0  0  0  0  0  0  0  0  0  0
   18.4398   18.3571   23.7833 C   0  0  0  0  0  0  0  0  0  0  0  0
   17.9236   19.3072   23.9710 H   0  0  0  0  0  0  0  0  0  0  0  0
   17.6524   17.5907   23.7914 H   0  0  0  0  0  0  0  0  0  0  0  0
   19.4337   18.0315   24.9314 C   0  0  0  0  0  0  0  0  0  0  0  0
   20.1526   17.2785   24.5820 H   0  0  0  0  0  0  0  0  0  0  0  0
   18.8801   17.5591   25.7538 H   0  0  0  0  0  0  0  0  0  0  0  0
   20.1882   19.2573   25.4968 C   0  0  2  0  0  0  0  0  0  0  0  0
   20.6756   19.7853   24.6743 H   0  0  0  0  0  0  0  0  0  0  0  0
   21.2750   18.8044   26.4844 C   0  0  0  0  0  0  0  0  0  0  0  0
   20.8385   18.2719   27.3388 H   0  0  0  0  0  0  0  0  0  0  0  0
   21.9920   18.1341   25.9941 H   0  0  0  0  0  0  0  0  0  0  0  0
   21.8347   19.6662   26.8684 H   0  0  0  0  0  0  0  0  0  0  0  0
   19.2637   20.2466   26.1524 N   0  3  0  0  0  0  0  0  0  0  0  0
   19.7756   21.0597   26.5065 H   0  0  0  0  0  0  0  0  0  0  0  0
   18.7700   19.8268   26.9446 H   0  0  0  0  0  0  0  0  0  0  0  0
   18.5574   20.5905   25.4964 H   0  0  0  0  0  0  0  0  0  0  0  0
  1  2  1  0  0  0  0
  1  3  1  0  0  0  0
  1  4  1  0  0  0  0
  1  5  1  0  0  0  0
  5  6  1  0  0  0  0
  5  7  1  0  0  0  0
  5  8  1  0  0  0  0
  8  9  1  0  0  0  0
  8 10  1  0  0  0  0
  8 11  1  0  0  0  0
 11 12  1  0  0  0  0
 11 13  1  0  0  0  0
 11 14  1  0  0  0  0
 14 15  1  0  0  0  0
 14 16  1  0  0  0  0
 14 17  1  0  0  0  0
 17 18  1  0  0  0  0
 17 19  1  0  0  0  0
 17 20  1  0  0  0  0
 20 21  1  0  0  0  0
 20 22  1  0  0  0  0
 22 23  1  0  0  0  0
 22 24  1  0  0  0  0
 22 25  1  0  0  0  0
 20 26  1  0  0  0  0
 26 27  1  0  0  0  0
 26 28  1  0  0  0  0
 26 29  1  0  0  0  0
M  END
> <VM2 Rank>
108

> <Conf_Id>
696

> <Probability>
0.02

> <Sum Probability>
99.48

> <Delta G>
3.862

> <G>
37.564

> <E>
-0.218

> <-TS>
37.782

> <U+W>
-24.363

> <U>
28.056

> <W>
-52.418

> <W(PB)>
-54.882

> <W(SA)>
2.464

> <Valence>
6.325

> <Coulomb>
20.690

> <VdW>
1.041

> <VdW6>
-10.427

> <VdW12>
11.468

> <Bond>
0.315

> <Angle>
2.080

> <Pdih>
3.930

> <Idih>
0.000

> <Tether>
0.000

$$$$
VeraChem MOL file


 29 28  0  0  0  0  0  0  0  0999 V2000     
   18.7547   19.0293   19.6208 C   0  0  0  0  0  0  0  0  0  0  0  0
   17.9555   18.8921   20.3597 H   0  0  0  0  0  0  0  0  0  0  0  0
   18.7847   20.0897   19.3386 H   0  0  0  0  0  0  0  0  0  0  0  0
   18.4814   18.4519   18.7282 H   0  0  0  0  0  0  0  0  0  0  0  0
   20.1217   18.5616   20.1696 C   0  0  0  0  0  0  0  0  0  0  0  0
   20.8618   18.6031   19.3583 H   0  0  0  0  0  0  0  0  0  0  0  0
   20.0569   17.5074   20.4731 H   0  0  0  0  0  0  0  0  0  0  0  0
   20.6345   19.4166   21.3534 C   0  0  0  0  0  0  0  0  0  0  0  0
   21.6514   19.0863   21.6066 H   0  0  0  0  0  0  0  0  0  0  0  0
   20.7196   20.4658   21.0385 H   0  0  0  0  0  0  0  0  0  0  0  0
   19.7436   19.3204   22.6149 C   0  0  0  0  0  0  0  0  0  0  0  0
   19.6096   18.2658   22.8832 H   0  0  0  0  0  0  0  0  0  0  0  0
   18.7442   19.7177   22.3941 H   0  0  0  0  0  0  0  0  0  0  0  0
   20.3468   20.1104   23.8024 C   0  0  0  0  0  0  0  0  0  0  0  0
   21.3725   19.7742   24.0078 H   0  0  0  0  0  0  0  0  0  0  0  0
   20.4281   21.1649   23.5039 H   0  0  0  0  0  0  0  0  0  0  0  0
   19.4915   20.0300   25.0948 C   0  0  0  0  0  0  0  0  0  0  0  0
   18.4348   19.8686   24.8434 H   0  0  0  0  0  0  0  0  0  0  0  0
   19.5350   21.0110   25.5861 H   0  0  0  0  0  0  0  0  0  0  0  0
   19.9636   18.9740   26.1232 C   0  0  2  0  0  0  0  0  0  0  0  0
   21.0023   19.1963   26.3864 H   0  0  0  0  0  0  0  0  0  0  0  0
   19.9049   17.5380   25.5759 C   0  0  0  0  0  0  0  0  0  0  0  0
   18.9012   17.2937   25.2065 H   0  0  0  0  0  0  0  0  0  0  0  0
   20.6217   17.3995   24.7584 H   0  0  0  0  0  0  0  0  0  0  0  0
   20.1654   16.8147   26.3584 H   0  0  0  0  0  0  0  0  0  0  0  0
   19.1747   19.0756   27.3990 N   0  3  0  0  0  0  0  0  0  0  0  0
   19.2387   20.0121   27.8086 H   0  0  0  0  0  0  0  0  0  0  0  0
   19.5133   18.4121   28.1017 H   0  0  0  0  0  0  0  0  0  0  0  0
   18.1833   18.8752   27.2423 H   0  0  0  0  0  0  0  0  0  0  0  0
  1  2  1  0  0  0  0
  1  3  1  0  0  0  0
  1  4  1  0  0  0  0
  1  5  1  0  0  0  0
  5  6  1  0  0  0  0
  5  7  1  0  0  0  0
  5  8  1  0  0  0  0
  8  9  1  0  0  0  0
  8 10  1  0  0  0  0
  8 11  1  0  0  0  0
 11 12  1  0  0  0  0
 11 13  1  0  0  0  0
 11 14  1  0  0  0  0
 14 15  1  0  0  0  0
 14 16  1  0  0  0  0
 14 17  1  0  0  0  0
 17 18  1  0  0  0  0
 17 19  1  0  0  0  0
 17 20  1  0  0  0  0
 20 21  1  0  0  0  0
 20 22  1  0  0  0  0
 22 23  1  0  0  0  0
 22 24  1  0  0  0  0
 22 25  1  0  0  0  0
 20 26  1  0  0  0  0
 26 27  1  0  0  0  0
 26 28  1  0  0  0  0
 26 29  1  0  0  0  0
M  END
> <VM2 Rank>
109

> <Conf_Id>
1607

> <Probability>
0.02

> <Sum Probability>
99.49

> <Delta G>
3.871

> <G>
37.573

> <E>
-0.214

> <-TS>
37.787

> <U+W>
-24.358

> <U>
27.696

> <W>
-52.052

> <W(PB)>
-54.526

> <W(SA)>
2.474

> <Valence>
6.761

> <Coulomb>
19.663

> <VdW>
1.272

> <VdW6>
-9.717

> <VdW12>
10.988

> <Bond>
0.286

> <Angle>
1.902

> <Pdih>
4.573

> <Idih>
0.000

> <Tether>
0.000

$$$$
VeraChem MOL file


 29 28  0  0  0  0  0  0  0  0999 V2000     
   21.2261   19.4049   20.2540 C   0  0  0  0  0  0  0  0  0  0  0  0
   21.2716   18.3290   20.0406 H   0  0  0  0  0  0  0  0  0  0  0  0
   20.7225   19.8994   19.4131 H   0  0  0  0  0  0  0  0  0  0  0  0
   22.2556   19.7834   20.2995 H   0  0  0  0  0  0  0  0  0  0  0  0
   20.4868   19.6757   21.5812 C   0  0  0  0  0  0  0  0  0  0  0  0
   20.4858   20.7564   21.7804 H   0  0  0  0  0  0  0  0  0  0  0  0
   21.0449   19.2051   22.3979 H   0  0  0  0  0  0  0  0  0  0  0  0
   19.0307   19.1526   21.5376 C   0  0  0  0  0  0  0  0  0  0  0  0
   18.5266   19.6264   20.6840 H   0  0  0  0  0  0  0  0  0  0  0  0
   19.0188   18.0731   21.3340 H   0  0  0  0  0  0  0  0  0  0  0  0
   18.2090   19.4639   22.8162 C   0  0  0  0  0  0  0  0  0  0  0  0
   17.1642   19.6163   22.5120 H   0  0  0  0  0  0  0  0  0  0  0  0
   18.5252   20.4208   23.2521 H   0  0  0  0  0  0  0  0  0  0  0  0
   18.2127   18.3390   23.8864 C   0  0  0  0  0  0  0  0  0  0  0  0
   17.4977   18.6047   24.6766 H   0  0  0  0  0  0  0  0  0  0  0  0
   17.8194   17.4174   23.4357 H   0  0  0  0  0  0  0  0  0  0  0  0
   19.5874   18.0286   24.5321 C   0  0  0  0  0  0  0  0  0  0  0  0
   20.2495   17.5916   23.7746 H   0  0  0  0  0  0  0  0  0  0  0  0
   19.4536   17.2490   25.2938 H   0  0  0  0  0  0  0  0  0  0  0  0
   20.2705   19.2551   25.1768 C   0  0  2  0  0  0  0  0  0  0  0  0
   20.3826   20.0290   24.4119 H   0  0  0  0  0  0  0  0  0  0  0  0
   21.6697   18.8809   25.6898 C   0  0  0  0  0  0  0  0  0  0  0  0
   22.2953   18.4997   24.8731 H   0  0  0  0  0  0  0  0  0  0  0  0
   22.1746   19.7572   26.1147 H   0  0  0  0  0  0  0  0  0  0  0  0
   21.6140   18.1082   26.4668 H   0  0  0  0  0  0  0  0  0  0  0  0
   19.4432   19.8554   26.2799 N   0  3  0  0  0  0  0  0  0  0  0  0
   18.5204   20.1386   25.9393 H   0  0  0  0  0  0  0  0  0  0  0  0
   19.8933   20.6846   26.6779 H   0  0  0  0  0  0  0  0  0  0  0  0
   19.2992   19.1882   27.0425 H   0  0  0  0  0  0  0  0  0  0  0  0
  1  2  1  0  0  0  0
  1  3  1  0  0  0  0
  1  4  1  0  0  0  0
  1  5  1  0  0  0  0
  5  6  1  0  0  0  0
  5  7  1  0  0  0  0
  5  8  1  0  0  0  0
  8  9  1  0  0  0  0
  8 10  1  0  0  0  0
  8 11  1  0  0  0  0
 11 12  1  0  0  0  0
 11 13  1  0  0  0  0
 11 14  1  0  0  0  0
 14 15  1  0  0  0  0
 14 16  1  0  0  0  0
 14 17  1  0  0  0  0
 17 18  1  0  0  0  0
 17 19  1  0  0  0  0
 17 20  1  0  0  0  0
 20 21  1  0  0  0  0
 20 22  1  0  0  0  0
 22 23  1  0  0  0  0
 22 24  1  0  0  0  0
 22 25  1  0  0  0  0
 20 26  1  0  0  0  0
 26 27  1  0  0  0  0
 26 28  1  0  0  0  0
 26 29  1  0  0  0  0
M  END
> <VM2 Rank>
110

> <Conf_Id>
1686

> <Probability>
0.02

> <Sum Probability>
99.51

> <Delta G>
3.882

> <G>
37.584

> <E>
-0.645

> <-TS>
38.229

> <U+W>
-24.789

> <U>
27.761

> <W>
-52.550

> <W(PB)>
-54.968

> <W(SA)>
2.418

> <Valence>
6.483

> <Coulomb>
20.860

> <VdW>
0.418

> <VdW6>
-11.358

> <VdW12>
11.776

> <Bond>
0.310

> <Angle>
2.146

> <Pdih>
4.026

> <Idih>
0.000

> <Tether>
0.000

$$$$
VeraChem MOL file


 29 28  0  0  0  0  0  0  0  0999 V2000     
   18.7871   18.1566   20.1045 C   0  0  0  0  0  0  0  0  0  0  0  0
   19.0892   17.3600   20.7956 H   0  0  0  0  0  0  0  0  0  0  0  0
   17.7787   18.4897   20.3821 H   0  0  0  0  0  0  0  0  0  0  0  0
   18.7310   17.7175   19.1000 H   0  0  0  0  0  0  0  0  0  0  0  0
   19.7867   19.3353   20.1240 C   0  0  0  0  0  0  0  0  0  0  0  0
   19.5120   20.0452   19.3314 H   0  0  0  0  0  0  0  0  0  0  0  0
   20.7931   18.9708   19.8750 H   0  0  0  0  0  0  0  0  0  0  0  0
   19.8224   20.0896   21.4750 C   0  0  0  0  0  0  0  0  0  0  0  0
   20.4669   20.9726   21.3644 H   0  0  0  0  0  0  0  0  0  0  0  0
   18.8179   20.4675   21.7102 H   0  0  0  0  0  0  0  0  0  0  0  0
   20.3436   19.2270   22.6492 C   0  0  0  0  0  0  0  0  0  0  0  0
   21.3278   18.8143   22.3886 H   0  0  0  0  0  0  0  0  0  0  0  0
   19.6753   18.3730   22.8020 H   0  0  0  0  0  0  0  0  0  0  0  0
   20.4613   20.0505   23.9551 C   0  0  0  0  0  0  0  0  0  0  0  0
   21.1659   20.8743   23.7753 H   0  0  0  0  0  0  0  0  0  0  0  0
   19.4998   20.5237   24.1927 H   0  0  0  0  0  0  0  0  0  0  0  0
   20.9787   19.2229   25.1648 C   0  0  0  0  0  0  0  0  0  0  0  0
   21.6196   19.8713   25.7766 H   0  0  0  0  0  0  0  0  0  0  0  0
   21.6362   18.4171   24.8126 H   0  0  0  0  0  0  0  0  0  0  0  0
   19.8937   18.6302   26.0980 C   0  0  2  0  0  0  0  0  0  0  0  0
   20.4149   18.0741   26.8834 H   0  0  0  0  0  0  0  0  0  0  0  0
   18.9575   17.6453   25.3793 C   0  0  0  0  0  0  0  0  0  0  0  0
   19.5326   16.8769   24.8481 H   0  0  0  0  0  0  0  0  0  0  0  0
   18.3103   17.1352   26.1031 H   0  0  0  0  0  0  0  0  0  0  0  0
   18.3109   18.1592   24.6582 H   0  0  0  0  0  0  0  0  0  0  0  0
   19.1048   19.6986   26.8042 N   0  3  0  0  0  0  0  0  0  0  0  0
   19.7152   20.3284   27.3328 H   0  0  0  0  0  0  0  0  0  0  0  0
   18.4362   19.2938   27.4657 H   0  0  0  0  0  0  0  0  0  0  0  0
   18.5741   20.2687   26.1411 H   0  0  0  0  0  0  0  0  0  0  0  0
  1  2  1  0  0  0  0
  1  3  1  0  0  0  0
  1  4  1  0  0  0  0
  1  5  1  0  0  0  0
  5  6  1  0  0  0  0
  5  7  1  0  0  0  0
  5  8  1  0  0  0  0
  8  9  1  0  0  0  0
  8 10  1  0  0  0  0
  8 11  1  0  0  0  0
 11 12  1  0  0  0  0
 11 13  1  0  0  0  0
 11 14  1  0  0  0  0
 14 15  1  0  0  0  0
 14 16  1  0  0  0  0
 14 17  1  0  0  0  0
 17 18  1  0  0  0  0
 17 19  1  0  0  0  0
 17 20  1  0  0  0  0
 20 21  1  0  0  0  0
 20 22  1  0  0  0  0
 22 23  1  0  0  0  0
 22 24  1  0  0  0  0
 22 25  1  0  0  0  0
 20 26  1  0  0  0  0
 26 27  1  0  0  0  0
 26 28  1  0  0  0  0
 26 29  1  0  0  0  0
M  END
> <VM2 Rank>
111

> <Conf_Id>
668

> <Probability>
0.02

> <Sum Probability>
99.52

> <Delta G>
3.892

> <G>
37.594

> <E>
-0.266

> <-TS>
37.860

> <U+W>
-24.411

> <U>
27.944

> <W>
-52.355

> <W(PB)>
-54.788

> <W(SA)>
2.433

> <Valence>
6.749

> <Coulomb>
19.997

> <VdW>
1.197

> <VdW6>
-10.230

> <VdW12>
11.427

> <Bond>
0.319

> <Angle>
2.019

> <Pdih>
4.411

> <Idih>
0.000

> <Tether>
0.000

$$$$
VeraChem MOL file


 29 28  0  0  0  0  0  0  0  0999 V2000     
   20.5806   18.2686   19.8011 C   0  0  0  0  0  0  0  0  0  0  0  0
   21.5810   17.8220   19.7334 H   0  0  0  0  0  0  0  0  0  0  0  0
   19.8435   17.4705   19.6429 H   0  0  0  0  0  0  0  0  0  0  0  0
   20.4798   18.9943   18.9835 H   0  0  0  0  0  0  0  0  0  0  0  0
   20.3781   18.9460   21.1729 C   0  0  0  0  0  0  0  0  0  0  0  0
   21.1448   19.7204   21.3137 H   0  0  0  0  0  0  0  0  0  0  0  0
   20.5239   18.1966   21.9621 H   0  0  0  0  0  0  0  0  0  0  0  0
   18.9710   19.5737   21.2966 C   0  0  0  0  0  0  0  0  0  0  0  0
   18.7962   20.2306   20.4333 H   0  0  0  0  0  0  0  0  0  0  0  0
   18.2122   18.7814   21.2356 H   0  0  0  0  0  0  0  0  0  0  0  0
   18.7487   20.4006   22.5894 C   0  0  0  0  0  0  0  0  0  0  0  0
   17.7355   20.8229   22.5409 H   0  0  0  0  0  0  0  0  0  0  0  0
   19.4279   21.2641   22.6067 H   0  0  0  0  0  0  0  0  0  0  0  0
   18.8723   19.5895   23.9057 C   0  0  0  0  0  0  0  0  0  0  0  0
   18.1234   19.9699   24.6129 H   0  0  0  0  0  0  0  0  0  0  0  0
   18.6082   18.5412   23.7165 H   0  0  0  0  0  0  0  0  0  0  0  0
   20.2760   19.7031   24.5628 C   0  0  0  0  0  0  0  0  0  0  0  0
   20.4799   20.7587   24.7850 H   0  0  0  0  0  0  0  0  0  0  0  0
   21.0536   19.3948   23.8551 H   0  0  0  0  0  0  0  0  0  0  0  0
   20.4509   18.8899   25.8669 C   0  0  2  0  0  0  0  0  0  0  0  0
   21.4513   19.1077   26.2536 H   0  0  0  0  0  0  0  0  0  0  0  0
   20.3708   17.3738   25.6164 C   0  0  0  0  0  0  0  0  0  0  0  0
   21.0713   17.0710   24.8283 H   0  0  0  0  0  0  0  0  0  0  0  0
   20.6351   16.8209   26.5261 H   0  0  0  0  0  0  0  0  0  0  0  0
   19.3625   17.0635   25.3180 H   0  0  0  0  0  0  0  0  0  0  0  0
   19.4877   19.3109   26.9422 N   0  3  0  0  0  0  0  0  0  0  0  0
   19.5668   20.3113   27.1463 H   0  0  0  0  0  0  0  0  0  0  0  0
   19.6584   18.8054   27.8163 H   0  0  0  0  0  0  0  0  0  0  0  0
   18.5200   19.1278   26.6654 H   0  0  0  0  0  0  0  0  0  0  0  0
  1  2  1  0  0  0  0
  1  3  1  0  0  0  0
  1  4  1  0  0  0  0
  1  5  1  0  0  0  0
  5  6  1  0  0  0  0
  5  7  1  0  0  0  0
  5  8  1  0  0  0  0
  8  9  1  0  0  0  0
  8 10  1  0  0  0  0
  8 11  1  0  0  0  0
 11 12  1  0  0  0  0
 11 13  1  0  0  0  0
 11 14  1  0  0  0  0
 14 15  1  0  0  0  0
 14 16  1  0  0  0  0
 14 17  1  0  0  0  0
 17 18  1  0  0  0  0
 17 19  1  0  0  0  0
 17 20  1  0  0  0  0
 20 21  1  0  0  0  0
 20 22  1  0  0  0  0
 22 23  1  0  0  0  0
 22 24  1  0  0  0  0
 22 25  1  0  0  0  0
 20 26  1  0  0  0  0
 26 27  1  0  0  0  0
 26 28  1  0  0  0  0
 26 29  1  0  0  0  0
M  END
> <VM2 Rank>
112

> <Conf_Id>
1036

> <Probability>
0.01

> <Sum Probability>
99.54

> <Delta G>
3.902

> <G>
37.605

> <E>
-0.305

> <-TS>
37.910

> <U+W>
-24.450

> <U>
27.947

> <W>
-52.397

> <W(PB)>
-54.843

> <W(SA)>
2.447

> <Valence>
6.732

> <Coulomb>
20.067

> <VdW>
1.149

> <VdW6>
-10.427

> <VdW12>
11.576

> <Bond>
0.324

> <Angle>
1.943

> <Pdih>
4.465

> <Idih>
0.000

> <Tether>
0.000

$$$$
VeraChem MOL file


 29 28  0  0  0  0  0  0  0  0999 V2000     
   19.2985   18.3385   20.0524 C   0  0  0  0  0  0  0  0  0  0  0  0
   19.4288   17.8895   19.0593 H   0  0  0  0  0  0  0  0  0  0  0  0
   19.6030   17.5891   20.7934 H   0  0  0  0  0  0  0  0  0  0  0  0
   18.2301   18.5509   20.1875 H   0  0  0  0  0  0  0  0  0  0  0  0
   20.1423   19.6257   20.1773 C   0  0  0  0  0  0  0  0  0  0  0  0
   19.9168   20.2792   19.3230 H   0  0  0  0  0  0  0  0  0  0  0  0
   21.2083   19.3720   20.0932 H   0  0  0  0  0  0  0  0  0  0  0  0
   19.9002   20.4233   21.4842 C   0  0  0  0  0  0  0  0  0  0  0  0
   20.5118   21.3347   21.4328 H   0  0  0  0  0  0  0  0  0  0  0  0
   18.8581   20.7684   21.5285 H   0  0  0  0  0  0  0  0  0  0  0  0
   20.2725   19.6638   22.7841 C   0  0  0  0  0  0  0  0  0  0  0  0
   20.6982   20.3875   23.4916 H   0  0  0  0  0  0  0  0  0  0  0  0
   21.0685   18.9350   22.5781 H   0  0  0  0  0  0  0  0  0  0  0  0
   19.0613   18.9660   23.4545 C   0  0  0  0  0  0  0  0  0  0  0  0
   18.3146   19.7184   23.7410 H   0  0  0  0  0  0  0  0  0  0  0  0
   18.5600   18.3106   22.7326 H   0  0  0  0  0  0  0  0  0  0  0  0
   19.4558   18.1161   24.6894 C   0  0  0  0  0  0  0  0  0  0  0  0
   20.1231   17.3078   24.3620 H   0  0  0  0  0  0  0  0  0  0  0  0
   18.5573   17.6281   25.0900 H   0  0  0  0  0  0  0  0  0  0  0  0
   20.1484   18.9154   25.8158 C   0  0  2  0  0  0  0  0  0  0  0  0
   21.0500   19.3795   25.4053 H   0  0  0  0  0  0  0  0  0  0  0  0
   20.5703   17.9761   26.9566 C   0  0  0  0  0  0  0  0  0  0  0  0
   21.0974   18.5316   27.7420 H   0  0  0  0  0  0  0  0  0  0  0  0
   19.6997   17.4859   27.4101 H   0  0  0  0  0  0  0  0  0  0  0  0
   21.2483   17.1961   26.5883 H   0  0  0  0  0  0  0  0  0  0  0  0
   19.2867   20.0312   26.3397 N   0  3  0  0  0  0  0  0  0  0  0  0
   19.7693   20.5683   27.0658 H   0  0  0  0  0  0  0  0  0  0  0  0
   18.4198   19.6719   26.7481 H   0  0  0  0  0  0  0  0  0  0  0  0
   19.0298   20.6830   25.5933 H   0  0  0  0  0  0  0  0  0  0  0  0
  1  2  1  0  0  0  0
  1  3  1  0  0  0  0
  1  4  1  0  0  0  0
  1  5  1  0  0  0  0
  5  6  1  0  0  0  0
  5  7  1  0  0  0  0
  5  8  1  0  0  0  0
  8  9  1  0  0  0  0
  8 10  1  0  0  0  0
  8 11  1  0  0  0  0
 11 12  1  0  0  0  0
 11 13  1  0  0  0  0
 11 14  1  0  0  0  0
 14 15  1  0  0  0  0
 14 16  1  0  0  0  0
 14 17  1  0  0  0  0
 17 18  1  0  0  0  0
 17 19  1  0  0  0  0
 17 20  1  0  0  0  0
 20 21  1  0  0  0  0
 20 22  1  0  0  0  0
 22 23  1  0  0  0  0
 22 24  1  0  0  0  0
 22 25  1  0  0  0  0
 20 26  1  0  0  0  0
 26 27  1  0  0  0  0
 26 28  1  0  0  0  0
 26 29  1  0  0  0  0
M  END
> <VM2 Rank>
113

> <Conf_Id>
999

> <Probability>
0.01

> <Sum Probability>
99.55

> <Delta G>
3.904

> <G>
37.607

> <E>
-0.356

> <-TS>
37.963

> <U+W>
-24.501

> <U>
27.887

> <W>
-52.388

> <W(PB)>
-54.850

> <W(SA)>
2.462

> <Valence>
6.471

> <Coulomb>
20.362

> <VdW>
1.054

> <VdW6>
-10.398

> <VdW12>
11.452

> <Bond>
0.305

> <Angle>
1.802

> <Pdih>
4.364

> <Idih>
0.000

> <Tether>
0.000

$$$$
VeraChem MOL file


 29 28  0  0  0  0  0  0  0  0999 V2000     
   19.0149   20.8006   20.3258 C   0  0  0  0  0  0  0  0  0  0  0  0
   19.9491   21.3761   20.2918 H   0  0  0  0  0  0  0  0  0  0  0  0
   18.3697   21.1601   19.5138 H   0  0  0  0  0  0  0  0  0  0  0  0
   18.5073   21.0230   21.2723 H   0  0  0  0  0  0  0  0  0  0  0  0
   19.2883   19.2875   20.1688 C   0  0  0  0  0  0  0  0  0  0  0  0
   19.6772   19.1017   19.1578 H   0  0  0  0  0  0  0  0  0  0  0  0
   18.3431   18.7315   20.2413 H   0  0  0  0  0  0  0  0  0  0  0  0
   20.3019   18.7339   21.1992 C   0  0  0  0  0  0  0  0  0  0  0  0
   20.5203   17.6878   20.9437 H   0  0  0  0  0  0  0  0  0  0  0  0
   21.2517   19.2789   21.1090 H   0  0  0  0  0  0  0  0  0  0  0  0
   19.7964   18.8040   22.6600 C   0  0  0  0  0  0  0  0  0  0  0  0
   18.8263   18.2936   22.7349 H   0  0  0  0  0  0  0  0  0  0  0  0
   19.6421   19.8542   22.9320 H   0  0  0  0  0  0  0  0  0  0  0  0
   20.8024   18.1604   23.6439 C   0  0  0  0  0  0  0  0  0  0  0  0
   21.0839   17.1685   23.2639 H   0  0  0  0  0  0  0  0  0  0  0  0
   21.7273   18.7534   23.6609 H   0  0  0  0  0  0  0  0  0  0  0  0
   20.2760   17.9829   25.0926 C   0  0  0  0  0  0  0  0  0  0  0  0
   21.0444   17.4290   25.6483 H   0  0  0  0  0  0  0  0  0  0  0  0
   19.3846   17.3418   25.0957 H   0  0  0  0  0  0  0  0  0  0  0  0
   19.9788   19.3031   25.8425 C   0  0  2  0  0  0  0  0  0  0  0  0
   20.7539   20.0304   25.5822 H   0  0  0  0  0  0  0  0  0  0  0  0
   20.0218   19.0770   27.3628 C   0  0  0  0  0  0  0  0  0  0  0  0
   19.2713   18.3401   27.6757 H   0  0  0  0  0  0  0  0  0  0  0  0
   21.0087   18.7144   27.6765 H   0  0  0  0  0  0  0  0  0  0  0  0
   19.8272   20.0131   27.9007 H   0  0  0  0  0  0  0  0  0  0  0  0
   18.6554   19.9067   25.4584 N   0  3  0  0  0  0  0  0  0  0  0  0
   18.5992   20.0741   24.4513 H   0  0  0  0  0  0  0  0  0  0  0  0
   18.5020   20.8022   25.9311 H   0  0  0  0  0  0  0  0  0  0  0  0
   17.8791   19.2899   25.7123 H   0  0  0  0  0  0  0  0  0  0  0  0
  1  2  1  0  0  0  0
  1  3  1  0  0  0  0
  1  4  1  0  0  0  0
  1  5  1  0  0  0  0
  5  6  1  0  0  0  0
  5  7  1  0  0  0  0
  5  8  1  0  0  0  0
  8  9  1  0  0  0  0
  8 10  1  0  0  0  0
  8 11  1  0  0  0  0
 11 12  1  0  0  0  0
 11 13  1  0  0  0  0
 11 14  1  0  0  0  0
 14 15  1  0  0  0  0
 14 16  1  0  0  0  0
 14 17  1  0  0  0  0
 17 18  1  0  0  0  0
 17 19  1  0  0  0  0
 17 20  1  0  0  0  0
 20 21  1  0  0  0  0
 20 22  1  0  0  0  0
 22 23  1  0  0  0  0
 22 24  1  0  0  0  0
 22 25  1  0  0  0  0
 20 26  1  0  0  0  0
 26 27  1  0  0  0  0
 26 28  1  0  0  0  0
 26 29  1  0  0  0  0
M  END
> <VM2 Rank>
114

> <Conf_Id>
1233

> <Probability>
0.01

> <Sum Probability>
99.57

> <Delta G>
3.942

> <G>
37.644

> <E>
0.130

> <-TS>
37.514

> <U+W>
-24.014

> <U>
27.949

> <W>
-51.963

> <W(PB)>
-54.443

> <W(SA)>
2.480

> <Valence>
5.463

> <Coulomb>
21.337

> <VdW>
1.149

> <VdW6>
-9.730

> <VdW12>
10.879

> <Bond>
0.280

> <Angle>
1.828

> <Pdih>
3.355

> <Idih>
0.000

> <Tether>
0.000

$$$$
VeraChem MOL file


 29 28  0  0  0  0  0  0  0  0999 V2000     
   18.5421   18.9156   19.6880 C   0  0  0  0  0  0  0  0  0  0  0  0
   18.5182   18.2371   18.8254 H   0  0  0  0  0  0  0  0  0  0  0  0
   17.5918   18.8088   20.2273 H   0  0  0  0  0  0  0  0  0  0  0  0
   18.6055   19.9432   19.3068 H   0  0  0  0  0  0  0  0  0  0  0  0
   19.7400   18.5894   20.6047 C   0  0  0  0  0  0  0  0  0  0  0  0
   20.6725   18.6708   20.0289 H   0  0  0  0  0  0  0  0  0  0  0  0
   19.6662   17.5465   20.9434 H   0  0  0  0  0  0  0  0  0  0  0  0
   19.7974   19.5316   21.8271 C   0  0  0  0  0  0  0  0  0  0  0  0
   19.8747   20.5724   21.4837 H   0  0  0  0  0  0  0  0  0  0  0  0
   18.8560   19.4528   22.3851 H   0  0  0  0  0  0  0  0  0  0  0  0
   20.9968   19.2030   22.7486 C   0  0  0  0  0  0  0  0  0  0  0  0
   21.9220   19.2765   22.1605 H   0  0  0  0  0  0  0  0  0  0  0  0
   20.9426   18.1613   23.0895 H   0  0  0  0  0  0  0  0  0  0  0  0
   21.1179   20.1550   23.9643 C   0  0  0  0  0  0  0  0  0  0  0  0
   22.0525   19.9288   24.4960 H   0  0  0  0  0  0  0  0  0  0  0  0
   21.2264   21.1847   23.5966 H   0  0  0  0  0  0  0  0  0  0  0  0
   19.9453   20.1092   24.9803 C   0  0  0  0  0  0  0  0  0  0  0  0
   19.0022   20.4044   24.5031 H   0  0  0  0  0  0  0  0  0  0  0  0
   20.1436   20.8861   25.7305 H   0  0  0  0  0  0  0  0  0  0  0  0
   19.7910   18.7481   25.7026 C   0  0  2  0  0  0  0  0  0  0  0  0
   20.7442   18.2147   25.6353 H   0  0  0  0  0  0  0  0  0  0  0  0
   18.6908   17.8779   25.0680 C   0  0  0  0  0  0  0  0  0  0  0  0
   17.7130   18.3722   25.1254 H   0  0  0  0  0  0  0  0  0  0  0  0
   18.9008   17.6644   24.0150 H   0  0  0  0  0  0  0  0  0  0  0  0
   18.6139   16.9148   25.5874 H   0  0  0  0  0  0  0  0  0  0  0  0
   19.5148   18.9261   27.1705 N   0  3  0  0  0  0  0  0  0  0  0  0
   20.2571   19.4608   27.6312 H   0  0  0  0  0  0  0  0  0  0  0  0
   19.4468   18.0239   27.6501 H   0  0  0  0  0  0  0  0  0  0  0  0
   18.6337   19.4229   27.3276 H   0  0  0  0  0  0  0  0  0  0  0  0
  1  2  1  0  0  0  0
  1  3  1  0  0  0  0
  1  4  1  0  0  0  0
  1  5  1  0  0  0  0
  5  6  1  0  0  0  0
  5  7  1  0  0  0  0
  5  8  1  0  0  0  0
  8  9  1  0  0  0  0
  8 10  1  0  0  0  0
  8 11  1  0  0  0  0
 11 12  1  0  0  0  0
 11 13  1  0  0  0  0
 11 14  1  0  0  0  0
 14 15  1  0  0  0  0
 14 16  1  0  0  0  0
 14 17  1  0  0  0  0
 17 18  1  0  0  0  0
 17 19  1  0  0  0  0
 17 20  1  0  0  0  0
 20 21  1  0  0  0  0
 20 22  1  0  0  0  0
 22 23  1  0  0  0  0
 22 24  1  0  0  0  0
 22 25  1  0  0  0  0
 20 26  1  0  0  0  0
 26 27  1  0  0  0  0
 26 28  1  0  0  0  0
 26 29  1  0  0  0  0
M  END
> <VM2 Rank>
115

> <Conf_Id>
640

> <Probability>
0.01

> <Sum Probability>
99.58

> <Delta G>
3.960

> <G>
37.663

> <E>
-0.355

> <-TS>
38.018

> <U+W>
-24.500

> <U>
27.828

> <W>
-52.328

> <W(PB)>
-54.779

> <W(SA)>
2.451

> <Valence>
6.936

> <Coulomb>
20.037

> <VdW>
0.855

> <VdW6>
-10.295

> <VdW12>
11.149

> <Bond>
0.273

> <Angle>
1.990

> <Pdih>
4.673

> <Idih>
0.000

> <Tether>
0.000

$$$$
VeraChem MOL file


 29 28  0  0  0  0  0  0  0  0999 V2000     
   20.7404   18.8086   19.7241 C   0  0  0  0  0  0  0  0  0  0  0  0
   19.8813   18.5346   19.0978 H   0  0  0  0  0  0  0  0  0  0  0  0
   21.1370   19.7657   19.3612 H   0  0  0  0  0  0  0  0  0  0  0  0
   21.5178   18.0467   19.5822 H   0  0  0  0  0  0  0  0  0  0  0  0
   20.3349   18.9028   21.2103 C   0  0  0  0  0  0  0  0  0  0  0  0
   21.2178   19.1538   21.8145 H   0  0  0  0  0  0  0  0  0  0  0  0
   19.9819   17.9176   21.5405 H   0  0  0  0  0  0  0  0  0  0  0  0
   19.2277   19.9575   21.4333 C   0  0  0  0  0  0  0  0  0  0  0  0
   19.5263   20.8950   20.9441 H   0  0  0  0  0  0  0  0  0  0  0  0
   18.3070   19.6316   20.9299 H   0  0  0  0  0  0  0  0  0  0  0  0
   18.9222   20.2680   22.9213 C   0  0  0  0  0  0  0  0  0  0  0  0
   18.1628   21.0620   22.9370 H   0  0  0  0  0  0  0  0  0  0  0  0
   19.8074   20.7052   23.3995 H   0  0  0  0  0  0  0  0  0  0  0  0
   18.3735   19.0699   23.7445 C   0  0  0  0  0  0  0  0  0  0  0  0
   17.6560   19.4527   24.4823 H   0  0  0  0  0  0  0  0  0  0  0  0
   17.7860   18.4135   23.0879 H   0  0  0  0  0  0  0  0  0  0  0  0
   19.4455   18.2276   24.4910 C   0  0  0  0  0  0  0  0  0  0  0  0
   20.1177   17.7540   23.7678 H   0  0  0  0  0  0  0  0  0  0  0  0
   18.9414   17.4037   25.0133 H   0  0  0  0  0  0  0  0  0  0  0  0
   20.2923   19.0239   25.5099 C   0  0  2  0  0  0  0  0  0  0  0  0
   20.8148   19.8237   24.9778 H   0  0  0  0  0  0  0  0  0  0  0  0
   21.3491   18.1123   26.1535 C   0  0  0  0  0  0  0  0  0  0  0  0
   20.8799   17.2913   26.7100 H   0  0  0  0  0  0  0  0  0  0  0  0
   22.0050   17.6765   25.3896 H   0  0  0  0  0  0  0  0  0  0  0  0
   21.9797   18.6800   26.8489 H   0  0  0  0  0  0  0  0  0  0  0  0
   19.4505   19.6854   26.5660 N   0  3  0  0  0  0  0  0  0  0  0  0
   18.7704   20.3273   26.1496 H   0  0  0  0  0  0  0  0  0  0  0  0
   20.0247   20.2262   27.2189 H   0  0  0  0  0  0  0  0  0  0  0  0
   18.9295   18.9954   27.1137 H   0  0  0  0  0  0  0  0  0  0  0  0
  1  2  1  0  0  0  0
  1  3  1  0  0  0  0
  1  4  1  0  0  0  0
  1  5  1  0  0  0  0
  5  6  1  0  0  0  0
  5  7  1  0  0  0  0
  5  8  1  0  0  0  0
  8  9  1  0  0  0  0
  8 10  1  0  0  0  0
  8 11  1  0  0  0  0
 11 12  1  0  0  0  0
 11 13  1  0  0  0  0
 11 14  1  0  0  0  0
 14 15  1  0  0  0  0
 14 16  1  0  0  0  0
 14 17  1  0  0  0  0
 17 18  1  0  0  0  0
 17 19  1  0  0  0  0
 17 20  1  0  0  0  0
 20 21  1  0  0  0  0
 20 22  1  0  0  0  0
 22 23  1  0  0  0  0
 22 24  1  0  0  0  0
 22 25  1  0  0  0  0
 20 26  1  0  0  0  0
 26 27  1  0  0  0  0
 26 28  1  0  0  0  0
 26 29  1  0  0  0  0
M  END
> <VM2 Rank>
116

> <Conf_Id>
1029

> <Probability>
0.01

> <Sum Probability>
99.59

> <Delta G>
3.971

> <G>
37.673

> <E>
0.008

> <-TS>
37.665

> <U+W>
-24.136

> <U>
28.212

> <W>
-52.348

> <W(PB)>
-54.785

> <W(SA)>
2.437

> <Valence>
6.653

> <Coulomb>
20.543

> <VdW>
1.015

> <VdW6>
-10.508

> <VdW12>
11.524

> <Bond>
0.340

> <Angle>
2.187

> <Pdih>
4.126

> <Idih>
0.000

> <Tether>
0.000

$$$$
VeraChem MOL file


 29 28  0  0  0  0  0  0  0  0999 V2000     
   20.0981   19.7373   19.0513 C   0  0  0  0  0  0  0  0  0  0  0  0
   20.3598   18.7882   18.5655 H   0  0  0  0  0  0  0  0  0  0  0  0
   19.4144   20.2793   18.3850 H   0  0  0  0  0  0  0  0  0  0  0  0
   21.0141   20.3339   19.1523 H   0  0  0  0  0  0  0  0  0  0  0  0
   19.4404   19.4945   20.4262 C   0  0  0  0  0  0  0  0  0  0  0  0
   18.5127   18.9213   20.2901 H   0  0  0  0  0  0  0  0  0  0  0  0
   19.1568   20.4622   20.8609 H   0  0  0  0  0  0  0  0  0  0  0  0
   20.3877   18.7353   21.3848 C   0  0  0  0  0  0  0  0  0  0  0  0
   20.7224   17.8095   20.8967 H   0  0  0  0  0  0  0  0  0  0  0  0
   21.2918   19.3339   21.5626 H   0  0  0  0  0  0  0  0  0  0  0  0
   19.7353   18.3669   22.7398 C   0  0  0  0  0  0  0  0  0  0  0  0
   20.4352   17.7326   23.2969 H   0  0  0  0  0  0  0  0  0  0  0  0
   18.8448   17.7489   22.5603 H   0  0  0  0  0  0  0  0  0  0  0  0
   19.3450   19.6014   23.5931 C   0  0  0  0  0  0  0  0  0  0  0  0
   20.1881   20.3024   23.6638 H   0  0  0  0  0  0  0  0  0  0  0  0
   18.5415   20.1428   23.0767 H   0  0  0  0  0  0  0  0  0  0  0  0
   18.8408   19.2304   25.0129 C   0  0  0  0  0  0  0  0  0  0  0  0
   18.4055   18.2222   25.0117 H   0  0  0  0  0  0  0  0  0  0  0  0
   18.0167   19.9111   25.2644 H   0  0  0  0  0  0  0  0  0  0  0  0
   19.9034   19.3535   26.1315 C   0  0  2  0  0  0  0  0  0  0  0  0
   20.2803   20.3809   26.1305 H   0  0  0  0  0  0  0  0  0  0  0  0
   21.0970   18.4050   25.9291 C   0  0  0  0  0  0  0  0  0  0  0  0
   20.7661   17.3629   25.8395 H   0  0  0  0  0  0  0  0  0  0  0  0
   21.6623   18.6706   25.0282 H   0  0  0  0  0  0  0  0  0  0  0  0
   21.7909   18.4704   26.7761 H   0  0  0  0  0  0  0  0  0  0  0  0
   19.2883   19.1316   27.4854 N   0  3  0  0  0  0  0  0  0  0  0  0
   19.9758   19.2584   28.2337 H   0  0  0  0  0  0  0  0  0  0  0  0
   18.9116   18.1840   27.5740 H   0  0  0  0  0  0  0  0  0  0  0  0
   18.5208   19.7860   27.6629 H   0  0  0  0  0  0  0  0  0  0  0  0
  1  2  1  0  0  0  0
  1  3  1  0  0  0  0
  1  4  1  0  0  0  0
  1  5  1  0  0  0  0
  5  6  1  0  0  0  0
  5  7  1  0  0  0  0
  5  8  1  0  0  0  0
  8  9  1  0  0  0  0
  8 10  1  0  0  0  0
  8 11  1  0  0  0  0
 11 12  1  0  0  0  0
 11 13  1  0  0  0  0
 11 14  1  0  0  0  0
 14 15  1  0  0  0  0
 14 16  1  0  0  0  0
 14 17  1  0  0  0  0
 17 18  1  0  0  0  0
 17 19  1  0  0  0  0
 17 20  1  0  0  0  0
 20 21  1  0  0  0  0
 20 22  1  0  0  0  0
 22 23  1  0  0  0  0
 22 24  1  0  0  0  0
 22 25  1  0  0  0  0
 20 26  1  0  0  0  0
 26 27  1  0  0  0  0
 26 28  1  0  0  0  0
 26 29  1  0  0  0  0
M  END
> <VM2 Rank>
117

> <Conf_Id>
309

> <Probability>
0.01

> <Sum Probability>
99.61

> <Delta G>
3.972

> <G>
37.674

> <E>
-0.136

> <-TS>
37.810

> <U+W>
-24.281

> <U>
27.820

> <W>
-52.101

> <W(PB)>
-54.585

> <W(SA)>
2.485

> <Valence>
6.838

> <Coulomb>
19.703

> <VdW>
1.279

> <VdW6>
-9.734

> <VdW12>
11.013

> <Bond>
0.292

> <Angle>
1.870

> <Pdih>
4.677

> <Idih>
0.000

> <Tether>
0.000

$$$$
VeraChem MOL file


 29 28  0  0  0  0  0  0  0  0999 V2000     
   19.2376   20.6230   19.9085 C   0  0  0  0  0  0  0  0  0  0  0  0
   20.2191   21.0676   19.6983 H   0  0  0  0  0  0  0  0  0  0  0  0
   18.9497   20.0065   19.0470 H   0  0  0  0  0  0  0  0  0  0  0  0
   18.5094   21.4396   19.9965 H   0  0  0  0  0  0  0  0  0  0  0  0
   19.2750   19.7845   21.2037 C   0  0  0  0  0  0  0  0  0  0  0  0
   18.2744   19.3756   21.4016 H   0  0  0  0  0  0  0  0  0  0  0  0
   19.5291   20.4432   22.0446 H   0  0  0  0  0  0  0  0  0  0  0  0
   20.3015   18.6328   21.1076 C   0  0  0  0  0  0  0  0  0  0  0  0
   20.0995   18.0505   20.1980 H   0  0  0  0  0  0  0  0  0  0  0  0
   21.3094   19.0522   20.9837 H   0  0  0  0  0  0  0  0  0  0  0  0
   20.2928   17.6632   22.3176 C   0  0  0  0  0  0  0  0  0  0  0  0
   21.0227   16.8687   22.1089 H   0  0  0  0  0  0  0  0  0  0  0  0
   19.3197   17.1583   22.3910 H   0  0  0  0  0  0  0  0  0  0  0  0
   20.6648   18.3174   23.6738 C   0  0  0  0  0  0  0  0  0  0  0  0
   21.2619   17.5954   24.2463 H   0  0  0  0  0  0  0  0  0  0  0  0
   21.3148   19.1874   23.5066 H   0  0  0  0  0  0  0  0  0  0  0  0
   19.4279   18.7198   24.5191 C   0  0  0  0  0  0  0  0  0  0  0  0
   18.8715   17.8176   24.8057 H   0  0  0  0  0  0  0  0  0  0  0  0
   18.7440   19.3165   23.9054 H   0  0  0  0  0  0  0  0  0  0  0  0
   19.7799   19.5341   25.7850 C   0  0  2  0  0  0  0  0  0  0  0  0
   20.3628   20.4084   25.4791 H   0  0  0  0  0  0  0  0  0  0  0  0
   20.6160   18.7181   26.7872 C   0  0  0  0  0  0  0  0  0  0  0  0
   20.0987   17.7949   27.0765 H   0  0  0  0  0  0  0  0  0  0  0  0
   21.5916   18.4487   26.3662 H   0  0  0  0  0  0  0  0  0  0  0  0
   20.8057   19.3011   27.6968 H   0  0  0  0  0  0  0  0  0  0  0  0
   18.5405   20.0631   26.4516 N   0  3  0  0  0  0  0  0  0  0  0  0
   17.9898   20.6473   25.8157 H   0  0  0  0  0  0  0  0  0  0  0  0
   18.7711   20.6359   27.2685 H   0  0  0  0  0  0  0  0  0  0  0  0
   17.9354   19.3027   26.7730 H   0  0  0  0  0  0  0  0  0  0  0  0
  1  2  1  0  0  0  0
  1  3  1  0  0  0  0
  1  4  1  0  0  0  0
  1  5  1  0  0  0  0
  5  6  1  0  0  0  0
  5  7  1  0  0  0  0
  5  8  1  0  0  0  0
  8  9  1  0  0  0  0
  8 10  1  0  0  0  0
  8 11  1  0  0  0  0
 11 12  1  0  0  0  0
 11 13  1  0  0  0  0
 11 14  1  0  0  0  0
 14 15  1  0  0  0  0
 14 16  1  0  0  0  0
 14 17  1  0  0  0  0
 17 18  1  0  0  0  0
 17 19  1  0  0  0  0
 17 20  1  0  0  0  0
 20 21  1  0  0  0  0
 20 22  1  0  0  0  0
 22 23  1  0  0  0  0
 22 24  1  0  0  0  0
 22 25  1  0  0  0  0
 20 26  1  0  0  0  0
 26 27  1  0  0  0  0
 26 28  1  0  0  0  0
 26 29  1  0  0  0  0
M  END
> <VM2 Rank>
118

> <Conf_Id>
277

> <Probability>
0.01

> <Sum Probability>
99.62

> <Delta G>
3.982

> <G>
37.684

> <E>
-0.144

> <-TS>
37.828

> <U+W>
-24.289

> <U>
28.312

> <W>
-52.601

> <W(PB)>
-55.091

> <W(SA)>
2.490

> <Valence>
6.782

> <Coulomb>
20.298

> <VdW>
1.231

> <VdW6>
-9.819

> <VdW12>
11.050

> <Bond>
0.292

> <Angle>
1.855

> <Pdih>
4.635

> <Idih>
0.000

> <Tether>
0.000

$$$$
VeraChem MOL file


 29 28  0  0  0  0  0  0  0  0999 V2000     
   20.2966   18.3361   19.9078 C   0  0  0  0  0  0  0  0  0  0  0  0
   20.0780   18.9942   19.0569 H   0  0  0  0  0  0  0  0  0  0  0  0
   21.2945   18.5873   20.2870 H   0  0  0  0  0  0  0  0  0  0  0  0
   20.3367   17.3056   19.5318 H   0  0  0  0  0  0  0  0  0  0  0  0
   19.2157   18.4690   21.0051 C   0  0  0  0  0  0  0  0  0  0  0  0
   19.4579   17.8008   21.8399 H   0  0  0  0  0  0  0  0  0  0  0  0
   18.2605   18.1106   20.5967 H   0  0  0  0  0  0  0  0  0  0  0  0
   19.0225   19.9257   21.5005 C   0  0  0  0  0  0  0  0  0  0  0  0
   18.8551   20.5654   20.6230 H   0  0  0  0  0  0  0  0  0  0  0  0
   18.0992   19.9931   22.0921 H   0  0  0  0  0  0  0  0  0  0  0  0
   20.2064   20.5062   22.3215 C   0  0  0  0  0  0  0  0  0  0  0  0
   20.2792   21.5795   22.0982 H   0  0  0  0  0  0  0  0  0  0  0  0
   21.1604   20.0746   21.9944 H   0  0  0  0  0  0  0  0  0  0  0  0
   20.0615   20.3614   23.8583 C   0  0  0  0  0  0  0  0  0  0  0  0
   20.9083   20.8763   24.3332 H   0  0  0  0  0  0  0  0  0  0  0  0
   19.1567   20.8913   24.1846 H   0  0  0  0  0  0  0  0  0  0  0  0
   20.0220   18.8958   24.3567 C   0  0  0  0  0  0  0  0  0  0  0  0
   20.8565   18.3430   23.9052 H   0  0  0  0  0  0  0  0  0  0  0  0
   19.0964   18.4122   24.0205 H   0  0  0  0  0  0  0  0  0  0  0  0
   20.1224   18.7828   25.8929 C   0  0  2  0  0  0  0  0  0  0  0  0
   21.0405   19.2843   26.2145 H   0  0  0  0  0  0  0  0  0  0  0  0
   20.2044   17.3075   26.3160 C   0  0  0  0  0  0  0  0  0  0  0  0
   20.3135   17.2212   27.4042 H   0  0  0  0  0  0  0  0  0  0  0  0
   19.3024   16.7583   26.0181 H   0  0  0  0  0  0  0  0  0  0  0  0
   21.0709   16.8174   25.8548 H   0  0  0  0  0  0  0  0  0  0  0  0
   18.9843   19.4715   26.5951 N   0  3  0  0  0  0  0  0  0  0  0  0
   18.9434   20.4652   26.3533 H   0  0  0  0  0  0  0  0  0  0  0  0
   19.0786   19.4069   27.6128 H   0  0  0  0  0  0  0  0  0  0  0  0
   18.0840   19.0550   26.3432 H   0  0  0  0  0  0  0  0  0  0  0  0
  1  2  1  0  0  0  0
  1  3  1  0  0  0  0
  1  4  1  0  0  0  0
  1  5  1  0  0  0  0
  5  6  1  0  0  0  0
  5  7  1  0  0  0  0
  5  8  1  0  0  0  0
  8  9  1  0  0  0  0
  8 10  1  0  0  0  0
  8 11  1  0  0  0  0
 11 12  1  0  0  0  0
 11 13  1  0  0  0  0
 11 14  1  0  0  0  0
 14 15  1  0  0  0  0
 14 16  1  0  0  0  0
 14 17  1  0  0  0  0
 17 18  1  0  0  0  0
 17 19  1  0  0  0  0
 17 20  1  0  0  0  0
 20 21  1  0  0  0  0
 20 22  1  0  0  0  0
 22 23  1  0  0  0  0
 22 24  1  0  0  0  0
 22 25  1  0  0  0  0
 20 26  1  0  0  0  0
 26 27  1  0  0  0  0
 26 28  1  0  0  0  0
 26 29  1  0  0  0  0
M  END
> <VM2 Rank>
119

> <Conf_Id>
1309

> <Probability>
0.01

> <Sum Probability>
99.63

> <Delta G>
4.032

> <G>
37.735

> <E>
-0.060

> <-TS>
37.794

> <U+W>
-24.204

> <U>
28.202

> <W>
-52.406

> <W(PB)>
-54.880

> <W(SA)>
2.474

> <Valence>
6.863

> <Coulomb>
20.157

> <VdW>
1.181

> <VdW6>
-10.208

> <VdW12>
11.389

> <Bond>
0.322

> <Angle>
1.965

> <Pdih>
4.576

> <Idih>
0.000

> <Tether>
0.000

$$$$
VeraChem MOL file


 29 28  0  0  0  0  0  0  0  0999 V2000     
   18.6088   20.3574   20.8851 C   0  0  0  0  0  0  0  0  0  0  0  0
   19.0957   20.9143   21.6951 H   0  0  0  0  0  0  0  0  0  0  0  0
   18.2187   21.0934   20.1703 H   0  0  0  0  0  0  0  0  0  0  0  0
   17.7547   19.8075   21.3010 H   0  0  0  0  0  0  0  0  0  0  0  0
   19.6008   19.4016   20.1875 C   0  0  0  0  0  0  0  0  0  0  0  0
   20.4738   19.9722   19.8412 H   0  0  0  0  0  0  0  0  0  0  0  0
   19.1238   18.9974   19.2837 H   0  0  0  0  0  0  0  0  0  0  0  0
   20.0715   18.2151   21.0670 C   0  0  0  0  0  0  0  0  0  0  0  0
   19.2159   17.5787   21.3316 H   0  0  0  0  0  0  0  0  0  0  0  0
   20.7278   17.5866   20.4493 H   0  0  0  0  0  0  0  0  0  0  0  0
   20.8544   18.6235   22.3420 C   0  0  0  0  0  0  0  0  0  0  0  0
   21.3776   19.5747   22.1730 H   0  0  0  0  0  0  0  0  0  0  0  0
   21.6374   17.8743   22.5237 H   0  0  0  0  0  0  0  0  0  0  0  0
   19.9673   18.7104   23.6079 C   0  0  0  0  0  0  0  0  0  0  0  0
   19.1494   19.4207   23.4454 H   0  0  0  0  0  0  0  0  0  0  0  0
   19.5037   17.7309   23.7831 H   0  0  0  0  0  0  0  0  0  0  0  0
   20.7906   19.1343   24.8519 C   0  0  0  0  0  0  0  0  0  0  0  0
   21.2931   20.0880   24.6433 H   0  0  0  0  0  0  0  0  0  0  0  0
   21.5909   18.4026   25.0241 H   0  0  0  0  0  0  0  0  0  0  0  0
   19.9705   19.2896   26.1544 C   0  0  2  0  0  0  0  0  0  0  0  0
   20.6627   19.6147   26.9374 H   0  0  0  0  0  0  0  0  0  0  0  0
   19.3471   17.9582   26.6083 C   0  0  0  0  0  0  0  0  0  0  0  0
   18.5678   17.6181   25.9160 H   0  0  0  0  0  0  0  0  0  0  0  0
   20.1111   17.1741   26.6790 H   0  0  0  0  0  0  0  0  0  0  0  0
   18.8899   18.0673   27.5994 H   0  0  0  0  0  0  0  0  0  0  0  0
   18.9251   20.3657   26.0499 N   0  3  0  0  0  0  0  0  0  0  0  0
   18.2227   20.1333   25.3434 H   0  0  0  0  0  0  0  0  0  0  0  0
   19.3382   21.2663   25.7911 H   0  0  0  0  0  0  0  0  0  0  0  0
   18.4348   20.4980   26.9392 H   0  0  0  0  0  0  0  0  0  0  0  0
  1  2  1  0  0  0  0
  1  3  1  0  0  0  0
  1  4  1  0  0  0  0
  1  5  1  0  0  0  0
  5  6  1  0  0  0  0
  5  7  1  0  0  0  0
  5  8  1  0  0  0  0
  8  9  1  0  0  0  0
  8 10  1  0  0  0  0
  8 11  1  0  0  0  0
 11 12  1  0  0  0  0
 11 13  1  0  0  0  0
 11 14  1  0  0  0  0
 14 15  1  0  0  0  0
 14 16  1  0  0  0  0
 14 17  1  0  0  0  0
 17 18  1  0  0  0  0
 17 19  1  0  0  0  0
 17 20  1  0  0  0  0
 20 21  1  0  0  0  0
 20 22  1  0  0  0  0
 22 23  1  0  0  0  0
 22 24  1  0  0  0  0
 22 25  1  0  0  0  0
 20 26  1  0  0  0  0
 26 27  1  0  0  0  0
 26 28  1  0  0  0  0
 26 29  1  0  0  0  0
M  END
> <VM2 Rank>
120

> <Conf_Id>
1277

> <Probability>
0.01

> <Sum Probability>
99.64

> <Delta G>
4.037

> <G>
37.739

> <E>
-0.155

> <-TS>
37.894

> <U+W>
-24.300

> <U>
28.236

> <W>
-52.536

> <W(PB)>
-54.984

> <W(SA)>
2.448

> <Valence>
6.639

> <Coulomb>
20.375

> <VdW>
1.222

> <VdW6>
-10.233

> <VdW12>
11.455

> <Bond>
0.310

> <Angle>
1.952

> <Pdih>
4.377

> <Idih>
0.000

> <Tether>
0.000

$$$$
VeraChem MOL file


 29 28  0  0  0  0  0  0  0  0999 V2000     
   20.3139   17.8435   20.6756 C   0  0  0  0  0  0  0  0  0  0  0  0
   21.2307   17.2610   20.5178 H   0  0  0  0  0  0  0  0  0  0  0  0
   19.7609   17.3757   21.4988 H   0  0  0  0  0  0  0  0  0  0  0  0
   19.7041   17.7621   19.7665 H   0  0  0  0  0  0  0  0  0  0  0  0
   20.6559   19.3199   20.9804 C   0  0  0  0  0  0  0  0  0  0  0  0
   21.2665   19.7137   20.1560 H   0  0  0  0  0  0  0  0  0  0  0  0
   21.2871   19.3891   21.8754 H   0  0  0  0  0  0  0  0  0  0  0  0
   19.4048   20.2186   21.1355 C   0  0  0  0  0  0  0  0  0  0  0  0
   19.7312   21.2617   21.2477 H   0  0  0  0  0  0  0  0  0  0  0  0
   18.8330   20.1862   20.1979 H   0  0  0  0  0  0  0  0  0  0  0  0
   18.4513   19.8632   22.3082 C   0  0  0  0  0  0  0  0  0  0  0  0
   18.0466   18.8496   22.1882 H   0  0  0  0  0  0  0  0  0  0  0  0
   17.5826   20.5317   22.2318 H   0  0  0  0  0  0  0  0  0  0  0  0
   19.0640   20.0433   23.7221 C   0  0  0  0  0  0  0  0  0  0  0  0
   19.8365   20.8244   23.7008 H   0  0  0  0  0  0  0  0  0  0  0  0
   18.2735   20.4150   24.3873 H   0  0  0  0  0  0  0  0  0  0  0  0
   19.6391   18.7340   24.3216 C   0  0  0  0  0  0  0  0  0  0  0  0
   20.3855   18.3120   23.6406 H   0  0  0  0  0  0  0  0  0  0  0  0
   18.8404   17.9855   24.4078 H   0  0  0  0  0  0  0  0  0  0  0  0
   20.3010   18.9448   25.7005 C   0  0  2  0  0  0  0  0  0  0  0  0
   21.0719   19.7146   25.5964 H   0  0  0  0  0  0  0  0  0  0  0  0
   20.9757   17.6472   26.1732 C   0  0  0  0  0  0  0  0  0  0  0  0
   21.4788   17.7996   27.1360 H   0  0  0  0  0  0  0  0  0  0  0  0
   20.2425   16.8400   26.2944 H   0  0  0  0  0  0  0  0  0  0  0  0
   21.7326   17.3158   25.4513 H   0  0  0  0  0  0  0  0  0  0  0  0
   19.3303   19.4413   26.7369 N   0  3  0  0  0  0  0  0  0  0  0  0
   19.7910   19.5934   27.6386 H   0  0  0  0  0  0  0  0  0  0  0  0
   18.5720   18.7709   26.8889 H   0  0  0  0  0  0  0  0  0  0  0  0
   18.9057   20.3293   26.4561 H   0  0  0  0  0  0  0  0  0  0  0  0
  1  2  1  0  0  0  0
  1  3  1  0  0  0  0
  1  4  1  0  0  0  0
  1  5  1  0  0  0  0
  5  6  1  0  0  0  0
  5  7  1  0  0  0  0
  5  8  1  0  0  0  0
  8  9  1  0  0  0  0
  8 10  1  0  0  0  0
  8 11  1  0  0  0  0
 11 12  1  0  0  0  0
 11 13  1  0  0  0  0
 11 14  1  0  0  0  0
 14 15  1  0  0  0  0
 14 16  1  0  0  0  0
 14 17  1  0  0  0  0
 17 18  1  0  0  0  0
 17 19  1  0  0  0  0
 17 20  1  0  0  0  0
 20 21  1  0  0  0  0
 20 22  1  0  0  0  0
 22 23  1  0  0  0  0
 22 24  1  0  0  0  0
 22 25  1  0  0  0  0
 20 26  1  0  0  0  0
 26 27  1  0  0  0  0
 26 28  1  0  0  0  0
 26 29  1  0  0  0  0
M  END
> <VM2 Rank>
121

> <Conf_Id>
627

> <Probability>
0.01

> <Sum Probability>
99.66

> <Delta G>
4.048

> <G>
37.750

> <E>
-0.464

> <-TS>
38.214

> <U+W>
-24.609

> <U>
27.913

> <W>
-52.522

> <W(PB)>
-54.944

> <W(SA)>
2.423

> <Valence>
6.822

> <Coulomb>
20.150

> <VdW>
0.941

> <VdW6>
-10.666

> <VdW12>
11.607

> <Bond>
0.323

> <Angle>
2.171

> <Pdih>
4.328

> <Idih>
0.000

> <Tether>
0.000

$$$$
VeraChem MOL file


 29 28  0  0  0  0  0  0  0  0999 V2000     
   20.1833   20.5551   19.8543 C   0  0  0  0  0  0  0  0  0  0  0  0
   19.7131   21.4252   20.3307 H   0  0  0  0  0  0  0  0  0  0  0  0
   21.1563   20.8728   19.4576 H   0  0  0  0  0  0  0  0  0  0  0  0
   19.5569   20.2495   19.0061 H   0  0  0  0  0  0  0  0  0  0  0  0
   20.3566   19.3985   20.8611 C   0  0  0  0  0  0  0  0  0  0  0  0
   21.0211   19.7232   21.6708 H   0  0  0  0  0  0  0  0  0  0  0  0
   20.8599   18.5579   20.3633 H   0  0  0  0  0  0  0  0  0  0  0  0
   18.9954   18.9253   21.4256 C   0  0  0  0  0  0  0  0  0  0  0  0
   18.4483   19.7697   21.8669 H   0  0  0  0  0  0  0  0  0  0  0  0
   18.3815   18.5736   20.5849 H   0  0  0  0  0  0  0  0  0  0  0  0
   19.1223   17.7736   22.4566 C   0  0  0  0  0  0  0  0  0  0  0  0
   20.0242   17.1791   22.2558 H   0  0  0  0  0  0  0  0  0  0  0  0
   18.2774   17.0870   22.3073 H   0  0  0  0  0  0  0  0  0  0  0  0
   19.1000   18.2241   23.9401 C   0  0  0  0  0  0  0  0  0  0  0  0
   18.1433   18.7213   24.1480 H   0  0  0  0  0  0  0  0  0  0  0  0
   19.1195   17.3210   24.5632 H   0  0  0  0  0  0  0  0  0  0  0  0
   20.2745   19.1578   24.3373 C   0  0  0  0  0  0  0  0  0  0  0  0
   20.1962   20.0955   23.7740 H   0  0  0  0  0  0  0  0  0  0  0  0
   21.2252   18.6964   24.0398 H   0  0  0  0  0  0  0  0  0  0  0  0
   20.3424   19.5160   25.8408 C   0  0  2  0  0  0  0  0  0  0  0  0
   21.1607   20.2318   25.9666 H   0  0  0  0  0  0  0  0  0  0  0  0
   20.6613   18.2915   26.7166 C   0  0  0  0  0  0  0  0  0  0  0  0
   19.8360   17.5701   26.7245 H   0  0  0  0  0  0  0  0  0  0  0  0
   21.5628   17.7795   26.3579 H   0  0  0  0  0  0  0  0  0  0  0  0
   20.8448   18.6000   27.7531 H   0  0  0  0  0  0  0  0  0  0  0  0
   19.1002   20.2141   26.3216 N   0  3  0  0  0  0  0  0  0  0  0  0
   18.2814   19.6050   26.2484 H   0  0  0  0  0  0  0  0  0  0  0  0
   18.9078   21.0577   25.7739 H   0  0  0  0  0  0  0  0  0  0  0  0
   19.1860   20.4977   27.3018 H   0  0  0  0  0  0  0  0  0  0  0  0
  1  2  1  0  0  0  0
  1  3  1  0  0  0  0
  1  4  1  0  0  0  0
  1  5  1  0  0  0  0
  5  6  1  0  0  0  0
  5  7  1  0  0  0  0
  5  8  1  0  0  0  0
  8  9  1  0  0  0  0
  8 10  1  0  0  0  0
  8 11  1  0  0  0  0
 11 12  1  0  0  0  0
 11 13  1  0  0  0  0
 11 14  1  0  0  0  0
 14 15  1  0  0  0  0
 14 16  1  0  0  0  0
 14 17  1  0  0  0  0
 17 18  1  0  0  0  0
 17 19  1  0  0  0  0
 17 20  1  0  0  0  0
 20 21  1  0  0  0  0
 20 22  1  0  0  0  0
 22 23  1  0  0  0  0
 22 24  1  0  0  0  0
 22 25  1  0  0  0  0
 20 26  1  0  0  0  0
 26 27  1  0  0  0  0
 26 28  1  0  0  0  0
 26 29  1  0  0  0  0
M  END
> <VM2 Rank>
122

> <Conf_Id>
1278

> <Probability>
0.01

> <Sum Probability>
99.67

> <Delta G>
4.054

> <G>
37.756

> <E>
-0.142

> <-TS>
37.898

> <U+W>
-24.287

> <U>
28.217

> <W>
-52.504

> <W(PB)>
-54.950

> <W(SA)>
2.446

> <Valence>
6.821

> <Coulomb>
20.147

> <VdW>
1.249

> <VdW6>
-10.236

> <VdW12>
11.486

> <Bond>
0.316

> <Angle>
1.990

> <Pdih>
4.514

> <Idih>
0.000

> <Tether>
0.000

$$$$
VeraChem MOL file


 29 28  0  0  0  0  0  0  0  0999 V2000     
   18.7542   19.4825   19.3538 C   0  0  0  0  0  0  0  0  0  0  0  0
   17.8158   19.8644   19.7766 H   0  0  0  0  0  0  0  0  0  0  0  0
   19.3426   20.3386   18.9986 H   0  0  0  0  0  0  0  0  0  0  0  0
   18.5038   18.8615   18.4839 H   0  0  0  0  0  0  0  0  0  0  0  0
   19.5413   18.6642   20.3991 C   0  0  0  0  0  0  0  0  0  0  0  0
   20.4562   18.2673   19.9373 H   0  0  0  0  0  0  0  0  0  0  0  0
   18.9414   17.7976   20.7105 H   0  0  0  0  0  0  0  0  0  0  0  0
   19.9072   19.5158   21.6348 C   0  0  0  0  0  0  0  0  0  0  0  0
   20.5063   20.3803   21.3172 H   0  0  0  0  0  0  0  0  0  0  0  0
   18.9872   19.9152   22.0802 H   0  0  0  0  0  0  0  0  0  0  0  0
   20.6982   18.6956   22.6828 C   0  0  0  0  0  0  0  0  0  0  0  0
   21.5959   18.2839   22.2012 H   0  0  0  0  0  0  0  0  0  0  0  0
   20.1006   17.8335   23.0027 H   0  0  0  0  0  0  0  0  0  0  0  0
   21.1436   19.5349   23.9088 C   0  0  0  0  0  0  0  0  0  0  0  0
   21.9117   18.9857   24.4708 H   0  0  0  0  0  0  0  0  0  0  0  0
   21.6435   20.4421   23.5423 H   0  0  0  0  0  0  0  0  0  0  0  0
   19.9954   19.9470   24.8714 C   0  0  0  0  0  0  0  0  0  0  0  0
   19.0424   20.0262   24.3351 H   0  0  0  0  0  0  0  0  0  0  0  0
   20.2153   20.9583   25.2380 H   0  0  0  0  0  0  0  0  0  0  0  0
   19.8276   19.0309   26.1072 C   0  0  2  0  0  0  0  0  0  0  0  0
   20.7800   19.0072   26.6457 H   0  0  0  0  0  0  0  0  0  0  0  0
   19.4523   17.5876   25.7315 C   0  0  0  0  0  0  0  0  0  0  0  0
   18.5508   17.5609   25.1068 H   0  0  0  0  0  0  0  0  0  0  0  0
   20.2684   17.0981   25.1877 H   0  0  0  0  0  0  0  0  0  0  0  0
   19.2612   16.9904   26.6316 H   0  0  0  0  0  0  0  0  0  0  0  0
   18.8162   19.5975   27.0646 N   0  3  0  0  0  0  0  0  0  0  0  0
   19.0704   20.5425   27.3664 H   0  0  0  0  0  0  0  0  0  0  0  0
   18.7345   19.0205   27.9067 H   0  0  0  0  0  0  0  0  0  0  0  0
   17.8868   19.6497   26.6388 H   0  0  0  0  0  0  0  0  0  0  0  0
  1  2  1  0  0  0  0
  1  3  1  0  0  0  0
  1  4  1  0  0  0  0
  1  5  1  0  0  0  0
  5  6  1  0  0  0  0
  5  7  1  0  0  0  0
  5  8  1  0  0  0  0
  8  9  1  0  0  0  0
  8 10  1  0  0  0  0
  8 11  1  0  0  0  0
 11 12  1  0  0  0  0
 11 13  1  0  0  0  0
 11 14  1  0  0  0  0
 14 15  1  0  0  0  0
 14 16  1  0  0  0  0
 14 17  1  0  0  0  0
 17 18  1  0  0  0  0
 17 19  1  0  0  0  0
 17 20  1  0  0  0  0
 20 21  1  0  0  0  0
 20 22  1  0  0  0  0
 22 23  1  0  0  0  0
 22 24  1  0  0  0  0
 22 25  1  0  0  0  0
 20 26  1  0  0  0  0
 26 27  1  0  0  0  0
 26 28  1  0  0  0  0
 26 29  1  0  0  0  0
M  END
> <VM2 Rank>
123

> <Conf_Id>
966

> <Probability>
0.01

> <Sum Probability>
99.68

> <Delta G>
4.075

> <G>
37.777

> <E>
0.042

> <-TS>
37.735

> <U+W>
-24.103

> <U>
28.131

> <W>
-52.234

> <W(PB)>
-54.734

> <W(SA)>
2.500

> <Valence>
6.994

> <Coulomb>
19.895

> <VdW>
1.243

> <VdW6>
-9.657

> <VdW12>
10.900

> <Bond>
0.303

> <Angle>
1.907

> <Pdih>
4.784

> <Idih>
0.000

> <Tether>
0.000

$$$$
VeraChem MOL file


 29 28  0  0  0  0  0  0  0  0999 V2000     
   20.9811   19.8985   20.3565 C   0  0  0  0  0  0  0  0  0  0  0  0
   21.5754   20.4877   21.0669 H   0  0  0  0  0  0  0  0  0  0  0  0
   21.3160   18.8552   20.4098 H   0  0  0  0  0  0  0  0  0  0  0  0
   21.2044   20.2655   19.3464 H   0  0  0  0  0  0  0  0  0  0  0  0
   19.4703   20.0257   20.6562 C   0  0  0  0  0  0  0  0  0  0  0  0
   18.8994   19.4066   19.9502 H   0  0  0  0  0  0  0  0  0  0  0  0
   19.1597   21.0642   20.4749 H   0  0  0  0  0  0  0  0  0  0  0  0
   19.0998   19.6428   22.1091 C   0  0  0  0  0  0  0  0  0  0  0  0
   19.6591   20.2877   22.7955 H   0  0  0  0  0  0  0  0  0  0  0  0
   18.0363   19.8694   22.2650 H   0  0  0  0  0  0  0  0  0  0  0  0
   19.3510   18.1463   22.4288 C   0  0  0  0  0  0  0  0  0  0  0  0
   20.4191   17.9060   22.3480 H   0  0  0  0  0  0  0  0  0  0  0  0
   18.8458   17.5465   21.6592 H   0  0  0  0  0  0  0  0  0  0  0  0
   18.8183   17.6956   23.8144 C   0  0  0  0  0  0  0  0  0  0  0  0
   17.8709   18.2005   24.0452 H   0  0  0  0  0  0  0  0  0  0  0  0
   18.5673   16.6281   23.7445 H   0  0  0  0  0  0  0  0  0  0  0  0
   19.8273   17.8521   24.9843 C   0  0  0  0  0  0  0  0  0  0  0  0
   20.7270   17.2661   24.7539 H   0  0  0  0  0  0  0  0  0  0  0  0
   19.3932   17.3977   25.8848 H   0  0  0  0  0  0  0  0  0  0  0  0
   20.2437   19.3026   25.3078 C   0  0  2  0  0  0  0  0  0  0  0  0
   20.7120   19.7331   24.4190 H   0  0  0  0  0  0  0  0  0  0  0  0
   21.2790   19.3209   26.4435 C   0  0  0  0  0  0  0  0  0  0  0  0
   20.8624   18.9018   27.3680 H   0  0  0  0  0  0  0  0  0  0  0  0
   22.1657   18.7347   26.1717 H   0  0  0  0  0  0  0  0  0  0  0  0
   21.6088   20.3462   26.6514 H   0  0  0  0  0  0  0  0  0  0  0  0
   19.0656   20.1715   25.6533 N   0  3  0  0  0  0  0  0  0  0  0  0
   18.3823   20.1873   24.8914 H   0  0  0  0  0  0  0  0  0  0  0  0
   19.3522   21.1377   25.8347 H   0  0  0  0  0  0  0  0  0  0  0  0
   18.5864   19.8310   26.4912 H   0  0  0  0  0  0  0  0  0  0  0  0
  1  2  1  0  0  0  0
  1  3  1  0  0  0  0
  1  4  1  0  0  0  0
  1  5  1  0  0  0  0
  5  6  1  0  0  0  0
  5  7  1  0  0  0  0
  5  8  1  0  0  0  0
  8  9  1  0  0  0  0
  8 10  1  0  0  0  0
  8 11  1  0  0  0  0
 11 12  1  0  0  0  0
 11 13  1  0  0  0  0
 11 14  1  0  0  0  0
 14 15  1  0  0  0  0
 14 16  1  0  0  0  0
 14 17  1  0  0  0  0
 17 18  1  0  0  0  0
 17 19  1  0  0  0  0
 17 20  1  0  0  0  0
 20 21  1  0  0  0  0
 20 22  1  0  0  0  0
 22 23  1  0  0  0  0
 22 24  1  0  0  0  0
 22 25  1  0  0  0  0
 20 26  1  0  0  0  0
 26 27  1  0  0  0  0
 26 28  1  0  0  0  0
 26 29  1  0  0  0  0
M  END
> <VM2 Rank>
124

> <Conf_Id>
215

> <Probability>
0.01

> <Sum Probability>
99.69

> <Delta G>
4.077

> <G>
37.779

> <E>
-0.160

> <-TS>
37.939

> <U+W>
-24.304

> <U>
28.166

> <W>
-52.470

> <W(PB)>
-54.893

> <W(SA)>
2.423

> <Valence>
6.294

> <Coulomb>
21.099

> <VdW>
0.773

> <VdW6>
-10.791

> <VdW12>
11.563

> <Bond>
0.315

> <Angle>
2.119

> <Pdih>
3.860

> <Idih>
0.000

> <Tether>
0.000

$$$$
VeraChem MOL file


 29 28  0  0  0  0  0  0  0  0999 V2000     
   18.4301   19.5507   20.2499 C   0  0  0  0  0  0  0  0  0  0  0  0
   18.5926   18.8316   19.4365 H   0  0  0  0  0  0  0  0  0  0  0  0
   17.9201   19.0270   21.0657 H   0  0  0  0  0  0  0  0  0  0  0  0
   17.7495   20.3268   19.8767 H   0  0  0  0  0  0  0  0  0  0  0  0
   19.7677   20.1788   20.7058 C   0  0  0  0  0  0  0  0  0  0  0  0
   19.5883   20.9456   21.4721 H   0  0  0  0  0  0  0  0  0  0  0  0
   20.2028   20.7072   19.8460 H   0  0  0  0  0  0  0  0  0  0  0  0
   20.7965   19.1369   21.2156 C   0  0  0  0  0  0  0  0  0  0  0  0
   20.6492   18.1752   20.7051 H   0  0  0  0  0  0  0  0  0  0  0  0
   21.7995   19.4764   20.9222 H   0  0  0  0  0  0  0  0  0  0  0  0
   20.8066   18.9300   22.7520 C   0  0  0  0  0  0  0  0  0  0  0  0
   21.0536   19.8825   23.2395 H   0  0  0  0  0  0  0  0  0  0  0  0
   21.6234   18.2380   22.9995 H   0  0  0  0  0  0  0  0  0  0  0  0
   19.4829   18.3703   23.3272 C   0  0  0  0  0  0  0  0  0  0  0  0
   18.6829   19.1124   23.2148 H   0  0  0  0  0  0  0  0  0  0  0  0
   19.1776   17.4924   22.7414 H   0  0  0  0  0  0  0  0  0  0  0  0
   19.5961   17.9547   24.8162 C   0  0  0  0  0  0  0  0  0  0  0  0
   20.3232   17.1360   24.9000 H   0  0  0  0  0  0  0  0  0  0  0  0
   18.6332   17.5443   25.1482 H   0  0  0  0  0  0  0  0  0  0  0  0
   20.0177   19.1014   25.7621 C   0  0  2  0  0  0  0  0  0  0  0  0
   20.9844   19.4876   25.4257 H   0  0  0  0  0  0  0  0  0  0  0  0
   20.1840   18.5774   27.1972 C   0  0  0  0  0  0  0  0  0  0  0  0
   19.2382   18.1810   27.5874 H   0  0  0  0  0  0  0  0  0  0  0  0
   20.9320   17.7756   27.2349 H   0  0  0  0  0  0  0  0  0  0  0  0
   20.5209   19.3786   27.8664 H   0  0  0  0  0  0  0  0  0  0  0  0
   19.0544   20.2559   25.7280 N   0  3  0  0  0  0  0  0  0  0  0  0
   18.9635   20.6351   24.7816 H   0  0  0  0  0  0  0  0  0  0  0  0
   19.3621   21.0187   26.3381 H   0  0  0  0  0  0  0  0  0  0  0  0
   18.1215   19.9716   26.0384 H   0  0  0  0  0  0  0  0  0  0  0  0
  1  2  1  0  0  0  0
  1  3  1  0  0  0  0
  1  4  1  0  0  0  0
  1  5  1  0  0  0  0
  5  6  1  0  0  0  0
  5  7  1  0  0  0  0
  5  8  1  0  0  0  0
  8  9  1  0  0  0  0
  8 10  1  0  0  0  0
  8 11  1  0  0  0  0
 11 12  1  0  0  0  0
 11 13  1  0  0  0  0
 11 14  1  0  0  0  0
 14 15  1  0  0  0  0
 14 16  1  0  0  0  0
 14 17  1  0  0  0  0
 17 18  1  0  0  0  0
 17 19  1  0  0  0  0
 17 20  1  0  0  0  0
 20 21  1  0  0  0  0
 20 22  1  0  0  0  0
 22 23  1  0  0  0  0
 22 24  1  0  0  0  0
 22 25  1  0  0  0  0
 20 26  1  0  0  0  0
 26 27  1  0  0  0  0
 26 28  1  0  0  0  0
 26 29  1  0  0  0  0
M  END
> <VM2 Rank>
125

> <Conf_Id>
1632

> <Probability>
0.01

> <Sum Probability>
99.70

> <Delta G>
4.095

> <G>
37.797

> <E>
-0.122

> <-TS>
37.920

> <U+W>
-24.267

> <U>
28.134

> <W>
-52.401

> <W(PB)>
-54.854

> <W(SA)>
2.454

> <Valence>
6.427

> <Coulomb>
20.721

> <VdW>
0.986

> <VdW6>
-10.460

> <VdW12>
11.446

> <Bond>
0.299

> <Angle>
1.839

> <Pdih>
4.289

> <Idih>
0.000

> <Tether>
0.000

$$$$
VeraChem MOL file


 29 28  0  0  0  0  0  0  0  0999 V2000     
   20.2678   20.7624   20.6476 C   0  0  0  0  0  0  0  0  0  0  0  0
   20.5635   20.9671   21.6840 H   0  0  0  0  0  0  0  0  0  0  0  0
   21.0714   21.1298   19.9963 H   0  0  0  0  0  0  0  0  0  0  0  0
   19.3633   21.3435   20.4259 H   0  0  0  0  0  0  0  0  0  0  0  0
   20.0295   19.2534   20.4142 C   0  0  0  0  0  0  0  0  0  0  0  0
   20.9396   18.6918   20.6644 H   0  0  0  0  0  0  0  0  0  0  0  0
   19.8570   19.0845   19.3421 H   0  0  0  0  0  0  0  0  0  0  0  0
   18.8195   18.6910   21.2029 C   0  0  0  0  0  0  0  0  0  0  0  0
   17.9050   19.1913   20.8558 H   0  0  0  0  0  0  0  0  0  0  0  0
   18.6950   17.6291   20.9501 H   0  0  0  0  0  0  0  0  0  0  0  0
   18.9130   18.8353   22.7435 C   0  0  0  0  0  0  0  0  0  0  0  0
   18.0015   18.4103   23.1860 H   0  0  0  0  0  0  0  0  0  0  0  0
   18.9213   19.9004   23.0010 H   0  0  0  0  0  0  0  0  0  0  0  0
   20.1518   18.1288   23.3486 C   0  0  0  0  0  0  0  0  0  0  0  0
   20.2317   17.1243   22.9107 H   0  0  0  0  0  0  0  0  0  0  0  0
   21.0651   18.6640   23.0559 H   0  0  0  0  0  0  0  0  0  0  0  0
   20.1247   17.9768   24.8923 C   0  0  0  0  0  0  0  0  0  0  0  0
   20.9835   17.3506   25.1689 H   0  0  0  0  0  0  0  0  0  0  0  0
   19.2333   17.4162   25.2031 H   0  0  0  0  0  0  0  0  0  0  0  0
   20.2135   19.3073   25.6766 C   0  0  2  0  0  0  0  0  0  0  0  0
   20.9370   19.9566   25.1741 H   0  0  0  0  0  0  0  0  0  0  0  0
   20.7101   19.0515   27.1091 C   0  0  0  0  0  0  0  0  0  0  0  0
   20.0250   18.3900   27.6542 H   0  0  0  0  0  0  0  0  0  0  0  0
   21.7028   18.5843   27.1013 H   0  0  0  0  0  0  0  0  0  0  0  0
   20.7922   19.9931   27.6660 H   0  0  0  0  0  0  0  0  0  0  0  0
   18.9061   20.0495   25.7193 N   0  3  0  0  0  0  0  0  0  0  0  0
   18.5569   20.2453   24.7785 H   0  0  0  0  0  0  0  0  0  0  0  0
   19.0004   20.9448   26.2075 H   0  0  0  0  0  0  0  0  0  0  0  0
   18.1882   19.5083   26.2084 H   0  0  0  0  0  0  0  0  0  0  0  0
  1  2  1  0  0  0  0
  1  3  1  0  0  0  0
  1  4  1  0  0  0  0
  1  5  1  0  0  0  0
  5  6  1  0  0  0  0
  5  7  1  0  0  0  0
  5  8  1  0  0  0  0
  8  9  1  0  0  0  0
  8 10  1  0  0  0  0
  8 11  1  0  0  0  0
 11 12  1  0  0  0  0
 11 13  1  0  0  0  0
 11 14  1  0  0  0  0
 14 15  1  0  0  0  0
 14 16  1  0  0  0  0
 14 17  1  0  0  0  0
 17 18  1  0  0  0  0
 17 19  1  0  0  0  0
 17 20  1  0  0  0  0
 20 21  1  0  0  0  0
 20 22  1  0  0  0  0
 22 23  1  0  0  0  0
 22 24  1  0  0  0  0
 22 25  1  0  0  0  0
 20 26  1  0  0  0  0
 26 27  1  0  0  0  0
 26 28  1  0  0  0  0
 26 29  1  0  0  0  0
M  END
> <VM2 Rank>
126

> <Conf_Id>
1187

> <Probability>
0.01

> <Sum Probability>
99.71

> <Delta G>
4.110

> <G>
37.812

> <E>
0.008

> <-TS>
37.804

> <U+W>
-24.137

> <U>
28.192

> <W>
-52.329

> <W(PB)>
-54.785

> <W(SA)>
2.456

> <Valence>
5.839

> <Coulomb>
21.295

> <VdW>
1.058

> <VdW6>
-10.711

> <VdW12>
11.769

> <Bond>
0.323

> <Angle>
2.126

> <Pdih>
3.390

> <Idih>
0.000

> <Tether>
0.000

$$$$
VeraChem MOL file


 29 28  0  0  0  0  0  0  0  0999 V2000     
   21.2272   20.0412   21.2354 C   0  0  0  0  0  0  0  0  0  0  0  0
   21.0607   20.3678   22.2671 H   0  0  0  0  0  0  0  0  0  0  0  0
   21.9946   19.2564   21.2460 H   0  0  0  0  0  0  0  0  0  0  0  0
   21.6345   20.8969   20.6815 H   0  0  0  0  0  0  0  0  0  0  0  0
   19.9279   19.5361   20.5661 C   0  0  0  0  0  0  0  0  0  0  0  0
   20.1594   19.3039   19.5171 H   0  0  0  0  0  0  0  0  0  0  0  0
   19.1767   20.3376   20.5386 H   0  0  0  0  0  0  0  0  0  0  0  0
   19.3354   18.2648   21.2280 C   0  0  0  0  0  0  0  0  0  0  0  0
   18.8643   17.6651   20.4370 H   0  0  0  0  0  0  0  0  0  0  0  0
   20.1369   17.6310   21.6291 H   0  0  0  0  0  0  0  0  0  0  0  0
   18.2488   18.5315   22.3050 C   0  0  0  0  0  0  0  0  0  0  0  0
   17.8339   17.5672   22.6292 H   0  0  0  0  0  0  0  0  0  0  0  0
   17.4141   19.0703   21.8359 H   0  0  0  0  0  0  0  0  0  0  0  0
   18.7036   19.3208   23.5577 C   0  0  0  0  0  0  0  0  0  0  0  0
   19.0410   20.3229   23.2651 H   0  0  0  0  0  0  0  0  0  0  0  0
   17.8228   19.4763   24.1944 H   0  0  0  0  0  0  0  0  0  0  0  0
   19.8047   18.5985   24.3761 C   0  0  0  0  0  0  0  0  0  0  0  0
   20.6754   18.4150   23.7352 H   0  0  0  0  0  0  0  0  0  0  0  0
   19.4411   17.6136   24.6977 H   0  0  0  0  0  0  0  0  0  0  0  0
   20.2674   19.4092   25.6058 C   0  0  2  0  0  0  0  0  0  0  0  0
   20.5909   20.3969   25.2632 H   0  0  0  0  0  0  0  0  0  0  0  0
   21.4619   18.7183   26.2826 C   0  0  0  0  0  0  0  0  0  0  0  0
   21.1891   17.7195   26.6458 H   0  0  0  0  0  0  0  0  0  0  0  0
   22.2986   18.6101   25.5812 H   0  0  0  0  0  0  0  0  0  0  0  0
   21.8182   19.3072   27.1368 H   0  0  0  0  0  0  0  0  0  0  0  0
   19.1591   19.6357   26.5974 N   0  3  0  0  0  0  0  0  0  0  0  0
   18.3736   20.1355   26.1723 H   0  0  0  0  0  0  0  0  0  0  0  0
   19.4794   20.1905   27.3962 H   0  0  0  0  0  0  0  0  0  0  0  0
   18.7998   18.7500   26.9633 H   0  0  0  0  0  0  0  0  0  0  0  0
  1  2  1  0  0  0  0
  1  3  1  0  0  0  0
  1  4  1  0  0  0  0
  1  5  1  0  0  0  0
  5  6  1  0  0  0  0
  5  7  1  0  0  0  0
  5  8  1  0  0  0  0
  8  9  1  0  0  0  0
  8 10  1  0  0  0  0
  8 11  1  0  0  0  0
 11 12  1  0  0  0  0
 11 13  1  0  0  0  0
 11 14  1  0  0  0  0
 14 15  1  0  0  0  0
 14 16  1  0  0  0  0
 14 17  1  0  0  0  0
 17 18  1  0  0  0  0
 17 19  1  0  0  0  0
 17 20  1  0  0  0  0
 20 21  1  0  0  0  0
 20 22  1  0  0  0  0
 22 23  1  0  0  0  0
 22 24  1  0  0  0  0
 22 25  1  0  0  0  0
 20 26  1  0  0  0  0
 26 27  1  0  0  0  0
 26 28  1  0  0  0  0
 26 29  1  0  0  0  0
M  END
> <VM2 Rank>
127

> <Conf_Id>
1370

> <Probability>
0.01

> <Sum Probability>
99.72

> <Delta G>
4.116

> <G>
37.819

> <E>
-0.405

> <-TS>
38.223

> <U+W>
-24.549

> <U>
27.919

> <W>
-52.468

> <W(PB)>
-54.880

> <W(SA)>
2.412

> <Valence>
6.769

> <Coulomb>
20.295

> <VdW>
0.854

> <VdW6>
-10.882

> <VdW12>
11.736

> <Bond>
0.328

> <Angle>
2.340

> <Pdih>
4.102

> <Idih>
0.000

> <Tether>
0.000

$$$$
VeraChem MOL file


 29 28  0  0  0  0  0  0  0  0999 V2000     
   19.3865   18.1123   20.1044 C   0  0  0  0  0  0  0  0  0  0  0  0
   18.7481   17.7667   20.9247 H   0  0  0  0  0  0  0  0  0  0  0  0
   18.7552   18.6602   19.3929 H   0  0  0  0  0  0  0  0  0  0  0  0
   19.7751   17.2244   19.5891 H   0  0  0  0  0  0  0  0  0  0  0  0
   20.5503   18.9990   20.6052 C   0  0  0  0  0  0  0  0  0  0  0  0
   21.1588   19.2812   19.7346 H   0  0  0  0  0  0  0  0  0  0  0  0
   21.2142   18.4217   21.2636 H   0  0  0  0  0  0  0  0  0  0  0  0
   20.0775   20.2929   21.3166 C   0  0  0  0  0  0  0  0  0  0  0  0
   20.7891   21.0946   21.0751 H   0  0  0  0  0  0  0  0  0  0  0  0
   19.1122   20.6215   20.9075 H   0  0  0  0  0  0  0  0  0  0  0  0
   19.9967   20.1925   22.8615 C   0  0  0  0  0  0  0  0  0  0  0  0
   19.7322   21.1829   23.2571 H   0  0  0  0  0  0  0  0  0  0  0  0
   20.9944   19.9599   23.2573 H   0  0  0  0  0  0  0  0  0  0  0  0
   18.9714   19.1545   23.3786 C   0  0  0  0  0  0  0  0  0  0  0  0
   18.0091   19.3148   22.8733 H   0  0  0  0  0  0  0  0  0  0  0  0
   19.2962   18.1417   23.1107 H   0  0  0  0  0  0  0  0  0  0  0  0
   18.7439   19.2369   24.9099 C   0  0  0  0  0  0  0  0  0  0  0  0
   18.0052   18.4792   25.2032 H   0  0  0  0  0  0  0  0  0  0  0  0
   18.2902   20.2096   25.1411 H   0  0  0  0  0  0  0  0  0  0  0  0
   20.0189   19.0677   25.7695 C   0  0  2  0  0  0  0  0  0  0  0  0
   20.7436   19.8288   25.4654 H   0  0  0  0  0  0  0  0  0  0  0  0
   20.6617   17.6816   25.5849 C   0  0  0  0  0  0  0  0  0  0  0  0
   21.0078   17.5375   24.5548 H   0  0  0  0  0  0  0  0  0  0  0  0
   21.5349   17.5702   26.2394 H   0  0  0  0  0  0  0  0  0  0  0  0
   19.9520   16.8801   25.8247 H   0  0  0  0  0  0  0  0  0  0  0  0
   19.7292   19.3186   27.2232 N   0  3  0  0  0  0  0  0  0  0  0  0
   19.3395   20.2536   27.3742 H   0  0  0  0  0  0  0  0  0  0  0  0
   20.5780   19.2468   27.7916 H   0  0  0  0  0  0  0  0  0  0  0  0
   19.0563   18.6415   27.5926 H   0  0  0  0  0  0  0  0  0  0  0  0
  1  2  1  0  0  0  0
  1  3  1  0  0  0  0
  1  4  1  0  0  0  0
  1  5  1  0  0  0  0
  5  6  1  0  0  0  0
  5  7  1  0  0  0  0
  5  8  1  0  0  0  0
  8  9  1  0  0  0  0
  8 10  1  0  0  0  0
  8 11  1  0  0  0  0
 11 12  1  0  0  0  0
 11 13  1  0  0  0  0
 11 14  1  0  0  0  0
 14 15  1  0  0  0  0
 14 16  1  0  0  0  0
 14 17  1  0  0  0  0
 17 18  1  0  0  0  0
 17 19  1  0  0  0  0
 17 20  1  0  0  0  0
 20 21  1  0  0  0  0
 20 22  1  0  0  0  0
 22 23  1  0  0  0  0
 22 24  1  0  0  0  0
 22 25  1  0  0  0  0
 20 26  1  0  0  0  0
 26 27  1  0  0  0  0
 26 28  1  0  0  0  0
 26 29  1  0  0  0  0
M  END
> <VM2 Rank>
128

> <Conf_Id>
1642

> <Probability>
0.01

> <Sum Probability>
99.73

> <Delta G>
4.137

> <G>
37.839

> <E>
-0.183

> <-TS>
38.022

> <U+W>
-24.327

> <U>
28.040

> <W>
-52.368

> <W(PB)>
-54.808

> <W(SA)>
2.440

> <Valence>
6.918

> <Coulomb>
20.071

> <VdW>
1.052

> <VdW6>
-10.718

> <VdW12>
11.770

> <Bond>
0.310

> <Angle>
2.142

> <Pdih>
4.465

> <Idih>
0.000

> <Tether>
0.000

$$$$
VeraChem MOL file


 29 28  0  0  0  0  0  0  0  0999 V2000     
   18.9238   18.4553   19.9346 C   0  0  0  0  0  0  0  0  0  0  0  0
   18.6822   17.4485   19.5701 H   0  0  0  0  0  0  0  0  0  0  0  0
   18.0198   18.8623   20.4034 H   0  0  0  0  0  0  0  0  0  0  0  0
   19.1664   19.0771   19.0631 H   0  0  0  0  0  0  0  0  0  0  0  0
   20.1092   18.4013   20.9254 C   0  0  0  0  0  0  0  0  0  0  0  0
   20.9551   17.9054   20.4292 H   0  0  0  0  0  0  0  0  0  0  0  0
   19.8430   17.7671   21.7797 H   0  0  0  0  0  0  0  0  0  0  0  0
   20.5698   19.8031   21.4020 C   0  0  0  0  0  0  0  0  0  0  0  0
   21.5520   19.7227   21.8874 H   0  0  0  0  0  0  0  0  0  0  0  0
   20.7325   20.4308   20.5150 H   0  0  0  0  0  0  0  0  0  0  0  0
   19.5788   20.5277   22.3533 C   0  0  0  0  0  0  0  0  0  0  0  0
   18.5462   20.2137   22.1565 H   0  0  0  0  0  0  0  0  0  0  0  0
   19.6082   21.6012   22.1211 H   0  0  0  0  0  0  0  0  0  0  0  0
   19.8960   20.3693   23.8628 C   0  0  0  0  0  0  0  0  0  0  0  0
   20.8902   20.7876   24.0725 H   0  0  0  0  0  0  0  0  0  0  0  0
   19.1803   20.9856   24.4223 H   0  0  0  0  0  0  0  0  0  0  0  0
   19.8350   18.9081   24.3740 C   0  0  0  0  0  0  0  0  0  0  0  0
   20.6097   18.3211   23.8657 H   0  0  0  0  0  0  0  0  0  0  0  0
   18.8680   18.4601   24.1096 H   0  0  0  0  0  0  0  0  0  0  0  0
   20.0633   18.7910   25.8967 C   0  0  2  0  0  0  0  0  0  0  0  0
   21.0106   19.2816   26.1406 H   0  0  0  0  0  0  0  0  0  0  0  0
   20.1646   17.3137   26.3088 C   0  0  0  0  0  0  0  0  0  0  0  0
   19.2359   16.7743   26.0841 H   0  0  0  0  0  0  0  0  0  0  0  0
   20.9857   16.8159   25.7780 H   0  0  0  0  0  0  0  0  0  0  0  0
   20.3610   17.2231   27.3843 H   0  0  0  0  0  0  0  0  0  0  0  0
   18.9956   19.4866   26.6964 N   0  3  0  0  0  0  0  0  0  0  0  0
   18.9458   20.4829   26.4673 H   0  0  0  0  0  0  0  0  0  0  0  0
   19.1735   19.4121   27.7021 H   0  0  0  0  0  0  0  0  0  0  0  0
   18.0727   19.0821   26.5173 H   0  0  0  0  0  0  0  0  0  0  0  0
  1  2  1  0  0  0  0
  1  3  1  0  0  0  0
  1  4  1  0  0  0  0
  1  5  1  0  0  0  0
  5  6  1  0  0  0  0
  5  7  1  0  0  0  0
  5  8  1  0  0  0  0
  8  9  1  0  0  0  0
  8 10  1  0  0  0  0
  8 11  1  0  0  0  0
 11 12  1  0  0  0  0
 11 13  1  0  0  0  0
 11 14  1  0  0  0  0
 14 15  1  0  0  0  0
 14 16  1  0  0  0  0
 14 17  1  0  0  0  0
 17 18  1  0  0  0  0
 17 19  1  0  0  0  0
 17 20  1  0  0  0  0
 20 21  1  0  0  0  0
 20 22  1  0  0  0  0
 22 23  1  0  0  0  0
 22 24  1  0  0  0  0
 22 25  1  0  0  0  0
 20 26  1  0  0  0  0
 26 27  1  0  0  0  0
 26 28  1  0  0  0  0
 26 29  1  0  0  0  0
M  END
> <VM2 Rank>
129

> <Conf_Id>
287

> <Probability>
0.01

> <Sum Probability>
99.74

> <Delta G>
4.151

> <G>
37.853

> <E>
0.037

> <-TS>
37.816

> <U+W>
-24.107

> <U>
28.258

> <W>
-52.365

> <W(PB)>
-54.797

> <W(SA)>
2.432

> <Valence>
6.944

> <Coulomb>
20.034

> <VdW>
1.280

> <VdW6>
-10.156

> <VdW12>
11.436

> <Bond>
0.326

> <Angle>
1.949

> <Pdih>
4.669

> <Idih>
0.000

> <Tether>
0.000

$$$$
VeraChem MOL file


 29 28  0  0  0  0  0  0  0  0999 V2000     
   20.2938   20.6220   20.5960 C   0  0  0  0  0  0  0  0  0  0  0  0
   19.4246   21.0541   21.1068 H   0  0  0  0  0  0  0  0  0  0  0  0
   21.1605   20.6832   21.2669 H   0  0  0  0  0  0  0  0  0  0  0  0
   20.5029   21.2474   19.7186 H   0  0  0  0  0  0  0  0  0  0  0  0
   20.0238   19.1634   20.1669 C   0  0  0  0  0  0  0  0  0  0  0  0
   20.8469   18.8284   19.5204 H   0  0  0  0  0  0  0  0  0  0  0  0
   19.1165   19.1269   19.5479 H   0  0  0  0  0  0  0  0  0  0  0  0
   19.8893   18.1679   21.3472 C   0  0  0  0  0  0  0  0  0  0  0  0
   19.7581   17.1646   20.9189 H   0  0  0  0  0  0  0  0  0  0  0  0
   20.8322   18.1278   21.9063 H   0  0  0  0  0  0  0  0  0  0  0  0
   18.6901   18.4472   22.2940 C   0  0  0  0  0  0  0  0  0  0  0  0
   18.2701   17.4889   22.6292 H   0  0  0  0  0  0  0  0  0  0  0  0
   17.8863   18.9364   21.7269 H   0  0  0  0  0  0  0  0  0  0  0  0
   19.0291   19.2964   23.5468 C   0  0  0  0  0  0  0  0  0  0  0  0
   19.5680   20.2068   23.2581 H   0  0  0  0  0  0  0  0  0  0  0  0
   18.0840   19.6278   23.9965 H   0  0  0  0  0  0  0  0  0  0  0  0
   19.8520   18.5187   24.6066 C   0  0  0  0  0  0  0  0  0  0  0  0
   20.7820   18.1542   24.1540 H   0  0  0  0  0  0  0  0  0  0  0  0
   19.2939   17.6301   24.9302 H   0  0  0  0  0  0  0  0  0  0  0  0
   20.2125   19.3795   25.8369 C   0  0  2  0  0  0  0  0  0  0  0  0
   20.7401   20.2725   25.4878 H   0  0  0  0  0  0  0  0  0  0  0  0
   21.1484   18.6029   26.7769 C   0  0  0  0  0  0  0  0  0  0  0  0
   20.6646   17.6945   27.1571 H   0  0  0  0  0  0  0  0  0  0  0  0
   22.0677   18.3079   26.2558 H   0  0  0  0  0  0  0  0  0  0  0  0
   21.4369   19.2216   27.6356 H   0  0  0  0  0  0  0  0  0  0  0  0
   18.9969   19.8580   26.5826 N   0  3  0  0  0  0  0  0  0  0  0  0
   18.3850   20.4162   25.9812 H   0  0  0  0  0  0  0  0  0  0  0  0
   19.2550   20.4418   27.3834 H   0  0  0  0  0  0  0  0  0  0  0  0
   18.4460   19.0730   26.9402 H   0  0  0  0  0  0  0  0  0  0  0  0
  1  2  1  0  0  0  0
  1  3  1  0  0  0  0
  1  4  1  0  0  0  0
  1  5  1  0  0  0  0
  5  6  1  0  0  0  0
  5  7  1  0  0  0  0
  5  8  1  0  0  0  0
  8  9  1  0  0  0  0
  8 10  1  0  0  0  0
  8 11  1  0  0  0  0
 11 12  1  0  0  0  0
 11 13  1  0  0  0  0
 11 14  1  0  0  0  0
 14 15  1  0  0  0  0
 14 16  1  0  0  0  0
 14 17  1  0  0  0  0
 17 18  1  0  0  0  0
 17 19  1  0  0  0  0
 17 20  1  0  0  0  0
 20 21  1  0  0  0  0
 20 22  1  0  0  0  0
 22 23  1  0  0  0  0
 22 24  1  0  0  0  0
 22 25  1  0  0  0  0
 20 26  1  0  0  0  0
 26 27  1  0  0  0  0
 26 28  1  0  0  0  0
 26 29  1  0  0  0  0
M  END
> <VM2 Rank>
130

> <Conf_Id>
1288

> <Probability>
0.01

> <Sum Probability>
99.75

> <Delta G>
4.158

> <G>
37.860

> <E>
0.050

> <-TS>
37.810

> <U+W>
-24.095

> <U>
28.284

> <W>
-52.379

> <W(PB)>
-54.830

> <W(SA)>
2.451

> <Valence>
6.921

> <Coulomb>
20.077

> <VdW>
1.287

> <VdW6>
-10.098

> <VdW12>
11.385

> <Bond>
0.331

> <Angle>
1.887

> <Pdih>
4.704

> <Idih>
0.000

> <Tether>
0.000

$$$$
VeraChem MOL file


 29 28  0  0  0  0  0  0  0  0999 V2000     
   18.5035   19.3361   20.0500 C   0  0  0  0  0  0  0  0  0  0  0  0
   17.9307   19.0093   20.9248 H   0  0  0  0  0  0  0  0  0  0  0  0
   18.2281   20.3770   19.8361 H   0  0  0  0  0  0  0  0  0  0  0  0
   18.1843   18.7251   19.1958 H   0  0  0  0  0  0  0  0  0  0  0  0
   20.0286   19.2037   20.2697 C   0  0  0  0  0  0  0  0  0  0  0  0
   20.5327   19.5309   19.3495 H   0  0  0  0  0  0  0  0  0  0  0  0
   20.3051   18.1490   20.4066 H   0  0  0  0  0  0  0  0  0  0  0  0
   20.5551   20.0573   21.4520 C   0  0  0  0  0  0  0  0  0  0  0  0
   21.5464   20.4445   21.1786 H   0  0  0  0  0  0  0  0  0  0  0  0
   19.9209   20.9433   21.5930 H   0  0  0  0  0  0  0  0  0  0  0  0
   20.7075   19.2924   22.7921 C   0  0  0  0  0  0  0  0  0  0  0  0
   21.1545   19.9808   23.5208 H   0  0  0  0  0  0  0  0  0  0  0  0
   21.4282   18.4731   22.6634 H   0  0  0  0  0  0  0  0  0  0  0  0
   19.3813   18.7253   23.3559 C   0  0  0  0  0  0  0  0  0  0  0  0
   18.6267   19.5210   23.4087 H   0  0  0  0  0  0  0  0  0  0  0  0
   18.9888   17.9719   22.6611 H   0  0  0  0  0  0  0  0  0  0  0  0
   19.5432   18.0508   24.7426 C   0  0  0  0  0  0  0  0  0  0  0  0
   20.2395   17.2071   24.6460 H   0  0  0  0  0  0  0  0  0  0  0  0
   18.5792   17.6191   25.0430 H   0  0  0  0  0  0  0  0  0  0  0  0
   20.0471   18.9943   25.8580 C   0  0  2  0  0  0  0  0  0  0  0  0
   21.0217   19.3919   25.5606 H   0  0  0  0  0  0  0  0  0  0  0  0
   20.2287   18.2189   27.1723 C   0  0  0  0  0  0  0  0  0  0  0  0
   19.2761   17.8020   27.5225 H   0  0  0  0  0  0  0  0  0  0  0  0
   20.9366   17.3910   27.0414 H   0  0  0  0  0  0  0  0  0  0  0  0
   20.6245   18.8742   27.9581 H   0  0  0  0  0  0  0  0  0  0  0  0
   19.1410   20.1772   26.0615 N   0  3  0  0  0  0  0  0  0  0  0  0
   19.0446   20.7225   25.2005 H   0  0  0  0  0  0  0  0  0  0  0  0
   19.5013   20.8052   26.7856 H   0  0  0  0  0  0  0  0  0  0  0  0
   18.2034   19.8834   26.3482 H   0  0  0  0  0  0  0  0  0  0  0  0
  1  2  1  0  0  0  0
  1  3  1  0  0  0  0
  1  4  1  0  0  0  0
  1  5  1  0  0  0  0
  5  6  1  0  0  0  0
  5  7  1  0  0  0  0
  5  8  1  0  0  0  0
  8  9  1  0  0  0  0
  8 10  1  0  0  0  0
  8 11  1  0  0  0  0
 11 12  1  0  0  0  0
 11 13  1  0  0  0  0
 11 14  1  0  0  0  0
 14 15  1  0  0  0  0
 14 16  1  0  0  0  0
 14 17  1  0  0  0  0
 17 18  1  0  0  0  0
 17 19  1  0  0  0  0
 17 20  1  0  0  0  0
 20 21  1  0  0  0  0
 20 22  1  0  0  0  0
 22 23  1  0  0  0  0
 22 24  1  0  0  0  0
 22 25  1  0  0  0  0
 20 26  1  0  0  0  0
 26 27  1  0  0  0  0
 26 28  1  0  0  0  0
 26 29  1  0  0  0  0
M  END
> <VM2 Rank>
131

> <Conf_Id>
374

> <Probability>
0.01

> <Sum Probability>
99.76

> <Delta G>
4.168

> <G>
37.870

> <E>
-0.036

> <-TS>
37.906

> <U+W>
-24.181

> <U>
28.057

> <W>
-52.238

> <W(PB)>
-54.696

> <W(SA)>
2.458

> <Valence>
6.543

> <Coulomb>
20.387

> <VdW>
1.128

> <VdW6>
-10.342

> <VdW12>
11.470

> <Bond>
0.308

> <Angle>
1.937

> <Pdih>
4.297

> <Idih>
0.000

> <Tether>
0.000

$$$$
VeraChem MOL file


 29 28  0  0  0  0  0  0  0  0999 V2000     
   19.5599   19.2337   19.1272 C   0  0  0  0  0  0  0  0  0  0  0  0
   20.2475   19.6829   18.3989 H   0  0  0  0  0  0  0  0  0  0  0  0
   19.5785   18.1456   18.9820 H   0  0  0  0  0  0  0  0  0  0  0  0
   18.5474   19.5919   18.8998 H   0  0  0  0  0  0  0  0  0  0  0  0
   19.9710   19.6076   20.5671 C   0  0  0  0  0  0  0  0  0  0  0  0
   19.9708   20.7014   20.6730 H   0  0  0  0  0  0  0  0  0  0  0  0
   21.0013   19.2709   20.7404 H   0  0  0  0  0  0  0  0  0  0  0  0
   19.0171   18.9814   21.6121 C   0  0  0  0  0  0  0  0  0  0  0  0
   17.9854   19.2668   21.3638 H   0  0  0  0  0  0  0  0  0  0  0  0
   19.0577   17.8855   21.5435 H   0  0  0  0  0  0  0  0  0  0  0  0
   19.3084   19.4233   23.0674 C   0  0  0  0  0  0  0  0  0  0  0  0
   18.4815   19.0646   23.6911 H   0  0  0  0  0  0  0  0  0  0  0  0
   19.3006   20.5204   23.1265 H   0  0  0  0  0  0  0  0  0  0  0  0
   20.6451   18.8726   23.6253 C   0  0  0  0  0  0  0  0  0  0  0  0
   20.6208   17.7748   23.6248 H   0  0  0  0  0  0  0  0  0  0  0  0
   21.4616   19.1511   22.9475 H   0  0  0  0  0  0  0  0  0  0  0  0
   21.0238   19.3969   25.0395 C   0  0  0  0  0  0  0  0  0  0  0  0
   21.1630   20.4850   24.9972 H   0  0  0  0  0  0  0  0  0  0  0  0
   22.0110   18.9878   25.2917 H   0  0  0  0  0  0  0  0  0  0  0  0
   20.0676   19.0573   26.2115 C   0  0  2  0  0  0  0  0  0  0  0  0
   20.6053   19.2947   27.1347 H   0  0  0  0  0  0  0  0  0  0  0  0
   19.7066   17.5626   26.2637 C   0  0  0  0  0  0  0  0  0  0  0  0
   19.0833   17.2664   25.4116 H   0  0  0  0  0  0  0  0  0  0  0  0
   20.6126   16.9440   26.2593 H   0  0  0  0  0  0  0  0  0  0  0  0
   19.1513   17.3334   27.1814 H   0  0  0  0  0  0  0  0  0  0  0  0
   18.8364   19.9206   26.2401 N   0  3  0  0  0  0  0  0  0  0  0  0
   18.2555   19.7150   27.0581 H   0  0  0  0  0  0  0  0  0  0  0  0
   18.2607   19.7755   25.4084 H   0  0  0  0  0  0  0  0  0  0  0  0
   19.0777   20.9151   26.2791 H   0  0  0  0  0  0  0  0  0  0  0  0
  1  2  1  0  0  0  0
  1  3  1  0  0  0  0
  1  4  1  0  0  0  0
  1  5  1  0  0  0  0
  5  6  1  0  0  0  0
  5  7  1  0  0  0  0
  5  8  1  0  0  0  0
  8  9  1  0  0  0  0
  8 10  1  0  0  0  0
  8 11  1  0  0  0  0
 11 12  1  0  0  0  0
 11 13  1  0  0  0  0
 11 14  1  0  0  0  0
 14 15  1  0  0  0  0
 14 16  1  0  0  0  0
 14 17  1  0  0  0  0
 17 18  1  0  0  0  0
 17 19  1  0  0  0  0
 17 20  1  0  0  0  0
 20 21  1  0  0  0  0
 20 22  1  0  0  0  0
 22 23  1  0  0  0  0
 22 24  1  0  0  0  0
 22 25  1  0  0  0  0
 20 26  1  0  0  0  0
 26 27  1  0  0  0  0
 26 28  1  0  0  0  0
 26 29  1  0  0  0  0
M  END
> <VM2 Rank>
132

> <Conf_Id>
305

> <Probability>
0.01

> <Sum Probability>
99.77

> <Delta G>
4.178

> <G>
37.880

> <E>
-0.108

> <-TS>
37.987

> <U+W>
-24.252

> <U>
28.089

> <W>
-52.341

> <W(PB)>
-54.817

> <W(SA)>
2.476

> <Valence>
5.753

> <Coulomb>
21.249

> <VdW>
1.087

> <VdW6>
-10.617

> <VdW12>
11.704

> <Bond>
0.344

> <Angle>
2.548

> <Pdih>
2.862

> <Idih>
0.000

> <Tether>
0.000

$$$$
VeraChem MOL file


 29 28  0  0  0  0  0  0  0  0999 V2000     
   18.1252   19.2758   20.4432 C   0  0  0  0  0  0  0  0  0  0  0  0
   17.6908   19.6626   21.3732 H   0  0  0  0  0  0  0  0  0  0  0  0
   17.5636   19.7166   19.6094 H   0  0  0  0  0  0  0  0  0  0  0  0
   17.9696   18.1895   20.4154 H   0  0  0  0  0  0  0  0  0  0  0  0
   19.6263   19.6254   20.3281 C   0  0  0  0  0  0  0  0  0  0  0  0
   19.7585   20.7144   20.3941 H   0  0  0  0  0  0  0  0  0  0  0  0
   19.9818   19.3327   19.3302 H   0  0  0  0  0  0  0  0  0  0  0  0
   20.5056   18.9257   21.3924 C   0  0  0  0  0  0  0  0  0  0  0  0
   20.3854   17.8367   21.3094 H   0  0  0  0  0  0  0  0  0  0  0  0
   21.5597   19.1385   21.1668 H   0  0  0  0  0  0  0  0  0  0  0  0
   20.1963   19.3761   22.8400 C   0  0  0  0  0  0  0  0  0  0  0  0
   19.1630   19.1061   23.0838 H   0  0  0  0  0  0  0  0  0  0  0  0
   20.2786   20.4696   22.9076 H   0  0  0  0  0  0  0  0  0  0  0  0
   21.1552   18.7177   23.8602 C   0  0  0  0  0  0  0  0  0  0  0  0
   21.0038   17.6299   23.8602 H   0  0  0  0  0  0  0  0  0  0  0  0
   22.1889   18.8730   23.5220 H   0  0  0  0  0  0  0  0  0  0  0  0
   21.0437   19.2717   25.3088 C   0  0  0  0  0  0  0  0  0  0  0  0
   21.3225   20.3335   25.3130 H   0  0  0  0  0  0  0  0  0  0  0  0
   21.8067   18.7686   25.9173 H   0  0  0  0  0  0  0  0  0  0  0  0
   19.6843   19.1062   26.0348 C   0  0  2  0  0  0  0  0  0  0  0  0
   19.8594   19.3409   27.0893 H   0  0  0  0  0  0  0  0  0  0  0  0
   19.1534   17.6636   25.9688 C   0  0  0  0  0  0  0  0  0  0  0  0
   18.8655   17.3840   24.9483 H   0  0  0  0  0  0  0  0  0  0  0  0
   19.9131   16.9539   26.3190 H   0  0  0  0  0  0  0  0  0  0  0  0
   18.2705   17.5495   26.6096 H   0  0  0  0  0  0  0  0  0  0  0  0
   18.6461   20.0937   25.5777 N   0  3  0  0  0  0  0  0  0  0  0  0
   18.9709   21.0580   25.6937 H   0  0  0  0  0  0  0  0  0  0  0  0
   17.7783   19.9973   26.1129 H   0  0  0  0  0  0  0  0  0  0  0  0
   18.4175   19.9617   24.5904 H   0  0  0  0  0  0  0  0  0  0  0  0
  1  2  1  0  0  0  0
  1  3  1  0  0  0  0
  1  4  1  0  0  0  0
  1  5  1  0  0  0  0
  5  6  1  0  0  0  0
  5  7  1  0  0  0  0
  5  8  1  0  0  0  0
  8  9  1  0  0  0  0
  8 10  1  0  0  0  0
  8 11  1  0  0  0  0
 11 12  1  0  0  0  0
 11 13  1  0  0  0  0
 11 14  1  0  0  0  0
 14 15  1  0  0  0  0
 14 16  1  0  0  0  0
 14 17  1  0  0  0  0
 17 18  1  0  0  0  0
 17 19  1  0  0  0  0
 17 20  1  0  0  0  0
 20 21  1  0  0  0  0
 20 22  1  0  0  0  0
 22 23  1  0  0  0  0
 22 24  1  0  0  0  0
 22 25  1  0  0  0  0
 20 26  1  0  0  0  0
 26 27  1  0  0  0  0
 26 28  1  0  0  0  0
 26 29  1  0  0  0  0
M  END
> <VM2 Rank>
133

> <Conf_Id>
1203

> <Probability>
0.01

> <Sum Probability>
99.78

> <Delta G>
4.207

> <G>
37.909

> <E>
-0.174

> <-TS>
38.083

> <U+W>
-24.318

> <U>
28.045

> <W>
-52.364

> <W(PB)>
-54.808

> <W(SA)>
2.445

> <Valence>
5.555

> <Coulomb>
21.509

> <VdW>
0.981

> <VdW6>
-10.796

> <VdW12>
11.777

> <Bond>
0.331

> <Angle>
2.400

> <Pdih>
2.824

> <Idih>
0.000

> <Tether>
0.000

$$$$
VeraChem MOL file


 29 28  0  0  0  0  0  0  0  0999 V2000     
   19.2173   17.8337   20.8002 C   0  0  0  0  0  0  0  0  0  0  0  0
   18.3375   17.1817   20.7248 H   0  0  0  0  0  0  0  0  0  0  0  0
   19.7417   17.8023   19.8364 H   0  0  0  0  0  0  0  0  0  0  0  0
   19.8808   17.4087   21.5628 H   0  0  0  0  0  0  0  0  0  0  0  0
   18.7926   19.2779   21.1511 C   0  0  0  0  0  0  0  0  0  0  0  0
   18.2517   19.2957   22.1054 H   0  0  0  0  0  0  0  0  0  0  0  0
   18.0722   19.6230   20.3964 H   0  0  0  0  0  0  0  0  0  0  0  0
   19.9772   20.2739   21.1879 C   0  0  0  0  0  0  0  0  0  0  0  0
   20.4380   20.3047   20.1910 H   0  0  0  0  0  0  0  0  0  0  0  0
   19.5832   21.2843   21.3635 H   0  0  0  0  0  0  0  0  0  0  0  0
   21.0863   19.9791   22.2338 C   0  0  0  0  0  0  0  0  0  0  0  0
   21.8787   20.7250   22.0822 H   0  0  0  0  0  0  0  0  0  0  0  0
   21.5615   19.0097   22.0339 H   0  0  0  0  0  0  0  0  0  0  0  0
   20.6293   20.0702   23.7136 C   0  0  0  0  0  0  0  0  0  0  0  0
   21.4669   20.4619   24.3075 H   0  0  0  0  0  0  0  0  0  0  0  0
   19.8203   20.8066   23.8060 H   0  0  0  0  0  0  0  0  0  0  0  0
   20.2085   18.7073   24.3225 C   0  0  0  0  0  0  0  0  0  0  0  0
   21.0285   17.9904   24.1835 H   0  0  0  0  0  0  0  0  0  0  0  0
   19.3434   18.2957   23.7920 H   0  0  0  0  0  0  0  0  0  0  0  0
   19.8833   18.8001   25.8287 C   0  0  2  0  0  0  0  0  0  0  0  0
   20.7511   19.2258   26.3417 H   0  0  0  0  0  0  0  0  0  0  0  0
   19.6195   17.4002   26.4059 C   0  0  0  0  0  0  0  0  0  0  0  0
   19.4231   17.4553   27.4837 H   0  0  0  0  0  0  0  0  0  0  0  0
   18.7538   16.9287   25.9242 H   0  0  0  0  0  0  0  0  0  0  0  0
   20.4894   16.7478   26.2593 H   0  0  0  0  0  0  0  0  0  0  0  0
   18.7220   19.7137   26.1104 N   0  3  0  0  0  0  0  0  0  0  0  0
   18.9011   20.6614   25.7676 H   0  0  0  0  0  0  0  0  0  0  0  0
   18.5347   19.7813   27.1149 H   0  0  0  0  0  0  0  0  0  0  0  0
   17.8661   19.3787   25.6604 H   0  0  0  0  0  0  0  0  0  0  0  0
  1  2  1  0  0  0  0
  1  3  1  0  0  0  0
  1  4  1  0  0  0  0
  1  5  1  0  0  0  0
  5  6  1  0  0  0  0
  5  7  1  0  0  0  0
  5  8  1  0  0  0  0
  8  9  1  0  0  0  0
  8 10  1  0  0  0  0
  8 11  1  0  0  0  0
 11 12  1  0  0  0  0
 11 13  1  0  0  0  0
 11 14  1  0  0  0  0
 14 15  1  0  0  0  0
 14 16  1  0  0  0  0
 14 17  1  0  0  0  0
 17 18  1  0  0  0  0
 17 19  1  0  0  0  0
 17 20  1  0  0  0  0
 20 21  1  0  0  0  0
 20 22  1  0  0  0  0
 22 23  1  0  0  0  0
 22 24  1  0  0  0  0
 22 25  1  0  0  0  0
 20 26  1  0  0  0  0
 26 27  1  0  0  0  0
 26 28  1  0  0  0  0
 26 29  1  0  0  0  0
M  END
> <VM2 Rank>
134

> <Conf_Id>
996

> <Probability>
0.01

> <Sum Probability>
99.79

> <Delta G>
4.229

> <G>
37.931

> <E>
-0.273

> <-TS>
38.204

> <U+W>
-24.418

> <U>
28.181

> <W>
-52.599

> <W(PB)>
-55.015

> <W(SA)>
2.416

> <Valence>
6.746

> <Coulomb>
20.582

> <VdW>
0.854

> <VdW6>
-10.781

> <VdW12>
11.635

> <Bond>
0.324

> <Angle>
2.262

> <Pdih>
4.159

> <Idih>
0.000

> <Tether>
0.000

$$$$
VeraChem MOL file


 29 28  0  0  0  0  0  0  0  0999 V2000     
   20.2258   21.0448   20.9132 C   0  0  0  0  0  0  0  0  0  0  0  0
   19.5852   21.9151   20.7201 H   0  0  0  0  0  0  0  0  0  0  0  0
   21.0202   21.3574   21.6035 H   0  0  0  0  0  0  0  0  0  0  0  0
   20.6930   20.7531   19.9636 H   0  0  0  0  0  0  0  0  0  0  0  0
   19.4018   19.8828   21.5061 C   0  0  0  0  0  0  0  0  0  0  0  0
   18.5958   19.6140   20.8093 H   0  0  0  0  0  0  0  0  0  0  0  0
   18.9188   20.2244   22.4294 H   0  0  0  0  0  0  0  0  0  0  0  0
   20.2840   18.6427   21.7824 C   0  0  0  0  0  0  0  0  0  0  0  0
   20.7577   18.3330   20.8406 H   0  0  0  0  0  0  0  0  0  0  0  0
   21.1103   18.9022   22.4558 H   0  0  0  0  0  0  0  0  0  0  0  0
   19.4959   17.4347   22.3478 C   0  0  0  0  0  0  0  0  0  0  0  0
   20.1815   16.5807   22.4357 H   0  0  0  0  0  0  0  0  0  0  0  0
   18.7396   17.1323   21.6104 H   0  0  0  0  0  0  0  0  0  0  0  0
   18.7935   17.6523   23.7156 C   0  0  0  0  0  0  0  0  0  0  0  0
   18.0067   18.4116   23.6284 H   0  0  0  0  0  0  0  0  0  0  0  0
   18.2661   16.7200   23.9603 H   0  0  0  0  0  0  0  0  0  0  0  0
   19.7533   17.9748   24.8933 C   0  0  0  0  0  0  0  0  0  0  0  0
   20.6793   17.3978   24.7690 H   0  0  0  0  0  0  0  0  0  0  0  0
   19.3006   17.6172   25.8276 H   0  0  0  0  0  0  0  0  0  0  0  0
   20.0876   19.4749   25.0590 C   0  0  2  0  0  0  0  0  0  0  0  0
   20.4365   19.8680   24.1014 H   0  0  0  0  0  0  0  0  0  0  0  0
   21.2117   19.6608   26.0900 C   0  0  0  0  0  0  0  0  0  0  0  0
   21.4725   20.7213   26.1933 H   0  0  0  0  0  0  0  0  0  0  0  0
   20.9123   19.2844   27.0763 H   0  0  0  0  0  0  0  0  0  0  0  0
   22.1173   19.1246   25.7799 H   0  0  0  0  0  0  0  0  0  0  0  0
   18.8824   20.2881   25.4466 N   0  3  0  0  0  0  0  0  0  0  0  0
   18.1306   20.1966   24.7587 H   0  0  0  0  0  0  0  0  0  0  0  0
   19.1115   21.2832   25.5237 H   0  0  0  0  0  0  0  0  0  0  0  0
   18.5090   19.9896   26.3517 H   0  0  0  0  0  0  0  0  0  0  0  0
  1  2  1  0  0  0  0
  1  3  1  0  0  0  0
  1  4  1  0  0  0  0
  1  5  1  0  0  0  0
  5  6  1  0  0  0  0
  5  7  1  0  0  0  0
  5  8  1  0  0  0  0
  8  9  1  0  0  0  0
  8 10  1  0  0  0  0
  8 11  1  0  0  0  0
 11 12  1  0  0  0  0
 11 13  1  0  0  0  0
 11 14  1  0  0  0  0
 14 15  1  0  0  0  0
 14 16  1  0  0  0  0
 14 17  1  0  0  0  0
 17 18  1  0  0  0  0
 17 19  1  0  0  0  0
 17 20  1  0  0  0  0
 20 21  1  0  0  0  0
 20 22  1  0  0  0  0
 22 23  1  0  0  0  0
 22 24  1  0  0  0  0
 22 25  1  0  0  0  0
 20 26  1  0  0  0  0
 26 27  1  0  0  0  0
 26 28  1  0  0  0  0
 26 29  1  0  0  0  0
M  END
> <VM2 Rank>
135

> <Conf_Id>
1353

> <Probability>
0.01

> <Sum Probability>
99.80

> <Delta G>
4.231

> <G>
37.933

> <E>
-0.486

> <-TS>
38.419

> <U+W>
-24.631

> <U>
28.071

> <W>
-52.702

> <W(PB)>
-55.094

> <W(SA)>
2.392

> <Valence>
6.291

> <Coulomb>
21.485

> <VdW>
0.295

> <VdW6>
-11.564

> <VdW12>
11.859

> <Bond>
0.313

> <Angle>
2.279

> <Pdih>
3.699

> <Idih>
0.000

> <Tether>
0.000

$$$$
VeraChem MOL file


 29 28  0  0  0  0  0  0  0  0999 V2000     
   19.3788   20.7002   20.0008 C   0  0  0  0  0  0  0  0  0  0  0  0
   18.2844   20.6574   19.9247 H   0  0  0  0  0  0  0  0  0  0  0  0
   19.6730   21.7571   20.0393 H   0  0  0  0  0  0  0  0  0  0  0  0
   19.8026   20.2658   19.0860 H   0  0  0  0  0  0  0  0  0  0  0  0
   19.8769   19.9501   21.2542 C   0  0  0  0  0  0  0  0  0  0  0  0
   19.4617   20.4372   22.1460 H   0  0  0  0  0  0  0  0  0  0  0  0
   20.9708   20.0330   21.3176 H   0  0  0  0  0  0  0  0  0  0  0  0
   19.4655   18.4604   21.2280 C   0  0  0  0  0  0  0  0  0  0  0  0
   18.3695   18.3846   21.2425 H   0  0  0  0  0  0  0  0  0  0  0  0
   19.7893   18.0180   20.2758 H   0  0  0  0  0  0  0  0  0  0  0  0
   20.0555   17.6117   22.3838 C   0  0  0  0  0  0  0  0  0  0  0  0
   21.1521   17.5930   22.3174 H   0  0  0  0  0  0  0  0  0  0  0  0
   19.7326   16.5730   22.2284 H   0  0  0  0  0  0  0  0  0  0  0  0
   19.6080   18.0498   23.8026 C   0  0  0  0  0  0  0  0  0  0  0  0
   18.6203   18.5260   23.7489 H   0  0  0  0  0  0  0  0  0  0  0  0
   19.4777   17.1453   24.4114 H   0  0  0  0  0  0  0  0  0  0  0  0
   20.6358   18.9774   24.5082 C   0  0  0  0  0  0  0  0  0  0  0  0
   20.8760   19.8321   23.8664 H   0  0  0  0  0  0  0  0  0  0  0  0
   21.5795   18.4316   24.6390 H   0  0  0  0  0  0  0  0  0  0  0  0
   20.1836   19.5186   25.8849 C   0  0  2  0  0  0  0  0  0  0  0  0
   20.9876   20.1574   26.2633 H   0  0  0  0  0  0  0  0  0  0  0  0
   19.9648   18.3908   26.9082 C   0  0  0  0  0  0  0  0  0  0  0  0
   19.1056   17.7634   26.6428 H   0  0  0  0  0  0  0  0  0  0  0  0
   20.8519   17.7489   26.9767 H   0  0  0  0  0  0  0  0  0  0  0  0
   19.7789   18.8085   27.9053 H   0  0  0  0  0  0  0  0  0  0  0  0
   18.9670   20.3969   25.7833 N   0  3  0  0  0  0  0  0  0  0  0  0
   19.1213   21.1797   25.1415 H   0  0  0  0  0  0  0  0  0  0  0  0
   18.7150   20.7924   26.6937 H   0  0  0  0  0  0  0  0  0  0  0  0
   18.1580   19.8718   25.4421 H   0  0  0  0  0  0  0  0  0  0  0  0
  1  2  1  0  0  0  0
  1  3  1  0  0  0  0
  1  4  1  0  0  0  0
  1  5  1  0  0  0  0
  5  6  1  0  0  0  0
  5  7  1  0  0  0  0
  5  8  1  0  0  0  0
  8  9  1  0  0  0  0
  8 10  1  0  0  0  0
  8 11  1  0  0  0  0
 11 12  1  0  0  0  0
 11 13  1  0  0  0  0
 11 14  1  0  0  0  0
 14 15  1  0  0  0  0
 14 16  1  0  0  0  0
 14 17  1  0  0  0  0
 17 18  1  0  0  0  0
 17 19  1  0  0  0  0
 17 20  1  0  0  0  0
 20 21  1  0  0  0  0
 20 22  1  0  0  0  0
 22 23  1  0  0  0  0
 22 24  1  0  0  0  0
 22 25  1  0  0  0  0
 20 26  1  0  0  0  0
 26 27  1  0  0  0  0
 26 28  1  0  0  0  0
 26 29  1  0  0  0  0
M  END
> <VM2 Rank>
136

> <Conf_Id>
877

> <Probability>
0.01

> <Sum Probability>
99.80

> <Delta G>
4.238

> <G>
37.940

> <E>
-0.005

> <-TS>
37.945

> <U+W>
-24.149

> <U>
28.636

> <W>
-52.785

> <W(PB)>
-55.211

> <W(SA)>
2.426

> <Valence>
6.737

> <Coulomb>
20.766

> <VdW>
1.133

> <VdW6>
-10.382

> <VdW12>
11.516

> <Bond>
0.321

> <Angle>
1.947

> <Pdih>
4.469

> <Idih>
0.000

> <Tether>
0.000

$$$$
VeraChem MOL file


 29 28  0  0  0  0  0  0  0  0999 V2000     
   18.6686   19.2226   20.1144 C   0  0  0  0  0  0  0  0  0  0  0  0
   18.5634   18.1303   20.1393 H   0  0  0  0  0  0  0  0  0  0  0  0
   18.0971   19.6485   20.9483 H   0  0  0  0  0  0  0  0  0  0  0  0
   18.2101   19.5832   19.1846 H   0  0  0  0  0  0  0  0  0  0  0  0
   20.1537   19.6407   20.1811 C   0  0  0  0  0  0  0  0  0  0  0  0
   20.2223   20.7371   20.2103 H   0  0  0  0  0  0  0  0  0  0  0  0
   20.6494   19.3295   19.2510 H   0  0  0  0  0  0  0  0  0  0  0  0
   20.9328   19.0397   21.3787 C   0  0  0  0  0  0  0  0  0  0  0  0
   20.9555   17.9439   21.3033 H   0  0  0  0  0  0  0  0  0  0  0  0
   21.9787   19.3643   21.2885 H   0  0  0  0  0  0  0  0  0  0  0  0
   20.4108   19.4732   22.7732 C   0  0  0  0  0  0  0  0  0  0  0  0
   19.9398   20.4636   22.7070 H   0  0  0  0  0  0  0  0  0  0  0  0
   21.2757   19.5906   23.4396 H   0  0  0  0  0  0  0  0  0  0  0  0
   19.4333   18.4505   23.4071 C   0  0  0  0  0  0  0  0  0  0  0  0
   18.6119   18.2373   22.7130 H   0  0  0  0  0  0  0  0  0  0  0  0
   19.9482   17.4926   23.5582 H   0  0  0  0  0  0  0  0  0  0  0  0
   18.8225   18.9410   24.7451 C   0  0  0  0  0  0  0  0  0  0  0  0
   18.1359   18.1739   25.1270 H   0  0  0  0  0  0  0  0  0  0  0  0
   18.2059   19.8259   24.5394 H   0  0  0  0  0  0  0  0  0  0  0  0
   19.8507   19.2984   25.8442 C   0  0  2  0  0  0  0  0  0  0  0  0
   20.5266   20.0628   25.4497 H   0  0  0  0  0  0  0  0  0  0  0  0
   20.6886   18.0798   26.2704 C   0  0  0  0  0  0  0  0  0  0  0  0
   20.0481   17.2623   26.6241 H   0  0  0  0  0  0  0  0  0  0  0  0
   21.2969   17.7050   25.4391 H   0  0  0  0  0  0  0  0  0  0  0  0
   21.3768   18.3484   27.0813 H   0  0  0  0  0  0  0  0  0  0  0  0
   19.1751   19.9101   27.0397 N   0  3  0  0  0  0  0  0  0  0  0  0
   18.5218   19.2541   27.4762 H   0  0  0  0  0  0  0  0  0  0  0  0
   18.6453   20.7488   26.7854 H   0  0  0  0  0  0  0  0  0  0  0  0
   19.8555   20.1845   27.7542 H   0  0  0  0  0  0  0  0  0  0  0  0
  1  2  1  0  0  0  0
  1  3  1  0  0  0  0
  1  4  1  0  0  0  0
  1  5  1  0  0  0  0
  5  6  1  0  0  0  0
  5  7  1  0  0  0  0
  5  8  1  0  0  0  0
  8  9  1  0  0  0  0
  8 10  1  0  0  0  0
  8 11  1  0  0  0  0
 11 12  1  0  0  0  0
 11 13  1  0  0  0  0
 11 14  1  0  0  0  0
 14 15  1  0  0  0  0
 14 16  1  0  0  0  0
 14 17  1  0  0  0  0
 17 18  1  0  0  0  0
 17 19  1  0  0  0  0
 17 20  1  0  0  0  0
 20 21  1  0  0  0  0
 20 22  1  0  0  0  0
 22 23  1  0  0  0  0
 22 24  1  0  0  0  0
 22 25  1  0  0  0  0
 20 26  1  0  0  0  0
 26 27  1  0  0  0  0
 26 28  1  0  0  0  0
 26 29  1  0  0  0  0
M  END
> <VM2 Rank>
137

> <Conf_Id>
1280

> <Probability>
0.01

> <Sum Probability>
99.81

> <Delta G>
4.257

> <G>
37.959

> <E>
-0.103

> <-TS>
38.061

> <U+W>
-24.247

> <U>
28.141

> <W>
-52.388

> <W(PB)>
-54.810

> <W(SA)>
2.422

> <Valence>
6.970

> <Coulomb>
20.047

> <VdW>
1.125

> <VdW6>
-10.616

> <VdW12>
11.740

> <Bond>
0.316

> <Angle>
2.133

> <Pdih>
4.521

> <Idih>
0.000

> <Tether>
0.000

$$$$
VeraChem MOL file


 29 28  0  0  0  0  0  0  0  0999 V2000     
   18.6517   20.3791   20.8249 C   0  0  0  0  0  0  0  0  0  0  0  0
   18.1256   20.9020   20.0159 H   0  0  0  0  0  0  0  0  0  0  0  0
   17.9137   20.1245   21.5966 H   0  0  0  0  0  0  0  0  0  0  0  0
   19.3771   21.0826   21.2512 H   0  0  0  0  0  0  0  0  0  0  0  0
   19.3510   19.1135   20.2833 C   0  0  0  0  0  0  0  0  0  0  0  0
   20.1348   19.4062   19.5708 H   0  0  0  0  0  0  0  0  0  0  0  0
   18.6207   18.5275   19.7080 H   0  0  0  0  0  0  0  0  0  0  0  0
   19.9576   18.2006   21.3792 C   0  0  0  0  0  0  0  0  0  0  0  0
   19.1601   17.8219   22.0300 H   0  0  0  0  0  0  0  0  0  0  0  0
   20.3707   17.3151   20.8767 H   0  0  0  0  0  0  0  0  0  0  0  0
   21.0954   18.8530   22.2115 C   0  0  0  0  0  0  0  0  0  0  0  0
   21.6256   19.5874   21.5897 H   0  0  0  0  0  0  0  0  0  0  0  0
   21.8410   18.0836   22.4550 H   0  0  0  0  0  0  0  0  0  0  0  0
   20.6420   19.5262   23.5334 C   0  0  0  0  0  0  0  0  0  0  0  0
   21.4878   20.1023   23.9337 H   0  0  0  0  0  0  0  0  0  0  0  0
   19.8453   20.2509   23.3337 H   0  0  0  0  0  0  0  0  0  0  0  0
   20.1804   18.5115   24.6114 C   0  0  0  0  0  0  0  0  0  0  0  0
   20.9647   17.7547   24.7456 H   0  0  0  0  0  0  0  0  0  0  0  0
   19.2835   17.9770   24.2754 H   0  0  0  0  0  0  0  0  0  0  0  0
   19.8941   19.1769   25.9748 C   0  0  2  0  0  0  0  0  0  0  0  0
   20.7914   19.7203   26.2866 H   0  0  0  0  0  0  0  0  0  0  0  0
   19.5829   18.1096   27.0361 C   0  0  0  0  0  0  0  0  0  0  0  0
   18.6863   17.5355   26.7709 H   0  0  0  0  0  0  0  0  0  0  0  0
   20.4197   17.4076   27.1401 H   0  0  0  0  0  0  0  0  0  0  0  0
   19.4145   18.5736   28.0157 H   0  0  0  0  0  0  0  0  0  0  0  0
   18.7808   20.1857   25.8994 N   0  3  0  0  0  0  0  0  0  0  0  0
   18.9939   20.9273   25.2269 H   0  0  0  0  0  0  0  0  0  0  0  0
   18.6185   20.6318   26.8068 H   0  0  0  0  0  0  0  0  0  0  0  0
   17.9014   19.7492   25.6102 H   0  0  0  0  0  0  0  0  0  0  0  0
  1  2  1  0  0  0  0
  1  3  1  0  0  0  0
  1  4  1  0  0  0  0
  1  5  1  0  0  0  0
  5  6  1  0  0  0  0
  5  7  1  0  0  0  0
  5  8  1  0  0  0  0
  8  9  1  0  0  0  0
  8 10  1  0  0  0  0
  8 11  1  0  0  0  0
 11 12  1  0  0  0  0
 11 13  1  0  0  0  0
 11 14  1  0  0  0  0
 14 15  1  0  0  0  0
 14 16  1  0  0  0  0
 14 17  1  0  0  0  0
 17 18  1  0  0  0  0
 17 19  1  0  0  0  0
 17 20  1  0  0  0  0
 20 21  1  0  0  0  0
 20 22  1  0  0  0  0
 22 23  1  0  0  0  0
 22 24  1  0  0  0  0
 22 25  1  0  0  0  0
 20 26  1  0  0  0  0
 26 27  1  0  0  0  0
 26 28  1  0  0  0  0
 26 29  1  0  0  0  0
M  END
> <VM2 Rank>
138

> <Conf_Id>
904

> <Probability>
0.01

> <Sum Probability>
99.82

> <Delta G>
4.273

> <G>
37.976

> <E>
0.244

> <-TS>
37.731

> <U+W>
-23.900

> <U>
28.595

> <W>
-52.495

> <W(PB)>
-54.944

> <W(SA)>
2.449

> <Valence>
6.844

> <Coulomb>
20.557

> <VdW>
1.194

> <VdW6>
-10.197

> <VdW12>
11.391

> <Bond>
0.333

> <Angle>
1.970

> <Pdih>
4.541

> <Idih>
0.000

> <Tether>
0.000

$$$$
VeraChem MOL file


 29 28  0  0  0  0  0  0  0  0999 V2000     
   19.8079   19.5878   19.5749 C   0  0  0  0  0  0  0  0  0  0  0  0
   19.7316   18.4937   19.5561 H   0  0  0  0  0  0  0  0  0  0  0  0
   18.7999   20.0060   19.4569 H   0  0  0  0  0  0  0  0  0  0  0  0
   20.4014   19.8913   18.7027 H   0  0  0  0  0  0  0  0  0  0  0  0
   20.4688   20.0895   20.8789 C   0  0  0  0  0  0  0  0  0  0  0  0
   20.6399   21.1717   20.7937 H   0  0  0  0  0  0  0  0  0  0  0  0
   21.4606   19.6297   20.9914 H   0  0  0  0  0  0  0  0  0  0  0  0
   19.6206   19.8204   22.1454 C   0  0  0  0  0  0  0  0  0  0  0  0
   20.1063   20.3246   22.9874 H   0  0  0  0  0  0  0  0  0  0  0  0
   18.6353   20.2923   22.0298 H   0  0  0  0  0  0  0  0  0  0  0  0
   19.4422   18.3119   22.4562 C   0  0  0  0  0  0  0  0  0  0  0  0
   20.4203   17.8140   22.5044 H   0  0  0  0  0  0  0  0  0  0  0  0
   18.9059   17.8467   21.6189 H   0  0  0  0  0  0  0  0  0  0  0  0
   18.6346   18.0247   23.7492 C   0  0  0  0  0  0  0  0  0  0  0  0
   17.8466   18.7772   23.8853 H   0  0  0  0  0  0  0  0  0  0  0  0
   18.1046   17.0725   23.6081 H   0  0  0  0  0  0  0  0  0  0  0  0
   19.4941   17.8830   25.0346 C   0  0  0  0  0  0  0  0  0  0  0  0
   20.2229   17.0756   24.8830 H   0  0  0  0  0  0  0  0  0  0  0  0
   18.8454   17.5537   25.8571 H   0  0  0  0  0  0  0  0  0  0  0  0
   20.2431   19.1603   25.4699 C   0  0  2  0  0  0  0  0  0  0  0  0
   20.9000   19.4705   24.6530 H   0  0  0  0  0  0  0  0  0  0  0  0
   21.1186   18.8739   26.7000 C   0  0  0  0  0  0  0  0  0  0  0  0
   21.6823   19.7685   26.9920 H   0  0  0  0  0  0  0  0  0  0  0  0
   20.5097   18.5589   27.5567 H   0  0  0  0  0  0  0  0  0  0  0  0
   21.8437   18.0789   26.4855 H   0  0  0  0  0  0  0  0  0  0  0  0
   19.3060   20.3046   25.7447 N   0  3  0  0  0  0  0  0  0  0  0  0
   18.7338   20.5201   24.9240 H   0  0  0  0  0  0  0  0  0  0  0  0
   19.8166   21.1547   26.0001 H   0  0  0  0  0  0  0  0  0  0  0  0
   18.6695   20.0858   26.5158 H   0  0  0  0  0  0  0  0  0  0  0  0
  1  2  1  0  0  0  0
  1  3  1  0  0  0  0
  1  4  1  0  0  0  0
  1  5  1  0  0  0  0
  5  6  1  0  0  0  0
  5  7  1  0  0  0  0
  5  8  1  0  0  0  0
  8  9  1  0  0  0  0
  8 10  1  0  0  0  0
  8 11  1  0  0  0  0
 11 12  1  0  0  0  0
 11 13  1  0  0  0  0
 11 14  1  0  0  0  0
 14 15  1  0  0  0  0
 14 16  1  0  0  0  0
 14 17  1  0  0  0  0
 17 18  1  0  0  0  0
 17 19  1  0  0  0  0
 17 20  1  0  0  0  0
 20 21  1  0  0  0  0
 20 22  1  0  0  0  0
 22 23  1  0  0  0  0
 22 24  1  0  0  0  0
 22 25  1  0  0  0  0
 20 26  1  0  0  0  0
 26 27  1  0  0  0  0
 26 28  1  0  0  0  0
 26 29  1  0  0  0  0
M  END
> <VM2 Rank>
139

> <Conf_Id>
969

> <Probability>
0.01

> <Sum Probability>
99.83

> <Delta G>
4.322

> <G>
38.024

> <E>
0.063

> <-TS>
37.961

> <U+W>
-24.081

> <U>
28.340

> <W>
-52.421

> <W(PB)>
-54.864

> <W(SA)>
2.443

> <Valence>
6.427

> <Coulomb>
21.044

> <VdW>
0.869

> <VdW6>
-10.613

> <VdW12>
11.481

> <Bond>
0.315

> <Angle>
2.103

> <Pdih>
4.009

> <Idih>
0.000

> <Tether>
0.000

$$$$
VeraChem MOL file


 29 28  0  0  0  0  0  0  0  0999 V2000     
   18.4799   18.3183   20.8157 C   0  0  0  0  0  0  0  0  0  0  0  0
   17.6881   19.0441   20.5893 H   0  0  0  0  0  0  0  0  0  0  0  0
   18.3413   17.4527   20.1552 H   0  0  0  0  0  0  0  0  0  0  0  0
   18.3445   17.9713   21.8473 H   0  0  0  0  0  0  0  0  0  0  0  0
   19.8792   18.9399   20.6062 C   0  0  0  0  0  0  0  0  0  0  0  0
   20.0121   19.1589   19.5376 H   0  0  0  0  0  0  0  0  0  0  0  0
   20.6535   18.2038   20.8605 H   0  0  0  0  0  0  0  0  0  0  0  0
   20.0994   20.2479   21.4082 C   0  0  0  0  0  0  0  0  0  0  0  0
   21.0963   20.6446   21.1714 H   0  0  0  0  0  0  0  0  0  0  0  0
   19.3843   21.0046   21.0574 H   0  0  0  0  0  0  0  0  0  0  0  0
   19.9642   20.1092   22.9462 C   0  0  0  0  0  0  0  0  0  0  0  0
   18.9355   19.8207   23.1903 H   0  0  0  0  0  0  0  0  0  0  0  0
   20.1293   21.0971   23.3976 H   0  0  0  0  0  0  0  0  0  0  0  0
   20.9631   19.0965   23.5594 C   0  0  0  0  0  0  0  0  0  0  0  0
   20.7137   18.0788   23.2329 H   0  0  0  0  0  0  0  0  0  0  0  0
   21.9632   19.3030   23.1541 H   0  0  0  0  0  0  0  0  0  0  0  0
   21.0602   19.1406   25.1103 C   0  0  0  0  0  0  0  0  0  0  0  0
   21.4261   20.1273   25.4231 H   0  0  0  0  0  0  0  0  0  0  0  0
   21.8405   18.4312   25.4159 H   0  0  0  0  0  0  0  0  0  0  0  0
   19.7794   18.8007   25.9145 C   0  0  2  0  0  0  0  0  0  0  0  0
   20.0864   18.6718   26.9570 H   0  0  0  0  0  0  0  0  0  0  0  0
   19.1327   17.4805   25.4606 C   0  0  0  0  0  0  0  0  0  0  0  0
   18.3204   17.1970   26.1409 H   0  0  0  0  0  0  0  0  0  0  0  0
   18.7120   17.5617   24.4514 H   0  0  0  0  0  0  0  0  0  0  0  0
   19.8683   16.6666   25.4627 H   0  0  0  0  0  0  0  0  0  0  0  0
   18.7778   19.9222   25.9329 N   0  3  0  0  0  0  0  0  0  0  0  0
   19.1880   20.7836   26.3051 H   0  0  0  0  0  0  0  0  0  0  0  0
   17.9695   19.6912   26.5177 H   0  0  0  0  0  0  0  0  0  0  0  0
   18.4319   20.1259   24.9931 H   0  0  0  0  0  0  0  0  0  0  0  0
  1  2  1  0  0  0  0
  1  3  1  0  0  0  0
  1  4  1  0  0  0  0
  1  5  1  0  0  0  0
  5  6  1  0  0  0  0
  5  7  1  0  0  0  0
  5  8  1  0  0  0  0
  8  9  1  0  0  0  0
  8 10  1  0  0  0  0
  8 11  1  0  0  0  0
 11 12  1  0  0  0  0
 11 13  1  0  0  0  0
 11 14  1  0  0  0  0
 14 15  1  0  0  0  0
 14 16  1  0  0  0  0
 14 17  1  0  0  0  0
 17 18  1  0  0  0  0
 17 19  1  0  0  0  0
 17 20  1  0  0  0  0
 20 21  1  0  0  0  0
 20 22  1  0  0  0  0
 22 23  1  0  0  0  0
 22 24  1  0  0  0  0
 22 25  1  0  0  0  0
 20 26  1  0  0  0  0
 26 27  1  0  0  0  0
 26 28  1  0  0  0  0
 26 29  1  0  0  0  0
M  END
> <VM2 Rank>
140

> <Conf_Id>
676

> <Probability>
0.01

> <Sum Probability>
99.83

> <Delta G>
4.333

> <G>
38.035

> <E>
-0.462

> <-TS>
38.497

> <U+W>
-24.607

> <U>
28.222

> <W>
-52.828

> <W(PB)>
-55.186

> <W(SA)>
2.358

> <Valence>
5.955

> <Coulomb>
21.478

> <VdW>
0.789

> <VdW6>
-11.978

> <VdW12>
12.767

> <Bond>
0.372

> <Angle>
2.690

> <Pdih>
2.893

> <Idih>
0.000

> <Tether>
0.000

$$$$
VeraChem MOL file


 29 28  0  0  0  0  0  0  0  0999 V2000     
   20.3064   19.7521   19.6627 C   0  0  0  0  0  0  0  0  0  0  0  0
   21.3170   20.0942   19.9205 H   0  0  0  0  0  0  0  0  0  0  0  0
   20.3391   18.6665   19.5097 H   0  0  0  0  0  0  0  0  0  0  0  0
   20.0317   20.2108   18.7040 H   0  0  0  0  0  0  0  0  0  0  0  0
   19.2902   20.1442   20.7595 C   0  0  0  0  0  0  0  0  0  0  0  0
   18.2938   19.7623   20.4966 H   0  0  0  0  0  0  0  0  0  0  0  0
   19.2033   21.2396   20.7811 H   0  0  0  0  0  0  0  0  0  0  0  0
   19.6848   19.6523   22.1731 C   0  0  0  0  0  0  0  0  0  0  0  0
   20.6920   20.0149   22.4204 H   0  0  0  0  0  0  0  0  0  0  0  0
   18.9947   20.1142   22.8899 H   0  0  0  0  0  0  0  0  0  0  0  0
   19.6231   18.1127   22.3308 C   0  0  0  0  0  0  0  0  0  0  0  0
   20.2198   17.6392   21.5411 H   0  0  0  0  0  0  0  0  0  0  0  0
   18.5898   17.7728   22.1770 H   0  0  0  0  0  0  0  0  0  0  0  0
   20.1438   17.5835   23.6924 C   0  0  0  0  0  0  0  0  0  0  0  0
   20.0825   16.4868   23.6620 H   0  0  0  0  0  0  0  0  0  0  0  0
   21.2117   17.8116   23.7959 H   0  0  0  0  0  0  0  0  0  0  0  0
   19.3463   18.0702   24.9334 C   0  0  0  0  0  0  0  0  0  0  0  0
   19.4235   17.3120   25.7241 H   0  0  0  0  0  0  0  0  0  0  0  0
   18.2813   18.1175   24.6706 H   0  0  0  0  0  0  0  0  0  0  0  0
   19.7987   19.4308   25.5172 C   0  0  2  0  0  0  0  0  0  0  0  0
   19.8780   20.1571   24.7053 H   0  0  0  0  0  0  0  0  0  0  0  0
   21.1687   19.3330   26.2126 C   0  0  0  0  0  0  0  0  0  0  0  0
   21.1513   18.5917   27.0212 H   0  0  0  0  0  0  0  0  0  0  0  0
   21.9588   19.0512   25.5078 H   0  0  0  0  0  0  0  0  0  0  0  0
   21.4508   20.3004   26.6460 H   0  0  0  0  0  0  0  0  0  0  0  0
   18.7741   19.9772   26.4723 N   0  3  0  0  0  0  0  0  0  0  0  0
   18.6429   19.3556   27.2749 H   0  0  0  0  0  0  0  0  0  0  0  0
   17.8620   20.0940   26.0213 H   0  0  0  0  0  0  0  0  0  0  0  0
   19.0532   20.8923   26.8375 H   0  0  0  0  0  0  0  0  0  0  0  0
  1  2  1  0  0  0  0
  1  3  1  0  0  0  0
  1  4  1  0  0  0  0
  1  5  1  0  0  0  0
  5  6  1  0  0  0  0
  5  7  1  0  0  0  0
  5  8  1  0  0  0  0
  8  9  1  0  0  0  0
  8 10  1  0  0  0  0
  8 11  1  0  0  0  0
 11 12  1  0  0  0  0
 11 13  1  0  0  0  0
 11 14  1  0  0  0  0
 14 15  1  0  0  0  0
 14 16  1  0  0  0  0
 14 17  1  0  0  0  0
 17 18  1  0  0  0  0
 17 19  1  0  0  0  0
 17 20  1  0  0  0  0
 20 21  1  0  0  0  0
 20 22  1  0  0  0  0
 22 23  1  0  0  0  0
 22 24  1  0  0  0  0
 22 25  1  0  0  0  0
 20 26  1  0  0  0  0
 26 27  1  0  0  0  0
 26 28  1  0  0  0  0
 26 29  1  0  0  0  0
M  END
> <VM2 Rank>
141

> <Conf_Id>
343

> <Probability>
0.01

> <Sum Probability>
99.84

> <Delta G>
4.336

> <G>
38.038

> <E>
0.298

> <-TS>
37.740

> <U+W>
-23.846

> <U>
28.801

> <W>
-52.647

> <W(PB)>
-55.112

> <W(SA)>
2.464

> <Valence>
7.007

> <Coulomb>
20.617

> <VdW>
1.177

> <VdW6>
-10.509

> <VdW12>
11.686

> <Bond>
0.329

> <Angle>
2.380

> <Pdih>
4.298

> <Idih>
0.000

> <Tether>
0.000

$$$$
VeraChem MOL file


 29 28  0  0  0  0  0  0  0  0999 V2000     
   18.7011   18.7533   20.0422 C   0  0  0  0  0  0  0  0  0  0  0  0
   18.6979   18.1147   19.1495 H   0  0  0  0  0  0  0  0  0  0  0  0
   18.3717   18.1385   20.8891 H   0  0  0  0  0  0  0  0  0  0  0  0
   17.9634   19.5514   19.8876 H   0  0  0  0  0  0  0  0  0  0  0  0
   20.1105   19.3391   20.2836 C   0  0  0  0  0  0  0  0  0  0  0  0
   20.4477   19.8381   19.3644 H   0  0  0  0  0  0  0  0  0  0  0  0
   20.8253   18.5244   20.4593 H   0  0  0  0  0  0  0  0  0  0  0  0
   20.1639   20.3633   21.4463 C   0  0  0  0  0  0  0  0  0  0  0  0
   21.1932   20.7347   21.5442 H   0  0  0  0  0  0  0  0  0  0  0  0
   19.5553   21.2361   21.1724 H   0  0  0  0  0  0  0  0  0  0  0  0
   19.6824   19.8402   22.8249 C   0  0  0  0  0  0  0  0  0  0  0  0
   18.6267   19.5446   22.7645 H   0  0  0  0  0  0  0  0  0  0  0  0
   19.7329   20.6818   23.5255 H   0  0  0  0  0  0  0  0  0  0  0  0
   20.5314   18.6664   23.3745 C   0  0  0  0  0  0  0  0  0  0  0  0
   20.5729   17.8670   22.6241 H   0  0  0  0  0  0  0  0  0  0  0  0
   21.5671   19.0020   23.5218 H   0  0  0  0  0  0  0  0  0  0  0  0
   20.0000   18.0376   24.6897 C   0  0  0  0  0  0  0  0  0  0  0  0
   20.6293   17.1634   24.9040 H   0  0  0  0  0  0  0  0  0  0  0  0
   18.9858   17.6450   24.5388 H   0  0  0  0  0  0  0  0  0  0  0  0
   20.0248   18.9776   25.9184 C   0  0  2  0  0  0  0  0  0  0  0  0
   20.9306   19.5895   25.8674 H   0  0  0  0  0  0  0  0  0  0  0  0
   20.0696   18.1589   27.2192 C   0  0  0  0  0  0  0  0  0  0  0  0
   20.1020   18.8202   28.0939 H   0  0  0  0  0  0  0  0  0  0  0  0
   19.1879   17.5122   27.3114 H   0  0  0  0  0  0  0  0  0  0  0  0
   20.9642   17.5244   27.2512 H   0  0  0  0  0  0  0  0  0  0  0  0
   18.8524   19.9197   25.9552 N   0  3  0  0  0  0  0  0  0  0  0  0
   18.9140   20.5620   26.7504 H   0  0  0  0  0  0  0  0  0  0  0  0
   17.9693   19.4096   26.0419 H   0  0  0  0  0  0  0  0  0  0  0  0
   18.7990   20.4848   25.1047 H   0  0  0  0  0  0  0  0  0  0  0  0
  1  2  1  0  0  0  0
  1  3  1  0  0  0  0
  1  4  1  0  0  0  0
  1  5  1  0  0  0  0
  5  6  1  0  0  0  0
  5  7  1  0  0  0  0
  5  8  1  0  0  0  0
  8  9  1  0  0  0  0
  8 10  1  0  0  0  0
  8 11  1  0  0  0  0
 11 12  1  0  0  0  0
 11 13  1  0  0  0  0
 11 14  1  0  0  0  0
 14 15  1  0  0  0  0
 14 16  1  0  0  0  0
 14 17  1  0  0  0  0
 17 18  1  0  0  0  0
 17 19  1  0  0  0  0
 17 20  1  0  0  0  0
 20 21  1  0  0  0  0
 20 22  1  0  0  0  0
 22 23  1  0  0  0  0
 22 24  1  0  0  0  0
 22 25  1  0  0  0  0
 20 26  1  0  0  0  0
 26 27  1  0  0  0  0
 26 28  1  0  0  0  0
 26 29  1  0  0  0  0
M  END
> <VM2 Rank>
142

> <Conf_Id>
645

> <Probability>
0.01

> <Sum Probability>
99.85

> <Delta G>
4.368

> <G>
38.070

> <E>
0.333

> <-TS>
37.737

> <U+W>
-23.811

> <U>
28.429

> <W>
-52.240

> <W(PB)>
-54.684

> <W(SA)>
2.444

> <Valence>
6.078

> <Coulomb>
21.131

> <VdW>
1.220

> <VdW6>
-10.541

> <VdW12>
11.761

> <Bond>
0.334

> <Angle>
2.388

> <Pdih>
3.355

> <Idih>
0.000

> <Tether>
0.000

$$$$
VeraChem MOL file


 29 28  0  0  0  0  0  0  0  0999 V2000     
   19.5084   18.1717   19.9316 C   0  0  0  0  0  0  0  0  0  0  0  0
   20.4608   17.7443   19.5920 H   0  0  0  0  0  0  0  0  0  0  0  0
   19.1531   17.5725   20.7772 H   0  0  0  0  0  0  0  0  0  0  0  0
   18.7831   18.0588   19.1154 H   0  0  0  0  0  0  0  0  0  0  0  0
   19.6755   19.6633   20.3043 C   0  0  0  0  0  0  0  0  0  0  0  0
   18.7035   20.1028   20.5681 H   0  0  0  0  0  0  0  0  0  0  0  0
   20.0163   20.2000   19.4079 H   0  0  0  0  0  0  0  0  0  0  0  0
   20.7015   19.9002   21.4423 C   0  0  0  0  0  0  0  0  0  0  0  0
   21.4629   19.1081   21.4387 H   0  0  0  0  0  0  0  0  0  0  0  0
   21.2431   20.8313   21.2253 H   0  0  0  0  0  0  0  0  0  0  0  0
   20.0850   20.0394   22.8582 C   0  0  0  0  0  0  0  0  0  0  0  0
   19.4063   20.9031   22.8768 H   0  0  0  0  0  0  0  0  0  0  0  0
   20.8996   20.2746   23.5552 H   0  0  0  0  0  0  0  0  0  0  0  0
   19.3286   18.7807   23.3497 C   0  0  0  0  0  0  0  0  0  0  0  0
   18.4664   18.6009   22.6952 H   0  0  0  0  0  0  0  0  0  0  0  0
   19.9736   17.8969   23.2590 H   0  0  0  0  0  0  0  0  0  0  0  0
   18.8000   18.9105   24.8019 C   0  0  0  0  0  0  0  0  0  0  0  0
   18.2437   17.9995   25.0597 H   0  0  0  0  0  0  0  0  0  0  0  0
   18.0709   19.7309   24.8332 H   0  0  0  0  0  0  0  0  0  0  0  0
   19.8806   19.1665   25.8791 C   0  0  2  0  0  0  0  0  0  0  0  0
   20.4153   20.0855   25.6220 H   0  0  0  0  0  0  0  0  0  0  0  0
   20.9004   18.0169   25.9617 C   0  0  0  0  0  0  0  0  0  0  0  0
   21.6234   18.1984   26.7664 H   0  0  0  0  0  0  0  0  0  0  0  0
   20.4033   17.0591   26.1600 H   0  0  0  0  0  0  0  0  0  0  0  0
   21.4695   17.9229   25.0295 H   0  0  0  0  0  0  0  0  0  0  0  0
   19.2560   19.4069   27.2252 N   0  3  0  0  0  0  0  0  0  0  0  0
   18.6042   20.1965   27.2029 H   0  0  0  0  0  0  0  0  0  0  0  0
   19.9645   19.6166   27.9343 H   0  0  0  0  0  0  0  0  0  0  0  0
   18.7350   18.5869   27.5474 H   0  0  0  0  0  0  0  0  0  0  0  0
  1  2  1  0  0  0  0
  1  3  1  0  0  0  0
  1  4  1  0  0  0  0
  1  5  1  0  0  0  0
  5  6  1  0  0  0  0
  5  7  1  0  0  0  0
  5  8  1  0  0  0  0
  8  9  1  0  0  0  0
  8 10  1  0  0  0  0
  8 11  1  0  0  0  0
 11 12  1  0  0  0  0
 11 13  1  0  0  0  0
 11 14  1  0  0  0  0
 14 15  1  0  0  0  0
 14 16  1  0  0  0  0
 14 17  1  0  0  0  0
 17 18  1  0  0  0  0
 17 19  1  0  0  0  0
 17 20  1  0  0  0  0
 20 21  1  0  0  0  0
 20 22  1  0  0  0  0
 22 23  1  0  0  0  0
 22 24  1  0  0  0  0
 22 25  1  0  0  0  0
 20 26  1  0  0  0  0
 26 27  1  0  0  0  0
 26 28  1  0  0  0  0
 26 29  1  0  0  0  0
M  END
> <VM2 Rank>
143

> <Conf_Id>
144

> <Probability>
0.01

> <Sum Probability>
99.85

> <Delta G>
4.394

> <G>
38.096

> <E>
0.103

> <-TS>
37.994

> <U+W>
-24.042

> <U>
28.220

> <W>
-52.262

> <W(PB)>
-54.724

> <W(SA)>
2.462

> <Valence>
7.040

> <Coulomb>
19.984

> <VdW>
1.197

> <VdW6>
-10.566

> <VdW12>
11.763

> <Bond>
0.320

> <Angle>
2.280

> <Pdih>
4.439

> <Idih>
0.000

> <Tether>
0.000

$$$$
VeraChem MOL file


 29 28  0  0  0  0  0  0  0  0999 V2000     
   20.8389   20.4648   20.6409 C   0  0  0  0  0  0  0  0  0  0  0  0
   21.1488   20.8903   19.6777 H   0  0  0  0  0  0  0  0  0  0  0  0
   20.1565   21.1819   21.1136 H   0  0  0  0  0  0  0  0  0  0  0  0
   21.7336   20.3736   21.2702 H   0  0  0  0  0  0  0  0  0  0  0  0
   20.1639   19.0903   20.4319 C   0  0  0  0  0  0  0  0  0  0  0  0
   20.8447   18.4455   19.8589 H   0  0  0  0  0  0  0  0  0  0  0  0
   19.2623   19.2103   19.8151 H   0  0  0  0  0  0  0  0  0  0  0  0
   19.8017   18.3773   21.7566 C   0  0  0  0  0  0  0  0  0  0  0  0
   19.4470   17.3642   21.5222 H   0  0  0  0  0  0  0  0  0  0  0  0
   20.7112   18.2527   22.3576 H   0  0  0  0  0  0  0  0  0  0  0  0
   18.7095   19.1154   22.5718 C   0  0  0  0  0  0  0  0  0  0  0  0
   17.8342   19.2707   21.9262 H   0  0  0  0  0  0  0  0  0  0  0  0
   19.0487   20.1170   22.8612 H   0  0  0  0  0  0  0  0  0  0  0  0
   18.2530   18.3354   23.8296 C   0  0  0  0  0  0  0  0  0  0  0  0
   17.4050   18.8659   24.2843 H   0  0  0  0  0  0  0  0  0  0  0  0
   17.8593   17.3589   23.5157 H   0  0  0  0  0  0  0  0  0  0  0  0
   19.3386   18.1096   24.9158 C   0  0  0  0  0  0  0  0  0  0  0  0
   20.1755   17.5228   24.5165 H   0  0  0  0  0  0  0  0  0  0  0  0
   18.8865   17.4765   25.6907 H   0  0  0  0  0  0  0  0  0  0  0  0
   19.8500   19.4140   25.5759 C   0  0  2  0  0  0  0  0  0  0  0  0
   19.0967   20.1930   25.4235 H   0  0  0  0  0  0  0  0  0  0  0  0
   21.1822   19.8876   24.9666 C   0  0  0  0  0  0  0  0  0  0  0  0
   21.0892   20.0836   23.8938 H   0  0  0  0  0  0  0  0  0  0  0  0
   21.5133   20.8195   25.4411 H   0  0  0  0  0  0  0  0  0  0  0  0
   21.9706   19.1376   25.1073 H   0  0  0  0  0  0  0  0  0  0  0  0
   19.9982   19.2617   27.0650 N   0  3  0  0  0  0  0  0  0  0  0  0
   20.6894   18.5442   27.3004 H   0  0  0  0  0  0  0  0  0  0  0  0
   19.1133   18.9945   27.5061 H   0  0  0  0  0  0  0  0  0  0  0  0
   20.3043   20.1360   27.5015 H   0  0  0  0  0  0  0  0  0  0  0  0
  1  2  1  0  0  0  0
  1  3  1  0  0  0  0
  1  4  1  0  0  0  0
  1  5  1  0  0  0  0
  5  6  1  0  0  0  0
  5  7  1  0  0  0  0
  5  8  1  0  0  0  0
  8  9  1  0  0  0  0
  8 10  1  0  0  0  0
  8 11  1  0  0  0  0
 11 12  1  0  0  0  0
 11 13  1  0  0  0  0
 11 14  1  0  0  0  0
 14 15  1  0  0  0  0
 14 16  1  0  0  0  0
 14 17  1  0  0  0  0
 17 18  1  0  0  0  0
 17 19  1  0  0  0  0
 17 20  1  0  0  0  0
 20 21  1  0  0  0  0
 20 22  1  0  0  0  0
 22 23  1  0  0  0  0
 22 24  1  0  0  0  0
 22 25  1  0  0  0  0
 20 26  1  0  0  0  0
 26 27  1  0  0  0  0
 26 28  1  0  0  0  0
 26 29  1  0  0  0  0
M  END
> <VM2 Rank>
144

> <Conf_Id>
1677

> <Probability>
0.01

> <Sum Probability>
99.86

> <Delta G>
4.416

> <G>
38.118

> <E>
-0.119

> <-TS>
38.236

> <U+W>
-24.263

> <U>
28.334

> <W>
-52.597

> <W(PB)>
-54.973

> <W(SA)>
2.376

> <Valence>
7.422

> <Coulomb>
20.098

> <VdW>
0.814

> <VdW6>
-11.202

> <VdW12>
12.016

> <Bond>
0.311

> <Angle>
2.207

> <Pdih>
4.904

> <Idih>
0.000

> <Tether>
0.000

$$$$
VeraChem MOL file


 29 28  0  0  0  0  0  0  0  0999 V2000     
   19.8435   17.7145   20.6518 C   0  0  0  0  0  0  0  0  0  0  0  0
   19.8323   17.0605   19.7704 H   0  0  0  0  0  0  0  0  0  0  0  0
   20.8663   17.7112   21.0478 H   0  0  0  0  0  0  0  0  0  0  0  0
   19.1742   17.2771   21.4039 H   0  0  0  0  0  0  0  0  0  0  0  0
   19.3960   19.1420   20.2697 C   0  0  0  0  0  0  0  0  0  0  0  0
   18.4534   19.0760   19.7085 H   0  0  0  0  0  0  0  0  0  0  0  0
   20.1298   19.5823   19.5804 H   0  0  0  0  0  0  0  0  0  0  0  0
   19.1812   20.0896   21.4775 C   0  0  0  0  0  0  0  0  0  0  0  0
   18.8125   21.0459   21.0817 H   0  0  0  0  0  0  0  0  0  0  0  0
   18.3734   19.7053   22.1119 H   0  0  0  0  0  0  0  0  0  0  0  0
   20.4584   20.3789   22.3130 C   0  0  0  0  0  0  0  0  0  0  0  0
   20.4162   21.4156   22.6743 H   0  0  0  0  0  0  0  0  0  0  0  0
   21.3394   20.3333   21.6582 H   0  0  0  0  0  0  0  0  0  0  0  0
   20.6737   19.4474   23.5349 C   0  0  0  0  0  0  0  0  0  0  0  0
   20.6639   18.4002   23.2147 H   0  0  0  0  0  0  0  0  0  0  0  0
   21.6782   19.6356   23.9383 H   0  0  0  0  0  0  0  0  0  0  0  0
   19.6360   19.6681   24.6663 C   0  0  0  0  0  0  0  0  0  0  0  0
   18.6342   19.3774   24.3272 H   0  0  0  0  0  0  0  0  0  0  0  0
   19.5891   20.7412   24.8939 H   0  0  0  0  0  0  0  0  0  0  0  0
   19.9716   18.9066   25.9688 C   0  0  2  0  0  0  0  0  0  0  0  0
   20.9875   19.1772   26.2728 H   0  0  0  0  0  0  0  0  0  0  0  0
   19.9094   17.3803   25.7794 C   0  0  0  0  0  0  0  0  0  0  0  0
   18.9241   17.0657   25.4134 H   0  0  0  0  0  0  0  0  0  0  0  0
   20.6671   17.0355   25.0665 H   0  0  0  0  0  0  0  0  0  0  0  0
   20.0998   16.8652   26.7290 H   0  0  0  0  0  0  0  0  0  0  0  0
   19.0663   19.3286   27.0925 N   0  3  0  0  0  0  0  0  0  0  0  0
   19.3107   18.8555   27.9672 H   0  0  0  0  0  0  0  0  0  0  0  0
   18.0881   19.1067   26.8882 H   0  0  0  0  0  0  0  0  0  0  0  0
   19.1240   20.3364   27.2650 H   0  0  0  0  0  0  0  0  0  0  0  0
  1  2  1  0  0  0  0
  1  3  1  0  0  0  0
  1  4  1  0  0  0  0
  1  5  1  0  0  0  0
  5  6  1  0  0  0  0
  5  7  1  0  0  0  0
  5  8  1  0  0  0  0
  8  9  1  0  0  0  0
  8 10  1  0  0  0  0
  8 11  1  0  0  0  0
 11 12  1  0  0  0  0
 11 13  1  0  0  0  0
 11 14  1  0  0  0  0
 14 15  1  0  0  0  0
 14 16  1  0  0  0  0
 14 17  1  0  0  0  0
 17 18  1  0  0  0  0
 17 19  1  0  0  0  0
 17 20  1  0  0  0  0
 20 21  1  0  0  0  0
 20 22  1  0  0  0  0
 22 23  1  0  0  0  0
 22 24  1  0  0  0  0
 22 25  1  0  0  0  0
 20 26  1  0  0  0  0
 26 27  1  0  0  0  0
 26 28  1  0  0  0  0
 26 29  1  0  0  0  0
M  END
> <VM2 Rank>
145

> <Conf_Id>
1373

> <Probability>
0.01

> <Sum Probability>
99.87

> <Delta G>
4.433

> <G>
38.135

> <E>
0.418

> <-TS>
37.717

> <U+W>
-23.726

> <U>
28.594

> <W>
-52.320

> <W(PB)>
-54.753

> <W(SA)>
2.433

> <Valence>
7.358

> <Coulomb>
19.931

> <VdW>
1.305

> <VdW6>
-10.397

> <VdW12>
11.702

> <Bond>
0.347

> <Angle>
2.257

> <Pdih>
4.753

> <Idih>
0.000

> <Tether>
0.000

$$$$
VeraChem MOL file


 29 28  0  0  0  0  0  0  0  0999 V2000     
   18.0536   19.5324   21.4934 C   0  0  0  0  0  0  0  0  0  0  0  0
   17.6031   18.5331   21.5508 H   0  0  0  0  0  0  0  0  0  0  0  0
   18.2070   19.8960   22.5141 H   0  0  0  0  0  0  0  0  0  0  0  0
   17.3253   20.1986   21.0133 H   0  0  0  0  0  0  0  0  0  0  0  0
   19.3699   19.5008   20.6827 C   0  0  0  0  0  0  0  0  0  0  0  0
   19.8001   20.5096   20.6151 H   0  0  0  0  0  0  0  0  0  0  0  0
   19.1217   19.2094   19.6524 H   0  0  0  0  0  0  0  0  0  0  0  0
   20.4215   18.5019   21.2318 C   0  0  0  0  0  0  0  0  0  0  0  0
   19.9270   17.6287   21.6771 H   0  0  0  0  0  0  0  0  0  0  0  0
   20.9857   18.1074   20.3754 H   0  0  0  0  0  0  0  0  0  0  0  0
   21.4558   19.1130   22.2156 C   0  0  0  0  0  0  0  0  0  0  0  0
   21.9914   19.9259   21.7062 H   0  0  0  0  0  0  0  0  0  0  0  0
   22.2162   18.3521   22.4391 H   0  0  0  0  0  0  0  0  0  0  0  0
   20.8896   19.6526   23.5521 C   0  0  0  0  0  0  0  0  0  0  0  0
   21.7210   20.0787   24.1304 H   0  0  0  0  0  0  0  0  0  0  0  0
   20.2071   20.4866   23.3509 H   0  0  0  0  0  0  0  0  0  0  0  0
   20.1949   18.5631   24.4087 C   0  0  0  0  0  0  0  0  0  0  0  0
   20.8882   17.7216   24.5391 H   0  0  0  0  0  0  0  0  0  0  0  0
   19.3177   18.1660   23.8834 H   0  0  0  0  0  0  0  0  0  0  0  0
   19.7680   19.0767   25.8003 C   0  0  2  0  0  0  0  0  0  0  0  0
   20.6518   19.4827   26.3019 H   0  0  0  0  0  0  0  0  0  0  0  0
   19.2180   17.9209   26.6510 C   0  0  0  0  0  0  0  0  0  0  0  0
   18.3256   17.4786   26.1906 H   0  0  0  0  0  0  0  0  0  0  0  0
   19.9699   17.1304   26.7673 H   0  0  0  0  0  0  0  0  0  0  0  0
   18.9468   18.2721   27.6543 H   0  0  0  0  0  0  0  0  0  0  0  0
   18.7647   20.1947   25.7184 N   0  3  0  0  0  0  0  0  0  0  0  0
   19.1329   20.9880   25.1867 H   0  0  0  0  0  0  0  0  0  0  0  0
   18.5143   20.5396   26.6496 H   0  0  0  0  0  0  0  0  0  0  0  0
   17.9014   19.8880   25.2626 H   0  0  0  0  0  0  0  0  0  0  0  0
  1  2  1  0  0  0  0
  1  3  1  0  0  0  0
  1  4  1  0  0  0  0
  1  5  1  0  0  0  0
  5  6  1  0  0  0  0
  5  7  1  0  0  0  0
  5  8  1  0  0  0  0
  8  9  1  0  0  0  0
  8 10  1  0  0  0  0
  8 11  1  0  0  0  0
 11 12  1  0  0  0  0
 11 13  1  0  0  0  0
 11 14  1  0  0  0  0
 14 15  1  0  0  0  0
 14 16  1  0  0  0  0
 14 17  1  0  0  0  0
 17 18  1  0  0  0  0
 17 19  1  0  0  0  0
 17 20  1  0  0  0  0
 20 21  1  0  0  0  0
 20 22  1  0  0  0  0
 22 23  1  0  0  0  0
 22 24  1  0  0  0  0
 22 25  1  0  0  0  0
 20 26  1  0  0  0  0
 26 27  1  0  0  0  0
 26 28  1  0  0  0  0
 26 29  1  0  0  0  0
M  END
> <VM2 Rank>
146

> <Conf_Id>
332

> <Probability>
0.01

> <Sum Probability>
99.87

> <Delta G>
4.509

> <G>
38.211

> <E>
-0.041

> <-TS>
38.252

> <U+W>
-24.185

> <U>
28.510

> <W>
-52.695

> <W(PB)>
-55.107

> <W(SA)>
2.412

> <Valence>
6.729

> <Coulomb>
21.118

> <VdW>
0.663

> <VdW6>
-11.042

> <VdW12>
11.705

> <Bond>
0.323

> <Angle>
2.297

> <Pdih>
4.110

> <Idih>
0.000

> <Tether>
0.000

$$$$
VeraChem MOL file


 29 28  0  0  0  0  0  0  0  0999 V2000     
   19.6758   18.0697   19.9622 C   0  0  0  0  0  0  0  0  0  0  0  0
   20.6866   18.3006   19.6017 H   0  0  0  0  0  0  0  0  0  0  0  0
   19.7574   17.3214   20.7603 H   0  0  0  0  0  0  0  0  0  0  0  0
   19.1209   17.6097   19.1343 H   0  0  0  0  0  0  0  0  0  0  0  0
   18.9558   19.3463   20.4524 C   0  0  0  0  0  0  0  0  0  0  0  0
   17.9599   19.0842   20.8361 H   0  0  0  0  0  0  0  0  0  0  0  0
   18.7891   20.0110   19.5933 H   0  0  0  0  0  0  0  0  0  0  0  0
   19.7463   20.1214   21.5339 C   0  0  0  0  0  0  0  0  0  0  0  0
   20.7298   20.4057   21.1349 H   0  0  0  0  0  0  0  0  0  0  0  0
   19.2164   21.0598   21.7482 H   0  0  0  0  0  0  0  0  0  0  0  0
   19.9258   19.3296   22.8511 C   0  0  0  0  0  0  0  0  0  0  0  0
   20.5279   18.4303   22.6663 H   0  0  0  0  0  0  0  0  0  0  0  0
   18.9398   18.9993   23.1985 H   0  0  0  0  0  0  0  0  0  0  0  0
   20.6095   20.1848   23.9430 C   0  0  0  0  0  0  0  0  0  0  0  0
   21.5127   20.6407   23.5142 H   0  0  0  0  0  0  0  0  0  0  0  0
   19.9568   21.0244   24.2173 H   0  0  0  0  0  0  0  0  0  0  0  0
   21.0367   19.4029   25.2177 C   0  0  0  0  0  0  0  0  0  0  0  0
   21.5516   20.1131   25.8779 H   0  0  0  0  0  0  0  0  0  0  0  0
   21.7954   18.6546   24.9533 H   0  0  0  0  0  0  0  0  0  0  0  0
   19.9158   18.7317   26.0532 C   0  0  2  0  0  0  0  0  0  0  0  0
   20.2989   18.6412   27.0744 H   0  0  0  0  0  0  0  0  0  0  0  0
   19.5991   17.3002   25.5819 C   0  0  0  0  0  0  0  0  0  0  0  0
   18.8972   16.8182   26.2735 H   0  0  0  0  0  0  0  0  0  0  0  0
   19.1502   17.2761   24.5847 H   0  0  0  0  0  0  0  0  0  0  0  0
   20.5093   16.6884   25.5597 H   0  0  0  0  0  0  0  0  0  0  0  0
   18.6712   19.5695   26.1586 N   0  3  0  0  0  0  0  0  0  0  0  0
   18.2484   19.7167   25.2387 H   0  0  0  0  0  0  0  0  0  0  0  0
   18.8747   20.4911   26.5559 H   0  0  0  0  0  0  0  0  0  0  0  0
   17.9691   19.1250   26.7570 H   0  0  0  0  0  0  0  0  0  0  0  0
  1  2  1  0  0  0  0
  1  3  1  0  0  0  0
  1  4  1  0  0  0  0
  1  5  1  0  0  0  0
  5  6  1  0  0  0  0
  5  7  1  0  0  0  0
  5  8  1  0  0  0  0
  8  9  1  0  0  0  0
  8 10  1  0  0  0  0
  8 11  1  0  0  0  0
 11 12  1  0  0  0  0
 11 13  1  0  0  0  0
 11 14  1  0  0  0  0
 14 15  1  0  0  0  0
 14 16  1  0  0  0  0
 14 17  1  0  0  0  0
 17 18  1  0  0  0  0
 17 19  1  0  0  0  0
 17 20  1  0  0  0  0
 20 21  1  0  0  0  0
 20 22  1  0  0  0  0
 22 23  1  0  0  0  0
 22 24  1  0  0  0  0
 22 25  1  0  0  0  0
 20 26  1  0  0  0  0
 26 27  1  0  0  0  0
 26 28  1  0  0  0  0
 26 29  1  0  0  0  0
M  END
> <VM2 Rank>
147

> <Conf_Id>
1007

> <Probability>
0.01

> <Sum Probability>
99.88

> <Delta G>
4.520

> <G>
38.222

> <E>
0.214

> <-TS>
38.008

> <U+W>
-23.931

> <U>
28.480

> <W>
-52.410

> <W(PB)>
-54.831

> <W(SA)>
2.421

> <Valence>
6.763

> <Coulomb>
20.530

> <VdW>
1.187

> <VdW6>
-10.594

> <VdW12>
11.781

> <Bond>
0.333

> <Angle>
2.588

> <Pdih>
3.843

> <Idih>
0.000

> <Tether>
0.000

$$$$
VeraChem MOL file


 29 28  0  0  0  0  0  0  0  0999 V2000     
   18.9664   17.9246   20.7313 C   0  0  0  0  0  0  0  0  0  0  0  0
   18.1072   18.3325   21.2776 H   0  0  0  0  0  0  0  0  0  0  0  0
   18.5734   17.3765   19.8654 H   0  0  0  0  0  0  0  0  0  0  0  0
   19.4841   17.2047   21.3785 H   0  0  0  0  0  0  0  0  0  0  0  0
   19.9214   19.0472   20.2709 C   0  0  0  0  0  0  0  0  0  0  0  0
   19.3583   19.7892   19.6877 H   0  0  0  0  0  0  0  0  0  0  0  0
   20.6623   18.6179   19.5820 H   0  0  0  0  0  0  0  0  0  0  0  0
   20.6768   19.7552   21.4244 C   0  0  0  0  0  0  0  0  0  0  0  0
   21.3206   19.0344   21.9428 H   0  0  0  0  0  0  0  0  0  0  0  0
   21.3604   20.4854   20.9698 H   0  0  0  0  0  0  0  0  0  0  0  0
   19.7648   20.5129   22.4280 C   0  0  0  0  0  0  0  0  0  0  0  0
   18.8629   20.8618   21.9069 H   0  0  0  0  0  0  0  0  0  0  0  0
   20.2821   21.4240   22.7591 H   0  0  0  0  0  0  0  0  0  0  0  0
   19.3541   19.7020   23.6850 C   0  0  0  0  0  0  0  0  0  0  0  0
   18.5572   20.2551   24.1989 H   0  0  0  0  0  0  0  0  0  0  0  0
   18.9180   18.7429   23.3857 H   0  0  0  0  0  0  0  0  0  0  0  0
   20.5307   19.4681   24.6723 C   0  0  0  0  0  0  0  0  0  0  0  0
   20.9893   20.4338   24.9219 H   0  0  0  0  0  0  0  0  0  0  0  0
   21.3168   18.8787   24.1853 H   0  0  0  0  0  0  0  0  0  0  0  0
   20.1405   18.7582   25.9902 C   0  0  2  0  0  0  0  0  0  0  0  0
   21.0475   18.6796   26.5975 H   0  0  0  0  0  0  0  0  0  0  0  0
   19.6197   17.3311   25.7456 C   0  0  0  0  0  0  0  0  0  0  0  0
   19.4827   16.8046   26.6980 H   0  0  0  0  0  0  0  0  0  0  0  0
   18.6554   17.3349   25.2237 H   0  0  0  0  0  0  0  0  0  0  0  0
   20.3334   16.7531   25.1456 H   0  0  0  0  0  0  0  0  0  0  0  0
   19.1616   19.5567   26.8063 N   0  3  0  0  0  0  0  0  0  0  0  0
   19.5200   20.4940   27.0105 H   0  0  0  0  0  0  0  0  0  0  0  0
   18.9637   19.1025   27.7025 H   0  0  0  0  0  0  0  0  0  0  0  0
   18.2714   19.6671   26.3146 H   0  0  0  0  0  0  0  0  0  0  0  0
  1  2  1  0  0  0  0
  1  3  1  0  0  0  0
  1  4  1  0  0  0  0
  1  5  1  0  0  0  0
  5  6  1  0  0  0  0
  5  7  1  0  0  0  0
  5  8  1  0  0  0  0
  8  9  1  0  0  0  0
  8 10  1  0  0  0  0
  8 11  1  0  0  0  0
 11 12  1  0  0  0  0
 11 13  1  0  0  0  0
 11 14  1  0  0  0  0
 14 15  1  0  0  0  0
 14 16  1  0  0  0  0
 14 17  1  0  0  0  0
 17 18  1  0  0  0  0
 17 19  1  0  0  0  0
 17 20  1  0  0  0  0
 20 21  1  0  0  0  0
 20 22  1  0  0  0  0
 22 23  1  0  0  0  0
 22 24  1  0  0  0  0
 22 25  1  0  0  0  0
 20 26  1  0  0  0  0
 26 27  1  0  0  0  0
 26 28  1  0  0  0  0
 26 29  1  0  0  0  0
M  END
> <VM2 Rank>
148

> <Conf_Id>
297

> <Probability>
0.01

> <Sum Probability>
99.88

> <Delta G>
4.528

> <G>
38.230

> <E>
0.342

> <-TS>
37.887

> <U+W>
-23.802

> <U>
28.700

> <W>
-52.502

> <W(PB)>
-54.903

> <W(SA)>
2.401

> <Valence>
7.368

> <Coulomb>
20.019

> <VdW>
1.314

> <VdW6>
-10.862

> <VdW12>
12.175

> <Bond>
0.376

> <Angle>
2.260

> <Pdih>
4.731

> <Idih>
0.000

> <Tether>
0.000

$$$$
VeraChem MOL file


 29 28  0  0  0  0  0  0  0  0999 V2000     
   20.3147   20.9735   20.8774 C   0  0  0  0  0  0  0  0  0  0  0  0
   19.8675   21.6684   21.6002 H   0  0  0  0  0  0  0  0  0  0  0  0
   21.3120   21.3521   20.6185 H   0  0  0  0  0  0  0  0  0  0  0  0
   19.7023   20.9867   19.9663 H   0  0  0  0  0  0  0  0  0  0  0  0
   20.4079   19.5489   21.4627 C   0  0  0  0  0  0  0  0  0  0  0  0
   21.0591   19.5688   22.3452 H   0  0  0  0  0  0  0  0  0  0  0  0
   20.8883   18.8843   20.7313 H   0  0  0  0  0  0  0  0  0  0  0  0
   19.0122   18.9927   21.8311 C   0  0  0  0  0  0  0  0  0  0  0  0
   18.5097   19.6590   22.5430 H   0  0  0  0  0  0  0  0  0  0  0  0
   18.3838   18.9974   20.9298 H   0  0  0  0  0  0  0  0  0  0  0  0
   19.0477   17.5477   22.3887 C   0  0  0  0  0  0  0  0  0  0  0  0
   19.4535   16.8831   21.6136 H   0  0  0  0  0  0  0  0  0  0  0  0
   18.0150   17.2117   22.5553 H   0  0  0  0  0  0  0  0  0  0  0  0
   19.8594   17.3344   23.6954 C   0  0  0  0  0  0  0  0  0  0  0  0
   19.8097   16.2632   23.9348 H   0  0  0  0  0  0  0  0  0  0  0  0
   20.9229   17.5383   23.5247 H   0  0  0  0  0  0  0  0  0  0  0  0
   19.3260   18.1163   24.9274 C   0  0  0  0  0  0  0  0  0  0  0  0
   19.5967   17.5686   25.8399 H   0  0  0  0  0  0  0  0  0  0  0  0
   18.2285   18.1148   24.8951 H   0  0  0  0  0  0  0  0  0  0  0  0
   19.8381   19.5705   25.0610 C   0  0  2  0  0  0  0  0  0  0  0  0
   19.7271   20.0749   24.0986 H   0  0  0  0  0  0  0  0  0  0  0  0
   21.3220   19.6217   25.4678 C   0  0  0  0  0  0  0  0  0  0  0  0
   21.9629   19.1437   24.7188 H   0  0  0  0  0  0  0  0  0  0  0  0
   21.6582   20.6610   25.5682 H   0  0  0  0  0  0  0  0  0  0  0  0
   21.4871   19.1180   26.4284 H   0  0  0  0  0  0  0  0  0  0  0  0
   19.0081   20.3503   26.0425 N   0  3  0  0  0  0  0  0  0  0  0  0
   18.0208   20.3690   25.7709 H   0  0  0  0  0  0  0  0  0  0  0  0
   19.3243   21.3218   26.1113 H   0  0  0  0  0  0  0  0  0  0  0  0
   19.0611   19.9450   26.9810 H   0  0  0  0  0  0  0  0  0  0  0  0
  1  2  1  0  0  0  0
  1  3  1  0  0  0  0
  1  4  1  0  0  0  0
  1  5  1  0  0  0  0
  5  6  1  0  0  0  0
  5  7  1  0  0  0  0
  5  8  1  0  0  0  0
  8  9  1  0  0  0  0
  8 10  1  0  0  0  0
  8 11  1  0  0  0  0
 11 12  1  0  0  0  0
 11 13  1  0  0  0  0
 11 14  1  0  0  0  0
 14 15  1  0  0  0  0
 14 16  1  0  0  0  0
 14 17  1  0  0  0  0
 17 18  1  0  0  0  0
 17 19  1  0  0  0  0
 17 20  1  0  0  0  0
 20 21  1  0  0  0  0
 20 22  1  0  0  0  0
 22 23  1  0  0  0  0
 22 24  1  0  0  0  0
 22 25  1  0  0  0  0
 20 26  1  0  0  0  0
 26 27  1  0  0  0  0
 26 28  1  0  0  0  0
 26 29  1  0  0  0  0
M  END
> <VM2 Rank>
149

> <Conf_Id>
1348

> <Probability>
0.01

> <Sum Probability>
99.89

> <Delta G>
4.529

> <G>
38.231

> <E>
-0.345

> <-TS>
38.575

> <U+W>
-24.489

> <U>
28.285

> <W>
-52.774

> <W(PB)>
-55.159

> <W(SA)>
2.385

> <Valence>
6.918

> <Coulomb>
20.924

> <VdW>
0.442

> <VdW6>
-11.731

> <VdW12>
12.173

> <Bond>
0.331

> <Angle>
2.608

> <Pdih>
3.979

> <Idih>
0.000

> <Tether>
0.000

$$$$
VeraChem MOL file


 29 28  0  0  0  0  0  0  0  0999 V2000     
   20.9255   20.0601   20.6776 C   0  0  0  0  0  0  0  0  0  0  0  0
   22.0085   20.0867   20.5011 H   0  0  0  0  0  0  0  0  0  0  0  0
   20.4285   20.4243   19.7692 H   0  0  0  0  0  0  0  0  0  0  0  0
   20.7043   20.7616   21.4908 H   0  0  0  0  0  0  0  0  0  0  0  0
   20.4674   18.6239   21.0194 C   0  0  0  0  0  0  0  0  0  0  0  0
   20.9881   18.2594   21.9140 H   0  0  0  0  0  0  0  0  0  0  0  0
   20.7766   17.9557   20.2036 H   0  0  0  0  0  0  0  0  0  0  0  0
   18.9353   18.4972   21.2021 C   0  0  0  0  0  0  0  0  0  0  0  0
   18.4456   18.7946   20.2646 H   0  0  0  0  0  0  0  0  0  0  0  0
   18.6835   17.4374   21.3448 H   0  0  0  0  0  0  0  0  0  0  0  0
   18.3174   19.3200   22.3648 C   0  0  0  0  0  0  0  0  0  0  0  0
   17.2284   19.1821   22.3148 H   0  0  0  0  0  0  0  0  0  0  0  0
   18.4792   20.3948   22.2099 H   0  0  0  0  0  0  0  0  0  0  0  0
   18.7839   18.8942   23.7820 C   0  0  0  0  0  0  0  0  0  0  0  0
   17.9299   18.9985   24.4641 H   0  0  0  0  0  0  0  0  0  0  0  0
   19.0424   17.8275   23.7782 H   0  0  0  0  0  0  0  0  0  0  0  0
   19.9606   19.7481   24.3301 C   0  0  0  0  0  0  0  0  0  0  0  0
   19.6693   20.8065   24.3208 H   0  0  0  0  0  0  0  0  0  0  0  0
   20.8266   19.6715   23.6644 H   0  0  0  0  0  0  0  0  0  0  0  0
   20.4171   19.3820   25.7620 C   0  0  2  0  0  0  0  0  0  0  0  0
   21.2125   20.0813   26.0378 H   0  0  0  0  0  0  0  0  0  0  0  0
   21.0023   17.9609   25.8353 C   0  0  0  0  0  0  0  0  0  0  0  0
   20.2350   17.1965   25.6651 H   0  0  0  0  0  0  0  0  0  0  0  0
   21.7941   17.8262   25.0880 H   0  0  0  0  0  0  0  0  0  0  0  0
   21.4429   17.7785   26.8231 H   0  0  0  0  0  0  0  0  0  0  0  0
   19.3266   19.5695   26.7806 N   0  3  0  0  0  0  0  0  0  0  0  0
   18.9617   20.5263   26.7680 H   0  0  0  0  0  0  0  0  0  0  0  0
   19.6645   19.3829   27.7290 H   0  0  0  0  0  0  0  0  0  0  0  0
   18.5418   18.9375   26.6041 H   0  0  0  0  0  0  0  0  0  0  0  0
  1  2  1  0  0  0  0
  1  3  1  0  0  0  0
  1  4  1  0  0  0  0
  1  5  1  0  0  0  0
  5  6  1  0  0  0  0
  5  7  1  0  0  0  0
  5  8  1  0  0  0  0
  8  9  1  0  0  0  0
  8 10  1  0  0  0  0
  8 11  1  0  0  0  0
 11 12  1  0  0  0  0
 11 13  1  0  0  0  0
 11 14  1  0  0  0  0
 14 15  1  0  0  0  0
 14 16  1  0  0  0  0
 14 17  1  0  0  0  0
 17 18  1  0  0  0  0
 17 19  1  0  0  0  0
 17 20  1  0  0  0  0
 20 21  1  0  0  0  0
 20 22  1  0  0  0  0
 22 23  1  0  0  0  0
 22 24  1  0  0  0  0
 22 25  1  0  0  0  0
 20 26  1  0  0  0  0
 26 27  1  0  0  0  0
 26 28  1  0  0  0  0
 26 29  1  0  0  0  0
M  END
> <VM2 Rank>
150

> <Conf_Id>
639

> <Probability>
0.01

> <Sum Probability>
99.89

> <Delta G>
4.549

> <G>
38.251

> <E>
-0.084

> <-TS>
38.335

> <U+W>
-24.228

> <U>
28.401

> <W>
-52.629

> <W(PB)>
-55.018

> <W(SA)>
2.388

> <Valence>
7.299

> <Coulomb>
20.102

> <VdW>
1.000

> <VdW6>
-11.395

> <VdW12>
12.395

> <Bond>
0.366

> <Angle>
2.503

> <Pdih>
4.430

> <Idih>
0.000

> <Tether>
0.000

$$$$
VeraChem MOL file


 29 28  0  0  0  0  0  0  0  0999 V2000     
   21.1418   18.2158   21.2467 C   0  0  0  0  0  0  0  0  0  0  0  0
   21.4644   17.3372   20.6733 H   0  0  0  0  0  0  0  0  0  0  0  0
   21.9660   18.9407   21.2367 H   0  0  0  0  0  0  0  0  0  0  0  0
   20.9852   17.8927   22.2806 H   0  0  0  0  0  0  0  0  0  0  0  0
   19.8622   18.8230   20.6265 C   0  0  0  0  0  0  0  0  0  0  0  0
   19.0509   18.0819   20.6251 H   0  0  0  0  0  0  0  0  0  0  0  0
   20.0731   19.0413   19.5703 H   0  0  0  0  0  0  0  0  0  0  0  0
   19.3939   20.1334   21.3111 C   0  0  0  0  0  0  0  0  0  0  0  0
   20.2561   20.7061   21.6768 H   0  0  0  0  0  0  0  0  0  0  0  0
   18.9348   20.7666   20.5393 H   0  0  0  0  0  0  0  0  0  0  0  0
   18.3372   19.9464   22.4334 C   0  0  0  0  0  0  0  0  0  0  0  0
   17.4545   19.4495   22.0079 H   0  0  0  0  0  0  0  0  0  0  0  0
   17.9915   20.9383   22.7556 H   0  0  0  0  0  0  0  0  0  0  0  0
   18.7978   19.1547   23.6823 C   0  0  0  0  0  0  0  0  0  0  0  0
   17.9395   19.0693   24.3613 H   0  0  0  0  0  0  0  0  0  0  0  0
   19.0519   18.1290   23.3913 H   0  0  0  0  0  0  0  0  0  0  0  0
   19.9799   19.8274   24.4328 C   0  0  0  0  0  0  0  0  0  0  0  0
   19.7139   20.8678   24.6610 H   0  0  0  0  0  0  0  0  0  0  0  0
   20.8574   19.8782   23.7770 H   0  0  0  0  0  0  0  0  0  0  0  0
   20.3959   19.1293   25.7490 C   0  0  2  0  0  0  0  0  0  0  0  0
   21.2049   19.7206   26.1889 H   0  0  0  0  0  0  0  0  0  0  0  0
   20.9376   17.7102   25.5043 C   0  0  0  0  0  0  0  0  0  0  0  0
   20.1562   17.0352   25.1357 H   0  0  0  0  0  0  0  0  0  0  0  0
   21.7540   17.7257   24.7718 H   0  0  0  0  0  0  0  0  0  0  0  0
   21.3351   17.2861   26.4345 H   0  0  0  0  0  0  0  0  0  0  0  0
   19.2898   19.1157   26.7678 N   0  3  0  0  0  0  0  0  0  0  0  0
   18.9525   20.0617   26.9679 H   0  0  0  0  0  0  0  0  0  0  0  0
   19.6021   18.7079   27.6536 H   0  0  0  0  0  0  0  0  0  0  0  0
   18.4913   18.5660   26.4411 H   0  0  0  0  0  0  0  0  0  0  0  0
  1  2  1  0  0  0  0
  1  3  1  0  0  0  0
  1  4  1  0  0  0  0
  1  5  1  0  0  0  0
  5  6  1  0  0  0  0
  5  7  1  0  0  0  0
  5  8  1  0  0  0  0
  8  9  1  0  0  0  0
  8 10  1  0  0  0  0
  8 11  1  0  0  0  0
 11 12  1  0  0  0  0
 11 13  1  0  0  0  0
 11 14  1  0  0  0  0
 14 15  1  0  0  0  0
 14 16  1  0  0  0  0
 14 17  1  0  0  0  0
 17 18  1  0  0  0  0
 17 19  1  0  0  0  0
 17 20  1  0  0  0  0
 20 21  1  0  0  0  0
 20 22  1  0  0  0  0
 22 23  1  0  0  0  0
 22 24  1  0  0  0  0
 22 25  1  0  0  0  0
 20 26  1  0  0  0  0
 26 27  1  0  0  0  0
 26 28  1  0  0  0  0
 26 29  1  0  0  0  0
M  END
> <VM2 Rank>
151

> <Conf_Id>
636

> <Probability>
0.00

> <Sum Probability>
99.90

> <Delta G>
4.558

> <G>
38.260

> <E>
-0.240

> <-TS>
38.500

> <U+W>
-24.384

> <U>
28.256

> <W>
-52.640

> <W(PB)>
-54.996

> <W(SA)>
2.355

> <Valence>
7.264

> <Coulomb>
20.223

> <VdW>
0.769

> <VdW6>
-11.791

> <VdW12>
12.559

> <Bond>
0.367

> <Angle>
2.657

> <Pdih>
4.240

> <Idih>
0.000

> <Tether>
0.000

$$$$
VeraChem MOL file


 29 28  0  0  0  0  0  0  0  0999 V2000     
   19.9898   18.1520   19.6969 C   0  0  0  0  0  0  0  0  0  0  0  0
   19.3450   17.8158   18.8746 H   0  0  0  0  0  0  0  0  0  0  0  0
   20.7698   18.7969   19.2717 H   0  0  0  0  0  0  0  0  0  0  0  0
   20.4753   17.2667   20.1281 H   0  0  0  0  0  0  0  0  0  0  0  0
   19.1660   18.9066   20.7616 C   0  0  0  0  0  0  0  0  0  0  0  0
   18.3744   18.2473   21.1445 H   0  0  0  0  0  0  0  0  0  0  0  0
   18.6649   19.7655   20.2937 H   0  0  0  0  0  0  0  0  0  0  0  0
   20.0509   19.3917   21.9307 C   0  0  0  0  0  0  0  0  0  0  0  0
   20.5563   18.5275   22.3795 H   0  0  0  0  0  0  0  0  0  0  0  0
   20.8383   20.0533   21.5443 H   0  0  0  0  0  0  0  0  0  0  0  0
   19.2250   20.1443   23.0014 C   0  0  0  0  0  0  0  0  0  0  0  0
   18.4275   19.5011   23.3909 H   0  0  0  0  0  0  0  0  0  0  0  0
   18.7127   20.9886   22.5195 H   0  0  0  0  0  0  0  0  0  0  0  0
   20.0820   20.7017   24.1652 C   0  0  0  0  0  0  0  0  0  0  0  0
   20.7899   21.4313   23.7484 H   0  0  0  0  0  0  0  0  0  0  0  0
   19.4353   21.2821   24.8365 H   0  0  0  0  0  0  0  0  0  0  0  0
   20.8940   19.6643   24.9962 C   0  0  0  0  0  0  0  0  0  0  0  0
   21.4832   20.2322   25.7280 H   0  0  0  0  0  0  0  0  0  0  0  0
   21.6390   19.1686   24.3612 H   0  0  0  0  0  0  0  0  0  0  0  0
   20.0927   18.6015   25.7929 C   0  0  2  0  0  0  0  0  0  0  0  0
   20.7376   18.2791   26.6163 H   0  0  0  0  0  0  0  0  0  0  0  0
   19.7823   17.3389   24.9686 C   0  0  0  0  0  0  0  0  0  0  0  0
   19.3495   16.5625   25.6112 H   0  0  0  0  0  0  0  0  0  0  0  0
   19.0711   17.5317   24.1601 H   0  0  0  0  0  0  0  0  0  0  0  0
   20.6982   16.9266   24.5279 H   0  0  0  0  0  0  0  0  0  0  0  0
   18.8534   19.1551   26.4405 N   0  3  0  0  0  0  0  0  0  0  0  0
   19.0744   19.9421   27.0572 H   0  0  0  0  0  0  0  0  0  0  0  0
   18.3764   18.4463   27.0049 H   0  0  0  0  0  0  0  0  0  0  0  0
   18.1905   19.4906   25.7373 H   0  0  0  0  0  0  0  0  0  0  0  0
  1  2  1  0  0  0  0
  1  3  1  0  0  0  0
  1  4  1  0  0  0  0
  1  5  1  0  0  0  0
  5  6  1  0  0  0  0
  5  7  1  0  0  0  0
  5  8  1  0  0  0  0
  8  9  1  0  0  0  0
  8 10  1  0  0  0  0
  8 11  1  0  0  0  0
 11 12  1  0  0  0  0
 11 13  1  0  0  0  0
 11 14  1  0  0  0  0
 14 15  1  0  0  0  0
 14 16  1  0  0  0  0
 14 17  1  0  0  0  0
 17 18  1  0  0  0  0
 17 19  1  0  0  0  0
 17 20  1  0  0  0  0
 20 21  1  0  0  0  0
 20 22  1  0  0  0  0
 22 23  1  0  0  0  0
 22 24  1  0  0  0  0
 22 25  1  0  0  0  0
 20 26  1  0  0  0  0
 26 27  1  0  0  0  0
 26 28  1  0  0  0  0
 26 29  1  0  0  0  0
M  END
> <VM2 Rank>
152

> <Conf_Id>
1665

> <Probability>
0.00

> <Sum Probability>
99.90

> <Delta G>
4.613

> <G>
38.316

> <E>
-0.134

> <-TS>
38.449

> <U+W>
-24.278

> <U>
28.206

> <W>
-52.484

> <W(PB)>
-54.876

> <W(SA)>
2.392

> <Valence>
6.867

> <Coulomb>
20.599

> <VdW>
0.740

> <VdW6>
-11.268

> <VdW12>
12.008

> <Bond>
0.355

> <Angle>
2.995

> <Pdih>
3.517

> <Idih>
0.000

> <Tether>
0.000

$$$$
VeraChem MOL file


 29 28  0  0  0  0  0  0  0  0999 V2000     
   19.3530   18.2658   19.9354 C   0  0  0  0  0  0  0  0  0  0  0  0
   20.2679   17.7358   19.6406 H   0  0  0  0  0  0  0  0  0  0  0  0
   18.8927   17.7213   20.7693 H   0  0  0  0  0  0  0  0  0  0  0  0
   18.6543   18.2270   19.0897 H   0  0  0  0  0  0  0  0  0  0  0  0
   19.6591   19.7315   20.3178 C   0  0  0  0  0  0  0  0  0  0  0  0
   18.7342   20.2342   20.6300 H   0  0  0  0  0  0  0  0  0  0  0  0
   20.0019   20.2663   19.4211 H   0  0  0  0  0  0  0  0  0  0  0  0
   20.7433   19.8692   21.4172 C   0  0  0  0  0  0  0  0  0  0  0  0
   21.6939   19.4825   21.0248 H   0  0  0  0  0  0  0  0  0  0  0  0
   20.9127   20.9364   21.6156 H   0  0  0  0  0  0  0  0  0  0  0  0
   20.4325   19.1504   22.7558 C   0  0  0  0  0  0  0  0  0  0  0  0
   21.2928   19.2997   23.4207 H   0  0  0  0  0  0  0  0  0  0  0  0
   20.3564   18.0677   22.5905 H   0  0  0  0  0  0  0  0  0  0  0  0
   19.1504   19.6676   23.4544 C   0  0  0  0  0  0  0  0  0  0  0  0
   19.2467   20.7456   23.6439 H   0  0  0  0  0  0  0  0  0  0  0  0
   18.2920   19.5475   22.7812 H   0  0  0  0  0  0  0  0  0  0  0  0
   18.8184   18.9401   24.7819 C   0  0  0  0  0  0  0  0  0  0  0  0
   18.6342   17.8745   24.5901 H   0  0  0  0  0  0  0  0  0  0  0  0
   17.8647   19.3428   25.1478 H   0  0  0  0  0  0  0  0  0  0  0  0
   19.8984   19.1145   25.8771 C   0  0  2  0  0  0  0  0  0  0  0  0
   20.5291   19.9655   25.6021 H   0  0  0  0  0  0  0  0  0  0  0  0
   20.7854   17.8624   26.0021 C   0  0  0  0  0  0  0  0  0  0  0  0
   21.5856   18.0273   26.7341 H   0  0  0  0  0  0  0  0  0  0  0  0
   20.1993   16.9947   26.3301 H   0  0  0  0  0  0  0  0  0  0  0  0
   21.2576   17.6075   25.0468 H   0  0  0  0  0  0  0  0  0  0  0  0
   19.2955   19.4546   27.2124 N   0  3  0  0  0  0  0  0  0  0  0  0
   20.0184   19.5997   27.9230 H   0  0  0  0  0  0  0  0  0  0  0  0
   18.6831   18.7060   27.5478 H   0  0  0  0  0  0  0  0  0  0  0  0
   18.7376   20.3123   27.1658 H   0  0  0  0  0  0  0  0  0  0  0  0
  1  2  1  0  0  0  0
  1  3  1  0  0  0  0
  1  4  1  0  0  0  0
  1  5  1  0  0  0  0
  5  6  1  0  0  0  0
  5  7  1  0  0  0  0
  5  8  1  0  0  0  0
  8  9  1  0  0  0  0
  8 10  1  0  0  0  0
  8 11  1  0  0  0  0
 11 12  1  0  0  0  0
 11 13  1  0  0  0  0
 11 14  1  0  0  0  0
 14 15  1  0  0  0  0
 14 16  1  0  0  0  0
 14 17  1  0  0  0  0
 17 18  1  0  0  0  0
 17 19  1  0  0  0  0
 17 20  1  0  0  0  0
 20 21  1  0  0  0  0
 20 22  1  0  0  0  0
 22 23  1  0  0  0  0
 22 24  1  0  0  0  0
 22 25  1  0  0  0  0
 20 26  1  0  0  0  0
 26 27  1  0  0  0  0
 26 28  1  0  0  0  0
 26 29  1  0  0  0  0
M  END
> <VM2 Rank>
153

> <Conf_Id>
685

> <Probability>
0.00

> <Sum Probability>
99.91

> <Delta G>
4.616

> <G>
38.319

> <E>
0.424

> <-TS>
37.895

> <U+W>
-23.721

> <U>
28.495

> <W>
-52.216

> <W(PB)>
-54.650

> <W(SA)>
2.435

> <Valence>
7.352

> <Coulomb>
19.852

> <VdW>
1.291

> <VdW6>
-10.551

> <VdW12>
11.842

> <Bond>
0.310

> <Angle>
2.054

> <Pdih>
4.989

> <Idih>
0.000

> <Tether>
0.000

$$$$
VeraChem MOL file


 29 28  0  0  0  0  0  0  0  0999 V2000     
   20.0594   17.8968   20.6453 C   0  0  0  0  0  0  0  0  0  0  0  0
   21.0473   17.5494   20.9742 H   0  0  0  0  0  0  0  0  0  0  0  0
   19.3080   17.4859   21.3272 H   0  0  0  0  0  0  0  0  0  0  0  0
   19.8695   17.4679   19.6529 H   0  0  0  0  0  0  0  0  0  0  0  0
   20.0067   19.4406   20.5821 C   0  0  0  0  0  0  0  0  0  0  0  0
   19.0141   19.7738   20.2490 H   0  0  0  0  0  0  0  0  0  0  0  0
   20.7108   19.7671   19.8040 H   0  0  0  0  0  0  0  0  0  0  0  0
   20.3927   20.1417   21.9107 C   0  0  0  0  0  0  0  0  0  0  0  0
   21.1717   19.5726   22.4346 H   0  0  0  0  0  0  0  0  0  0  0  0
   20.8611   21.1018   21.6536 H   0  0  0  0  0  0  0  0  0  0  0  0
   19.2031   20.4568   22.8575 C   0  0  0  0  0  0  0  0  0  0  0  0
   18.4646   21.0584   22.3101 H   0  0  0  0  0  0  0  0  0  0  0  0
   19.5649   21.1073   23.6648 H   0  0  0  0  0  0  0  0  0  0  0  0
   18.4824   19.2331   23.4805 C   0  0  0  0  0  0  0  0  0  0  0  0
   17.6733   19.5961   24.1281 H   0  0  0  0  0  0  0  0  0  0  0  0
   17.9785   18.6641   22.6895 H   0  0  0  0  0  0  0  0  0  0  0  0
   19.4002   18.2834   24.2964 C   0  0  0  0  0  0  0  0  0  0  0  0
   20.1129   17.7975   23.6188 H   0  0  0  0  0  0  0  0  0  0  0  0
   18.7902   17.4754   24.7214 H   0  0  0  0  0  0  0  0  0  0  0  0
   20.1828   18.9835   25.4290 C   0  0  2  0  0  0  0  0  0  0  0  0
   20.7835   19.7843   24.9876 H   0  0  0  0  0  0  0  0  0  0  0  0
   21.1353   17.9913   26.1144 C   0  0  0  0  0  0  0  0  0  0  0  0
   21.8411   17.5655   25.3903 H   0  0  0  0  0  0  0  0  0  0  0  0
   21.7211   18.4919   26.8952 H   0  0  0  0  0  0  0  0  0  0  0  0
   20.5818   17.1655   26.5786 H   0  0  0  0  0  0  0  0  0  0  0  0
   19.2733   19.6289   26.4381 N   0  3  0  0  0  0  0  0  0  0  0  0
   18.6566   20.3154   25.9955 H   0  0  0  0  0  0  0  0  0  0  0  0
   19.8052   20.1151   27.1655 H   0  0  0  0  0  0  0  0  0  0  0  0
   18.6807   18.9355   26.9022 H   0  0  0  0  0  0  0  0  0  0  0  0
  1  2  1  0  0  0  0
  1  3  1  0  0  0  0
  1  4  1  0  0  0  0
  1  5  1  0  0  0  0
  5  6  1  0  0  0  0
  5  7  1  0  0  0  0
  5  8  1  0  0  0  0
  8  9  1  0  0  0  0
  8 10  1  0  0  0  0
  8 11  1  0  0  0  0
 11 12  1  0  0  0  0
 11 13  1  0  0  0  0
 11 14  1  0  0  0  0
 14 15  1  0  0  0  0
 14 16  1  0  0  0  0
 14 17  1  0  0  0  0
 17 18  1  0  0  0  0
 17 19  1  0  0  0  0
 17 20  1  0  0  0  0
 20 21  1  0  0  0  0
 20 22  1  0  0  0  0
 22 23  1  0  0  0  0
 22 24  1  0  0  0  0
 22 25  1  0  0  0  0
 20 26  1  0  0  0  0
 26 27  1  0  0  0  0
 26 28  1  0  0  0  0
 26 29  1  0  0  0  0
M  END
> <VM2 Rank>
154

> <Conf_Id>
273

> <Probability>
0.00

> <Sum Probability>
99.91

> <Delta G>
4.644

> <G>
38.346

> <E>
-0.138

> <-TS>
38.484

> <U+W>
-24.282

> <U>
28.185

> <W>
-52.467

> <W(PB)>
-54.850

> <W(SA)>
2.383

> <Valence>
7.006

> <Coulomb>
20.604

> <VdW>
0.575

> <VdW6>
-11.912

> <VdW12>
12.486

> <Bond>
0.358

> <Angle>
2.606

> <Pdih>
4.042

> <Idih>
0.000

> <Tether>
0.000

$$$$
VeraChem MOL file


 29 28  0  0  0  0  0  0  0  0999 V2000     
   18.1954   18.9164   20.4057 C   0  0  0  0  0  0  0  0  0  0  0  0
   17.7537   19.9169   20.4998 H   0  0  0  0  0  0  0  0  0  0  0  0
   17.7655   18.4422   19.5139 H   0  0  0  0  0  0  0  0  0  0  0  0
   17.8893   18.3211   21.2747 H   0  0  0  0  0  0  0  0  0  0  0  0
   19.7342   18.9973   20.2856 C   0  0  0  0  0  0  0  0  0  0  0  0
   19.9896   19.4900   19.3370 H   0  0  0  0  0  0  0  0  0  0  0  0
   20.1542   17.9834   20.2281 H   0  0  0  0  0  0  0  0  0  0  0  0
   20.4028   19.7757   21.4443 C   0  0  0  0  0  0  0  0  0  0  0  0
   21.4739   19.8782   21.2215 H   0  0  0  0  0  0  0  0  0  0  0  0
   19.9962   20.7957   21.4838 H   0  0  0  0  0  0  0  0  0  0  0  0
   20.2349   19.0926   22.8226 C   0  0  0  0  0  0  0  0  0  0  0  0
   20.6040   18.0594   22.7668 H   0  0  0  0  0  0  0  0  0  0  0  0
   19.1690   19.0474   23.0706 H   0  0  0  0  0  0  0  0  0  0  0  0
   20.9909   19.8553   23.9353 C   0  0  0  0  0  0  0  0  0  0  0  0
   22.0239   20.0266   23.6025 H   0  0  0  0  0  0  0  0  0  0  0  0
   20.5520   20.8540   24.0616 H   0  0  0  0  0  0  0  0  0  0  0  0
   21.0543   19.1232   25.3061 C   0  0  0  0  0  0  0  0  0  0  0  0
   21.6589   19.7449   25.9793 H   0  0  0  0  0  0  0  0  0  0  0  0
   21.6169   18.1866   25.1973 H   0  0  0  0  0  0  0  0  0  0  0  0
   19.7112   18.8403   26.0280 C   0  0  2  0  0  0  0  0  0  0  0  0
   19.9401   18.7652   27.0956 H   0  0  0  0  0  0  0  0  0  0  0  0
   19.0915   17.4898   25.6232 C   0  0  0  0  0  0  0  0  0  0  0  0
   18.2139   17.2720   26.2441 H   0  0  0  0  0  0  0  0  0  0  0  0
   18.7703   17.4715   24.5777 H   0  0  0  0  0  0  0  0  0  0  0  0
   19.8090   16.6735   25.7722 H   0  0  0  0  0  0  0  0  0  0  0  0
   18.7208   19.9655   25.9031 N   0  3  0  0  0  0  0  0  0  0  0  0
   19.1088   20.8444   26.2576 H   0  0  0  0  0  0  0  0  0  0  0  0
   17.8649   19.7723   26.4311 H   0  0  0  0  0  0  0  0  0  0  0  0
   18.4572   20.1164   24.9263 H   0  0  0  0  0  0  0  0  0  0  0  0
  1  2  1  0  0  0  0
  1  3  1  0  0  0  0
  1  4  1  0  0  0  0
  1  5  1  0  0  0  0
  5  6  1  0  0  0  0
  5  7  1  0  0  0  0
  5  8  1  0  0  0  0
  8  9  1  0  0  0  0
  8 10  1  0  0  0  0
  8 11  1  0  0  0  0
 11 12  1  0  0  0  0
 11 13  1  0  0  0  0
 11 14  1  0  0  0  0
 14 15  1  0  0  0  0
 14 16  1  0  0  0  0
 14 17  1  0  0  0  0
 17 18  1  0  0  0  0
 17 19  1  0  0  0  0
 17 20  1  0  0  0  0
 20 21  1  0  0  0  0
 20 22  1  0  0  0  0
 22 23  1  0  0  0  0
 22 24  1  0  0  0  0
 22 25  1  0  0  0  0
 20 26  1  0  0  0  0
 26 27  1  0  0  0  0
 26 28  1  0  0  0  0
 26 29  1  0  0  0  0
M  END
> <VM2 Rank>
155

> <Conf_Id>
669

> <Probability>
0.00

> <Sum Probability>
99.92

> <Delta G>
4.644

> <G>
38.347

> <E>
0.337

> <-TS>
38.009

> <U+W>
-23.807

> <U>
28.617

> <W>
-52.424

> <W(PB)>
-54.854

> <W(SA)>
2.430

> <Valence>
6.761

> <Coulomb>
20.675

> <VdW>
1.180

> <VdW6>
-10.633

> <VdW12>
11.813

> <Bond>
0.337

> <Angle>
2.591

> <Pdih>
3.833

> <Idih>
0.000

> <Tether>
0.000

$$$$
VeraChem MOL file


 29 28  0  0  0  0  0  0  0  0999 V2000     
   20.3193   19.8750   19.8510 C   0  0  0  0  0  0  0  0  0  0  0  0
   20.1159   20.6557   19.1067 H   0  0  0  0  0  0  0  0  0  0  0  0
   21.0217   20.2918   20.5835 H   0  0  0  0  0  0  0  0  0  0  0  0
   20.8130   19.0403   19.3366 H   0  0  0  0  0  0  0  0  0  0  0  0
   19.0071   19.4137   20.5243 C   0  0  0  0  0  0  0  0  0  0  0  0
   18.2945   19.1159   19.7426 H   0  0  0  0  0  0  0  0  0  0  0  0
   18.5417   20.2594   21.0480 H   0  0  0  0  0  0  0  0  0  0  0  0
   19.1993   18.2215   21.4959 C   0  0  0  0  0  0  0  0  0  0  0  0
   18.2195   17.9345   21.9018 H   0  0  0  0  0  0  0  0  0  0  0  0
   19.5539   17.3525   20.9248 H   0  0  0  0  0  0  0  0  0  0  0  0
   20.1766   18.4749   22.6727 C   0  0  0  0  0  0  0  0  0  0  0  0
   21.1877   18.6551   22.2845 H   0  0  0  0  0  0  0  0  0  0  0  0
   20.2456   17.5527   23.2613 H   0  0  0  0  0  0  0  0  0  0  0  0
   19.7515   19.6542   23.5847 C   0  0  0  0  0  0  0  0  0  0  0  0
   19.8056   20.5815   22.9993 H   0  0  0  0  0  0  0  0  0  0  0  0
   18.7005   19.5440   23.8810 H   0  0  0  0  0  0  0  0  0  0  0  0
   20.6594   19.8250   24.8347 C   0  0  0  0  0  0  0  0  0  0  0  0
   20.7753   20.8987   25.0326 H   0  0  0  0  0  0  0  0  0  0  0  0
   21.6717   19.4614   24.6138 H   0  0  0  0  0  0  0  0  0  0  0  0
   20.1489   19.1653   26.1398 C   0  0  2  0  0  0  0  0  0  0  0  0
   20.8949   19.3663   26.9149 H   0  0  0  0  0  0  0  0  0  0  0  0
   20.0046   17.6395   26.0223 C   0  0  0  0  0  0  0  0  0  0  0  0
   19.7808   17.1993   27.0017 H   0  0  0  0  0  0  0  0  0  0  0  0
   19.1926   17.3640   25.3388 H   0  0  0  0  0  0  0  0  0  0  0  0
   20.9355   17.1865   25.6595 H   0  0  0  0  0  0  0  0  0  0  0  0
   18.8693   19.7870   26.6286 N   0  3  0  0  0  0  0  0  0  0  0  0
   18.9702   20.7970   26.7634 H   0  0  0  0  0  0  0  0  0  0  0  0
   18.5776   19.3862   27.5247 H   0  0  0  0  0  0  0  0  0  0  0  0
   18.1065   19.6397   25.9632 H   0  0  0  0  0  0  0  0  0  0  0  0
  1  2  1  0  0  0  0
  1  3  1  0  0  0  0
  1  4  1  0  0  0  0
  1  5  1  0  0  0  0
  5  6  1  0  0  0  0
  5  7  1  0  0  0  0
  5  8  1  0  0  0  0
  8  9  1  0  0  0  0
  8 10  1  0  0  0  0
  8 11  1  0  0  0  0
 11 12  1  0  0  0  0
 11 13  1  0  0  0  0
 11 14  1  0  0  0  0
 14 15  1  0  0  0  0
 14 16  1  0  0  0  0
 14 17  1  0  0  0  0
 17 18  1  0  0  0  0
 17 19  1  0  0  0  0
 17 20  1  0  0  0  0
 20 21  1  0  0  0  0
 20 22  1  0  0  0  0
 22 23  1  0  0  0  0
 22 24  1  0  0  0  0
 22 25  1  0  0  0  0
 20 26  1  0  0  0  0
 26 27  1  0  0  0  0
 26 28  1  0  0  0  0
 26 29  1  0  0  0  0
M  END
> <VM2 Rank>
156

> <Conf_Id>
337

> <Probability>
0.00

> <Sum Probability>
99.92

> <Delta G>
4.655

> <G>
38.358

> <E>
0.137

> <-TS>
38.220

> <U+W>
-24.007

> <U>
28.527

> <W>
-52.534

> <W(PB)>
-54.949

> <W(SA)>
2.416

> <Valence>
7.259

> <Coulomb>
20.050

> <VdW>
1.218

> <VdW6>
-11.104

> <VdW12>
12.322

> <Bond>
0.363

> <Angle>
2.392

> <Pdih>
4.504

> <Idih>
0.000

> <Tether>
0.000

$$$$
VeraChem MOL file


 29 28  0  0  0  0  0  0  0  0999 V2000     
   18.1575   18.8744   20.9694 C   0  0  0  0  0  0  0  0  0  0  0  0
   18.2705   17.9234   20.4331 H   0  0  0  0  0  0  0  0  0  0  0  0
   17.9927   18.6537   22.0309 H   0  0  0  0  0  0  0  0  0  0  0  0
   17.2539   19.3690   20.5905 H   0  0  0  0  0  0  0  0  0  0  0  0
   19.3948   19.7773   20.7650 C   0  0  0  0  0  0  0  0  0  0  0  0
   19.2690   20.7119   21.3275 H   0  0  0  0  0  0  0  0  0  0  0  0
   19.4478   20.0692   19.7069 H   0  0  0  0  0  0  0  0  0  0  0  0
   20.7295   19.0921   21.1539 C   0  0  0  0  0  0  0  0  0  0  0  0
   20.8907   18.2294   20.4928 H   0  0  0  0  0  0  0  0  0  0  0  0
   21.5562   19.7860   20.9484 H   0  0  0  0  0  0  0  0  0  0  0  0
   20.8261   18.6145   22.6259 C   0  0  0  0  0  0  0  0  0  0  0  0
   21.8043   18.1343   22.7648 H   0  0  0  0  0  0  0  0  0  0  0  0
   20.0816   17.8315   22.8060 H   0  0  0  0  0  0  0  0  0  0  0  0
   20.6793   19.7633   23.6570 C   0  0  0  0  0  0  0  0  0  0  0  0
   21.4097   20.5428   23.4002 H   0  0  0  0  0  0  0  0  0  0  0  0
   19.6927   20.2344   23.5718 H   0  0  0  0  0  0  0  0  0  0  0  0
   20.9405   19.3213   25.1244 C   0  0  0  0  0  0  0  0  0  0  0  0
   21.4132   20.1584   25.6547 H   0  0  0  0  0  0  0  0  0  0  0  0
   21.6824   18.5123   25.1453 H   0  0  0  0  0  0  0  0  0  0  0  0
   19.6969   18.8992   25.9458 C   0  0  2  0  0  0  0  0  0  0  0  0
   20.0524   18.6219   26.9430 H   0  0  0  0  0  0  0  0  0  0  0  0
   18.9751   17.6759   25.3591 C   0  0  0  0  0  0  0  0  0  0  0  0
   18.4643   17.9229   24.4216 H   0  0  0  0  0  0  0  0  0  0  0  0
   19.6816   16.8586   25.1688 H   0  0  0  0  0  0  0  0  0  0  0  0
   18.2188   17.3053   26.0619 H   0  0  0  0  0  0  0  0  0  0  0  0
   18.7363   20.0380   26.1535 N   0  3  0  0  0  0  0  0  0  0  0  0
   19.1946   20.8392   26.5972 H   0  0  0  0  0  0  0  0  0  0  0  0
   17.9541   19.7619   26.7539 H   0  0  0  0  0  0  0  0  0  0  0  0
   18.3438   20.3600   25.2656 H   0  0  0  0  0  0  0  0  0  0  0  0
  1  2  1  0  0  0  0
  1  3  1  0  0  0  0
  1  4  1  0  0  0  0
  1  5  1  0  0  0  0
  5  6  1  0  0  0  0
  5  7  1  0  0  0  0
  5  8  1  0  0  0  0
  8  9  1  0  0  0  0
  8 10  1  0  0  0  0
  8 11  1  0  0  0  0
 11 12  1  0  0  0  0
 11 13  1  0  0  0  0
 11 14  1  0  0  0  0
 14 15  1  0  0  0  0
 14 16  1  0  0  0  0
 14 17  1  0  0  0  0
 17 18  1  0  0  0  0
 17 19  1  0  0  0  0
 17 20  1  0  0  0  0
 20 21  1  0  0  0  0
 20 22  1  0  0  0  0
 22 23  1  0  0  0  0
 22 24  1  0  0  0  0
 22 25  1  0  0  0  0
 20 26  1  0  0  0  0
 26 27  1  0  0  0  0
 26 28  1  0  0  0  0
 26 29  1  0  0  0  0
M  END
> <VM2 Rank>
157

> <Conf_Id>
163

> <Probability>
0.00

> <Sum Probability>
99.92

> <Delta G>
4.673

> <G>
38.375

> <E>
0.080

> <-TS>
38.296

> <U+W>
-24.065

> <U>
28.758

> <W>
-52.823

> <W(PB)>
-55.197

> <W(SA)>
2.374

> <Valence>
7.223

> <Coulomb>
20.589

> <VdW>
0.946

> <VdW6>
-11.470

> <VdW12>
12.416

> <Bond>
0.373

> <Angle>
2.546

> <Pdih>
4.304

> <Idih>
0.000

> <Tether>
0.000

$$$$
VeraChem MOL file


 29 28  0  0  0  0  0  0  0  0999 V2000     
   18.4620   18.9112   19.9566 C   0  0  0  0  0  0  0  0  0  0  0  0
   18.2351   19.8845   19.5022 H   0  0  0  0  0  0  0  0  0  0  0  0
   18.6135   18.1877   19.1451 H   0  0  0  0  0  0  0  0  0  0  0  0
   17.5855   18.5909   20.5347 H   0  0  0  0  0  0  0  0  0  0  0  0
   19.7160   18.9956   20.8521 C   0  0  0  0  0  0  0  0  0  0  0  0
   20.5816   19.2878   20.2413 H   0  0  0  0  0  0  0  0  0  0  0  0
   19.9335   17.9980   21.2563 H   0  0  0  0  0  0  0  0  0  0  0  0
   19.5254   20.0079   22.0057 C   0  0  0  0  0  0  0  0  0  0  0  0
   19.2465   20.9821   21.5809 H   0  0  0  0  0  0  0  0  0  0  0  0
   18.6786   19.6964   22.6295 H   0  0  0  0  0  0  0  0  0  0  0  0
   20.7962   20.1989   22.8740 C   0  0  0  0  0  0  0  0  0  0  0  0
   20.6197   20.9868   23.6160 H   0  0  0  0  0  0  0  0  0  0  0  0
   21.5998   20.5883   22.2336 H   0  0  0  0  0  0  0  0  0  0  0  0
   21.3168   18.9190   23.5815 C   0  0  0  0  0  0  0  0  0  0  0  0
   21.6950   18.2252   22.8189 H   0  0  0  0  0  0  0  0  0  0  0  0
   22.1929   19.1857   24.1886 H   0  0  0  0  0  0  0  0  0  0  0  0
   20.3020   18.1564   24.4772 C   0  0  0  0  0  0  0  0  0  0  0  0
   20.7903   17.2229   24.7871 H   0  0  0  0  0  0  0  0  0  0  0  0
   19.4231   17.8485   23.8970 H   0  0  0  0  0  0  0  0  0  0  0  0
   19.8640   18.9187   25.7500 C   0  0  2  0  0  0  0  0  0  0  0  0
   20.7471   19.3978   26.1838 H   0  0  0  0  0  0  0  0  0  0  0  0
   19.2879   17.9413   26.7876 C   0  0  0  0  0  0  0  0  0  0  0  0
   18.4054   17.4207   26.3950 H   0  0  0  0  0  0  0  0  0  0  0  0
   20.0327   17.1867   27.0698 H   0  0  0  0  0  0  0  0  0  0  0  0
   18.9934   18.4731   27.7009 H   0  0  0  0  0  0  0  0  0  0  0  0
   18.8656   20.0070   25.4693 N   0  3  0  0  0  0  0  0  0  0  0  0
   19.2196   20.6610   24.7672 H   0  0  0  0  0  0  0  0  0  0  0  0
   18.6491   20.5431   26.3147 H   0  0  0  0  0  0  0  0  0  0  0  0
   17.9860   19.6204   25.1173 H   0  0  0  0  0  0  0  0  0  0  0  0
  1  2  1  0  0  0  0
  1  3  1  0  0  0  0
  1  4  1  0  0  0  0
  1  5  1  0  0  0  0
  5  6  1  0  0  0  0
  5  7  1  0  0  0  0
  5  8  1  0  0  0  0
  8  9  1  0  0  0  0
  8 10  1  0  0  0  0
  8 11  1  0  0  0  0
 11 12  1  0  0  0  0
 11 13  1  0  0  0  0
 11 14  1  0  0  0  0
 14 15  1  0  0  0  0
 14 16  1  0  0  0  0
 14 17  1  0  0  0  0
 17 18  1  0  0  0  0
 17 19  1  0  0  0  0
 17 20  1  0  0  0  0
 20 21  1  0  0  0  0
 20 22  1  0  0  0  0
 22 23  1  0  0  0  0
 22 24  1  0  0  0  0
 22 25  1  0  0  0  0
 20 26  1  0  0  0  0
 26 27  1  0  0  0  0
 26 28  1  0  0  0  0
 26 29  1  0  0  0  0
M  END
> <VM2 Rank>
158

> <Conf_Id>
1178

> <Probability>
0.00

> <Sum Probability>
99.93

> <Delta G>
4.680

> <G>
38.382

> <E>
0.126

> <-TS>
38.256

> <U+W>
-24.018

> <U>
28.175

> <W>
-52.194

> <W(PB)>
-54.623

> <W(SA)>
2.430

> <Valence>
5.874

> <Coulomb>
21.577

> <VdW>
0.724

> <VdW6>
-11.266

> <VdW12>
11.991

> <Bond>
0.343

> <Angle>
2.488

> <Pdih>
3.043

> <Idih>
0.000

> <Tether>
0.000

$$$$
VeraChem MOL file


 29 28  0  0  0  0  0  0  0  0999 V2000     
   18.2679   19.6429   19.9149 C   0  0  0  0  0  0  0  0  0  0  0  0
   18.0826   20.4047   19.1466 H   0  0  0  0  0  0  0  0  0  0  0  0
   18.4222   18.6822   19.4065 H   0  0  0  0  0  0  0  0  0  0  0  0
   17.3646   19.5613   20.5334 H   0  0  0  0  0  0  0  0  0  0  0  0
   19.4950   20.0201   20.7714 C   0  0  0  0  0  0  0  0  0  0  0  0
   19.3248   20.9996   21.2396 H   0  0  0  0  0  0  0  0  0  0  0  0
   20.3740   20.1287   20.1205 H   0  0  0  0  0  0  0  0  0  0  0  0
   19.7793   18.9615   21.8594 C   0  0  0  0  0  0  0  0  0  0  0  0
   18.8882   18.8456   22.4884 H   0  0  0  0  0  0  0  0  0  0  0  0
   19.9565   17.9871   21.3835 H   0  0  0  0  0  0  0  0  0  0  0  0
   21.0070   19.3411   22.7222 C   0  0  0  0  0  0  0  0  0  0  0  0
   20.8621   20.3229   23.1889 H   0  0  0  0  0  0  0  0  0  0  0  0
   21.8763   19.4593   22.0605 H   0  0  0  0  0  0  0  0  0  0  0  0
   21.3632   18.2831   23.7976 C   0  0  0  0  0  0  0  0  0  0  0  0
   21.6479   17.3523   23.2879 H   0  0  0  0  0  0  0  0  0  0  0  0
   22.2644   18.6161   24.3309 H   0  0  0  0  0  0  0  0  0  0  0  0
   20.2612   17.9513   24.8415 C   0  0  0  0  0  0  0  0  0  0  0  0
   20.6593   17.1522   25.4810 H   0  0  0  0  0  0  0  0  0  0  0  0
   19.3781   17.5211   24.3526 H   0  0  0  0  0  0  0  0  0  0  0  0
   19.8468   19.1386   25.7426 C   0  0  2  0  0  0  0  0  0  0  0  0
   20.7469   19.7057   25.9988 H   0  0  0  0  0  0  0  0  0  0  0  0
   19.2116   18.6278   27.0462 C   0  0  0  0  0  0  0  0  0  0  0  0
   18.3105   18.0355   26.8430 H   0  0  0  0  0  0  0  0  0  0  0  0
   19.9162   17.9982   27.6039 H   0  0  0  0  0  0  0  0  0  0  0  0
   18.9309   19.4658   27.6962 H   0  0  0  0  0  0  0  0  0  0  0  0
   18.9040   20.0897   25.0582 N   0  3  0  0  0  0  0  0  0  0  0  0
   19.2902   20.4172   24.1690 H   0  0  0  0  0  0  0  0  0  0  0  0
   18.7136   20.9112   25.6395 H   0  0  0  0  0  0  0  0  0  0  0  0
   18.0062   19.6408   24.8586 H   0  0  0  0  0  0  0  0  0  0  0  0
  1  2  1  0  0  0  0
  1  3  1  0  0  0  0
  1  4  1  0  0  0  0
  1  5  1  0  0  0  0
  5  6  1  0  0  0  0
  5  7  1  0  0  0  0
  5  8  1  0  0  0  0
  8  9  1  0  0  0  0
  8 10  1  0  0  0  0
  8 11  1  0  0  0  0
 11 12  1  0  0  0  0
 11 13  1  0  0  0  0
 11 14  1  0  0  0  0
 14 15  1  0  0  0  0
 14 16  1  0  0  0  0
 14 17  1  0  0  0  0
 17 18  1  0  0  0  0
 17 19  1  0  0  0  0
 17 20  1  0  0  0  0
 20 21  1  0  0  0  0
 20 22  1  0  0  0  0
 22 23  1  0  0  0  0
 22 24  1  0  0  0  0
 22 25  1  0  0  0  0
 20 26  1  0  0  0  0
 26 27  1  0  0  0  0
 26 28  1  0  0  0  0
 26 29  1  0  0  0  0
M  END
> <VM2 Rank>
159

> <Conf_Id>
550

> <Probability>
0.00

> <Sum Probability>
99.93

> <Delta G>
4.701

> <G>
38.403

> <E>
0.345

> <-TS>
38.058

> <U+W>
-23.800

> <U>
27.762

> <W>
-51.562

> <W(PB)>
-54.039

> <W(SA)>
2.477

> <Valence>
5.446

> <Coulomb>
21.561

> <VdW>
0.755

> <VdW6>
-10.491

> <VdW12>
11.246

> <Bond>
0.290

> <Angle>
2.160

> <Pdih>
2.996

> <Idih>
0.000

> <Tether>
0.000

$$$$
VeraChem MOL file


 29 28  0  0  0  0  0  0  0  0999 V2000     
   18.5989   18.9221   19.8134 C   0  0  0  0  0  0  0  0  0  0  0  0
   18.2552   19.6815   19.0991 H   0  0  0  0  0  0  0  0  0  0  0  0
   19.0583   18.1053   19.2415 H   0  0  0  0  0  0  0  0  0  0  0  0
   17.7173   18.5232   20.3318 H   0  0  0  0  0  0  0  0  0  0  0  0
   19.6024   19.5312   20.8152 C   0  0  0  0  0  0  0  0  0  0  0  0
   19.1202   20.3676   21.3383 H   0  0  0  0  0  0  0  0  0  0  0  0
   20.4583   19.9483   20.2664 H   0  0  0  0  0  0  0  0  0  0  0  0
   20.0980   18.4800   21.8356 C   0  0  0  0  0  0  0  0  0  0  0  0
   19.2450   18.0957   22.4087 H   0  0  0  0  0  0  0  0  0  0  0  0
   20.5077   17.6192   21.2894 H   0  0  0  0  0  0  0  0  0  0  0  0
   21.1938   19.0152   22.7942 C   0  0  0  0  0  0  0  0  0  0  0  0
   22.0642   19.3176   22.1957 H   0  0  0  0  0  0  0  0  0  0  0  0
   21.5524   18.1977   23.4322 H   0  0  0  0  0  0  0  0  0  0  0  0
   20.7688   20.2147   23.6809 C   0  0  0  0  0  0  0  0  0  0  0  0
   21.6279   20.5180   24.2951 H   0  0  0  0  0  0  0  0  0  0  0  0
   20.5557   21.0778   23.0368 H   0  0  0  0  0  0  0  0  0  0  0  0
   19.5507   19.9761   24.6131 C   0  0  0  0  0  0  0  0  0  0  0  0
   18.6635   19.6880   24.0351 H   0  0  0  0  0  0  0  0  0  0  0  0
   19.3011   20.9479   25.0591 H   0  0  0  0  0  0  0  0  0  0  0  0
   19.8143   18.9652   25.7566 C   0  0  2  0  0  0  0  0  0  0  0  0
   20.8911   18.9387   25.9499 H   0  0  0  0  0  0  0  0  0  0  0  0
   19.3388   17.5445   25.4026 C   0  0  0  0  0  0  0  0  0  0  0  0
   19.8629   17.1478   24.5279 H   0  0  0  0  0  0  0  0  0  0  0  0
   19.5301   16.8560   26.2349 H   0  0  0  0  0  0  0  0  0  0  0  0
   18.2624   17.5282   25.1912 H   0  0  0  0  0  0  0  0  0  0  0  0
   19.1702   19.4070   27.0422 N   0  3  0  0  0  0  0  0  0  0  0  0
   19.5046   20.3304   27.3332 H   0  0  0  0  0  0  0  0  0  0  0  0
   19.3737   18.7552   27.8054 H   0  0  0  0  0  0  0  0  0  0  0  0
   18.1522   19.4622   26.9506 H   0  0  0  0  0  0  0  0  0  0  0  0
  1  2  1  0  0  0  0
  1  3  1  0  0  0  0
  1  4  1  0  0  0  0
  1  5  1  0  0  0  0
  5  6  1  0  0  0  0
  5  7  1  0  0  0  0
  5  8  1  0  0  0  0
  8  9  1  0  0  0  0
  8 10  1  0  0  0  0
  8 11  1  0  0  0  0
 11 12  1  0  0  0  0
 11 13  1  0  0  0  0
 11 14  1  0  0  0  0
 14 15  1  0  0  0  0
 14 16  1  0  0  0  0
 14 17  1  0  0  0  0
 17 18  1  0  0  0  0
 17 19  1  0  0  0  0
 17 20  1  0  0  0  0
 20 21  1  0  0  0  0
 20 22  1  0  0  0  0
 22 23  1  0  0  0  0
 22 24  1  0  0  0  0
 22 25  1  0  0  0  0
 20 26  1  0  0  0  0
 26 27  1  0  0  0  0
 26 28  1  0  0  0  0
 26 29  1  0  0  0  0
M  END
> <VM2 Rank>
160

> <Conf_Id>
352

> <Probability>
0.00

> <Sum Probability>
99.94

> <Delta G>
4.707

> <G>
38.409

> <E>
0.191

> <-TS>
38.219

> <U+W>
-23.954

> <U>
28.474

> <W>
-52.428

> <W(PB)>
-54.845

> <W(SA)>
2.418

> <Valence>
7.438

> <Coulomb>
20.128

> <VdW>
0.908

> <VdW6>
-11.079

> <VdW12>
11.987

> <Bond>
0.324

> <Angle>
2.510

> <Pdih>
4.604

> <Idih>
0.000

> <Tether>
0.000

$$$$
VeraChem MOL file


 29 28  0  0  0  0  0  0  0  0999 V2000     
   20.6123   20.4431   20.5831 C   0  0  0  0  0  0  0  0  0  0  0  0
   20.2540   21.1849   21.3085 H   0  0  0  0  0  0  0  0  0  0  0  0
   21.4701   19.9151   21.0176 H   0  0  0  0  0  0  0  0  0  0  0  0
   20.9737   20.9844   19.6992 H   0  0  0  0  0  0  0  0  0  0  0  0
   19.4883   19.4594   20.1913 C   0  0  0  0  0  0  0  0  0  0  0  0
   19.8916   18.6964   19.5109 H   0  0  0  0  0  0  0  0  0  0  0  0
   18.7261   20.0057   19.6183 H   0  0  0  0  0  0  0  0  0  0  0  0
   18.7984   18.7706   21.3961 C   0  0  0  0  0  0  0  0  0  0  0  0
   18.3090   19.5262   22.0229 H   0  0  0  0  0  0  0  0  0  0  0  0
   17.9866   18.1459   20.9988 H   0  0  0  0  0  0  0  0  0  0  0  0
   19.7336   17.8641   22.2426 C   0  0  0  0  0  0  0  0  0  0  0  0
   20.5341   17.4699   21.6017 H   0  0  0  0  0  0  0  0  0  0  0  0
   19.1686   16.9842   22.5797 H   0  0  0  0  0  0  0  0  0  0  0  0
   20.3577   18.5502   23.4856 C   0  0  0  0  0  0  0  0  0  0  0  0
   21.1785   17.9153   23.8433 H   0  0  0  0  0  0  0  0  0  0  0  0
   20.8090   19.5101   23.2073 H   0  0  0  0  0  0  0  0  0  0  0  0
   19.3407   18.7661   24.6370 C   0  0  0  0  0  0  0  0  0  0  0  0
   18.9544   17.7953   24.9746 H   0  0  0  0  0  0  0  0  0  0  0  0
   18.4777   19.3258   24.2575 H   0  0  0  0  0  0  0  0  0  0  0  0
   19.9222   19.5398   25.8425 C   0  0  2  0  0  0  0  0  0  0  0  0
   20.3393   20.4828   25.4760 H   0  0  0  0  0  0  0  0  0  0  0  0
   21.0402   18.7561   26.5534 C   0  0  0  0  0  0  0  0  0  0  0  0
   20.6872   17.7704   26.8812 H   0  0  0  0  0  0  0  0  0  0  0  0
   21.9058   18.6110   25.8969 H   0  0  0  0  0  0  0  0  0  0  0  0
   21.3927   19.3021   27.4371 H   0  0  0  0  0  0  0  0  0  0  0  0
   18.8425   19.9066   26.8224 N   0  3  0  0  0  0  0  0  0  0  0  0
   18.1079   20.4679   26.3817 H   0  0  0  0  0  0  0  0  0  0  0  0
   19.2164   20.4535   27.6033 H   0  0  0  0  0  0  0  0  0  0  0  0
   18.3980   19.0737   27.2179 H   0  0  0  0  0  0  0  0  0  0  0  0
  1  2  1  0  0  0  0
  1  3  1  0  0  0  0
  1  4  1  0  0  0  0
  1  5  1  0  0  0  0
  5  6  1  0  0  0  0
  5  7  1  0  0  0  0
  5  8  1  0  0  0  0
  8  9  1  0  0  0  0
  8 10  1  0  0  0  0
  8 11  1  0  0  0  0
 11 12  1  0  0  0  0
 11 13  1  0  0  0  0
 11 14  1  0  0  0  0
 14 15  1  0  0  0  0
 14 16  1  0  0  0  0
 14 17  1  0  0  0  0
 17 18  1  0  0  0  0
 17 19  1  0  0  0  0
 17 20  1  0  0  0  0
 20 21  1  0  0  0  0
 20 22  1  0  0  0  0
 22 23  1  0  0  0  0
 22 24  1  0  0  0  0
 22 25  1  0  0  0  0
 20 26  1  0  0  0  0
 26 27  1  0  0  0  0
 26 28  1  0  0  0  0
 26 29  1  0  0  0  0
M  END
> <VM2 Rank>
161

> <Conf_Id>
182

> <Probability>
0.00

> <Sum Probability>
99.94

> <Delta G>
4.730

> <G>
38.432

> <E>
0.585

> <-TS>
37.847

> <U+W>
-23.559

> <U>
28.875

> <W>
-52.434

> <W(PB)>
-54.885

> <W(SA)>
2.450

> <Valence>
7.510

> <Coulomb>
19.951

> <VdW>
1.414

> <VdW6>
-10.241

> <VdW12>
11.655

> <Bond>
0.342

> <Angle>
2.142

> <Pdih>
5.026

> <Idih>
0.000

> <Tether>
0.000

$$$$
VeraChem MOL file


 29 28  0  0  0  0  0  0  0  0999 V2000     
   19.7072   20.8948   21.3181 C   0  0  0  0  0  0  0  0  0  0  0  0
   18.6394   21.1387   21.3904 H   0  0  0  0  0  0  0  0  0  0  0  0
   20.1214   20.8780   22.3315 H   0  0  0  0  0  0  0  0  0  0  0  0
   20.1990   21.7125   20.7754 H   0  0  0  0  0  0  0  0  0  0  0  0
   19.9199   19.5535   20.5784 C   0  0  0  0  0  0  0  0  0  0  0  0
   20.9927   19.3338   20.4880 H   0  0  0  0  0  0  0  0  0  0  0  0
   19.5493   19.6747   19.5509 H   0  0  0  0  0  0  0  0  0  0  0  0
   19.1775   18.3565   21.2273 C   0  0  0  0  0  0  0  0  0  0  0  0
   18.2405   18.6910   21.6910 H   0  0  0  0  0  0  0  0  0  0  0  0
   18.8708   17.6764   20.4206 H   0  0  0  0  0  0  0  0  0  0  0  0
   20.0244   17.5232   22.2274 C   0  0  0  0  0  0  0  0  0  0  0  0
   20.8891   17.1070   21.6925 H   0  0  0  0  0  0  0  0  0  0  0  0
   19.4314   16.6567   22.5510 H   0  0  0  0  0  0  0  0  0  0  0  0
   20.5363   18.2702   23.4843 C   0  0  0  0  0  0  0  0  0  0  0  0
   21.1626   17.5717   24.0538 H   0  0  0  0  0  0  0  0  0  0  0  0
   21.1996   19.0918   23.1865 H   0  0  0  0  0  0  0  0  0  0  0  0
   19.3982   18.7983   24.3963 C   0  0  0  0  0  0  0  0  0  0  0  0
   18.7856   17.9570   24.7463 H   0  0  0  0  0  0  0  0  0  0  0  0
   18.7334   19.4408   23.8072 H   0  0  0  0  0  0  0  0  0  0  0  0
   19.9021   19.6155   25.6077 C   0  0  2  0  0  0  0  0  0  0  0  0
   20.5496   20.4157   25.2362 H   0  0  0  0  0  0  0  0  0  0  0  0
   20.7091   18.7546   26.5962 C   0  0  0  0  0  0  0  0  0  0  0  0
   21.0032   19.3458   27.4722 H   0  0  0  0  0  0  0  0  0  0  0  0
   20.1216   17.8968   26.9466 H   0  0  0  0  0  0  0  0  0  0  0  0
   21.6300   18.3769   26.1375 H   0  0  0  0  0  0  0  0  0  0  0  0
   18.7614   20.2894   26.3184 N   0  3  0  0  0  0  0  0  0  0  0  0
   18.1038   19.6050   26.7018 H   0  0  0  0  0  0  0  0  0  0  0  0
   18.2355   20.9038   25.6902 H   0  0  0  0  0  0  0  0  0  0  0  0
   19.0940   20.8635   27.0984 H   0  0  0  0  0  0  0  0  0  0  0  0
  1  2  1  0  0  0  0
  1  3  1  0  0  0  0
  1  4  1  0  0  0  0
  1  5  1  0  0  0  0
  5  6  1  0  0  0  0
  5  7  1  0  0  0  0
  5  8  1  0  0  0  0
  8  9  1  0  0  0  0
  8 10  1  0  0  0  0
  8 11  1  0  0  0  0
 11 12  1  0  0  0  0
 11 13  1  0  0  0  0
 11 14  1  0  0  0  0
 14 15  1  0  0  0  0
 14 16  1  0  0  0  0
 14 17  1  0  0  0  0
 17 18  1  0  0  0  0
 17 19  1  0  0  0  0
 17 20  1  0  0  0  0
 20 21  1  0  0  0  0
 20 22  1  0  0  0  0
 22 23  1  0  0  0  0
 22 24  1  0  0  0  0
 22 25  1  0  0  0  0
 20 26  1  0  0  0  0
 26 27  1  0  0  0  0
 26 28  1  0  0  0  0
 26 29  1  0  0  0  0
M  END
> <VM2 Rank>
162

> <Conf_Id>
1005

> <Probability>
0.00

> <Sum Probability>
99.94

> <Delta G>
4.741

> <G>
38.443

> <E>
0.215

> <-TS>
38.228

> <U+W>
-23.929

> <U>
28.830

> <W>
-52.759

> <W(PB)>
-55.175

> <W(SA)>
2.415

> <Valence>
7.353

> <Coulomb>
20.481

> <VdW>
0.997

> <VdW6>
-11.027

> <VdW12>
12.024

> <Bond>
0.342

> <Angle>
2.651

> <Pdih>
4.360

> <Idih>
0.000

> <Tether>
0.000

$$$$
VeraChem MOL file


 29 28  0  0  0  0  0  0  0  0999 V2000     
   18.7383   20.5454   21.0400 C   0  0  0  0  0  0  0  0  0  0  0  0
   18.8256   20.8084   22.1003 H   0  0  0  0  0  0  0  0  0  0  0  0
   18.5148   21.4695   20.4915 H   0  0  0  0  0  0  0  0  0  0  0  0
   17.8853   19.8658   20.9149 H   0  0  0  0  0  0  0  0  0  0  0  0
   20.0415   19.9077   20.5121 C   0  0  0  0  0  0  0  0  0  0  0  0
   20.8869   20.5775   20.7227 H   0  0  0  0  0  0  0  0  0  0  0  0
   19.9779   19.8339   19.4174 H   0  0  0  0  0  0  0  0  0  0  0  0
   20.3403   18.4972   21.0811 C   0  0  0  0  0  0  0  0  0  0  0  0
   19.5469   17.7961   20.7879 H   0  0  0  0  0  0  0  0  0  0  0  0
   21.2533   18.1314   20.5911 H   0  0  0  0  0  0  0  0  0  0  0  0
   20.5649   18.4480   22.6149 C   0  0  0  0  0  0  0  0  0  0  0  0
   20.9927   19.3997   22.9560 H   0  0  0  0  0  0  0  0  0  0  0  0
   21.3218   17.6805   22.8281 H   0  0  0  0  0  0  0  0  0  0  0  0
   19.2841   18.0947   23.4142 C   0  0  0  0  0  0  0  0  0  0  0  0
   18.4979   18.8368   23.2363 H   0  0  0  0  0  0  0  0  0  0  0  0
   18.8841   17.1415   23.0421 H   0  0  0  0  0  0  0  0  0  0  0  0
   19.5375   17.9538   24.9371 C   0  0  0  0  0  0  0  0  0  0  0  0
   20.2441   17.1297   25.1028 H   0  0  0  0  0  0  0  0  0  0  0  0
   18.6016   17.6583   25.4297 H   0  0  0  0  0  0  0  0  0  0  0  0
   20.0878   19.2313   25.6098 C   0  0  2  0  0  0  0  0  0  0  0  0
   21.0292   19.5002   25.1219 H   0  0  0  0  0  0  0  0  0  0  0  0
   20.3769   18.9706   27.0965 C   0  0  0  0  0  0  0  0  0  0  0  0
   19.4614   18.7011   27.6379 H   0  0  0  0  0  0  0  0  0  0  0  0
   21.0977   18.1521   27.2154 H   0  0  0  0  0  0  0  0  0  0  0  0
   20.8047   19.8624   27.5710 H   0  0  0  0  0  0  0  0  0  0  0  0
   19.1646   20.4073   25.4483 N   0  3  0  0  0  0  0  0  0  0  0  0
   19.5557   21.2515   25.8764 H   0  0  0  0  0  0  0  0  0  0  0  0
   18.2578   20.2313   25.8891 H   0  0  0  0  0  0  0  0  0  0  0  0
   18.9952   20.6112   24.4599 H   0  0  0  0  0  0  0  0  0  0  0  0
  1  2  1  0  0  0  0
  1  3  1  0  0  0  0
  1  4  1  0  0  0  0
  1  5  1  0  0  0  0
  5  6  1  0  0  0  0
  5  7  1  0  0  0  0
  5  8  1  0  0  0  0
  8  9  1  0  0  0  0
  8 10  1  0  0  0  0
  8 11  1  0  0  0  0
 11 12  1  0  0  0  0
 11 13  1  0  0  0  0
 11 14  1  0  0  0  0
 14 15  1  0  0  0  0
 14 16  1  0  0  0  0
 14 17  1  0  0  0  0
 17 18  1  0  0  0  0
 17 19  1  0  0  0  0
 17 20  1  0  0  0  0
 20 21  1  0  0  0  0
 20 22  1  0  0  0  0
 22 23  1  0  0  0  0
 22 24  1  0  0  0  0
 22 25  1  0  0  0  0
 20 26  1  0  0  0  0
 26 27  1  0  0  0  0
 26 28  1  0  0  0  0
 26 29  1  0  0  0  0
M  END
> <VM2 Rank>
163

> <Conf_Id>
328

> <Probability>
0.00

> <Sum Probability>
99.95

> <Delta G>
4.754

> <G>
38.456

> <E>
0.590

> <-TS>
37.866

> <U+W>
-23.554

> <U>
28.544

> <W>
-52.099

> <W(PB)>
-54.539

> <W(SA)>
2.440

> <Valence>
6.446

> <Coulomb>
21.309

> <VdW>
0.789

> <VdW6>
-10.662

> <VdW12>
11.451

> <Bond>
0.309

> <Angle>
1.905

> <Pdih>
4.233

> <Idih>
0.000

> <Tether>
0.000

$$$$
VeraChem MOL file


 29 28  0  0  0  0  0  0  0  0999 V2000     
   19.0692   19.7353   19.3828 C   0  0  0  0  0  0  0  0  0  0  0  0
   20.0615   19.8989   18.9426 H   0  0  0  0  0  0  0  0  0  0  0  0
   18.6685   18.7947   18.9830 H   0  0  0  0  0  0  0  0  0  0  0  0
   18.4136   20.5498   19.0485 H   0  0  0  0  0  0  0  0  0  0  0  0
   19.1463   19.6956   20.9237 C   0  0  0  0  0  0  0  0  0  0  0  0
   18.1363   19.5608   21.3351 H   0  0  0  0  0  0  0  0  0  0  0  0
   19.5125   20.6649   21.2873 H   0  0  0  0  0  0  0  0  0  0  0  0
   20.0688   18.5567   21.4187 C   0  0  0  0  0  0  0  0  0  0  0  0
   19.7277   17.6063   20.9854 H   0  0  0  0  0  0  0  0  0  0  0  0
   21.0890   18.7172   21.0437 H   0  0  0  0  0  0  0  0  0  0  0  0
   20.0985   18.4118   22.9598 C   0  0  0  0  0  0  0  0  0  0  0  0
   20.6937   17.5243   23.2149 H   0  0  0  0  0  0  0  0  0  0  0  0
   19.0781   18.2231   23.3146 H   0  0  0  0  0  0  0  0  0  0  0  0
   20.6926   19.6468   23.6804 C   0  0  0  0  0  0  0  0  0  0  0  0
   21.6203   19.9364   23.1680 H   0  0  0  0  0  0  0  0  0  0  0  0
   20.0158   20.5044   23.5762 H   0  0  0  0  0  0  0  0  0  0  0  0
   21.0321   19.4268   25.1820 C   0  0  0  0  0  0  0  0  0  0  0  0
   21.5004   20.3497   25.5484 H   0  0  0  0  0  0  0  0  0  0  0  0
   21.8072   18.6547   25.2754 H   0  0  0  0  0  0  0  0  0  0  0  0
   19.8562   19.0998   26.1388 C   0  0  2  0  0  0  0  0  0  0  0  0
   20.1730   19.4086   27.1398 H   0  0  0  0  0  0  0  0  0  0  0  0
   19.5599   17.5912   26.2250 C   0  0  0  0  0  0  0  0  0  0  0  0
   19.1643   17.1877   25.2883 H   0  0  0  0  0  0  0  0  0  0  0  0
   20.4674   17.0306   26.4810 H   0  0  0  0  0  0  0  0  0  0  0  0
   18.8198   17.3932   27.0099 H   0  0  0  0  0  0  0  0  0  0  0  0
   18.6124   19.8920   25.8429 N   0  3  0  0  0  0  0  0  0  0  0  0
   18.7957   20.8990   25.8731 H   0  0  0  0  0  0  0  0  0  0  0  0
   17.8713   19.6938   26.5212 H   0  0  0  0  0  0  0  0  0  0  0  0
   18.2498   19.6717   24.9120 H   0  0  0  0  0  0  0  0  0  0  0  0
  1  2  1  0  0  0  0
  1  3  1  0  0  0  0
  1  4  1  0  0  0  0
  1  5  1  0  0  0  0
  5  6  1  0  0  0  0
  5  7  1  0  0  0  0
  5  8  1  0  0  0  0
  8  9  1  0  0  0  0
  8 10  1  0  0  0  0
  8 11  1  0  0  0  0
 11 12  1  0  0  0  0
 11 13  1  0  0  0  0
 11 14  1  0  0  0  0
 14 15  1  0  0  0  0
 14 16  1  0  0  0  0
 14 17  1  0  0  0  0
 17 18  1  0  0  0  0
 17 19  1  0  0  0  0
 17 20  1  0  0  0  0
 20 21  1  0  0  0  0
 20 22  1  0  0  0  0
 22 23  1  0  0  0  0
 22 24  1  0  0  0  0
 22 25  1  0  0  0  0
 20 26  1  0  0  0  0
 26 27  1  0  0  0  0
 26 28  1  0  0  0  0
 26 29  1  0  0  0  0
M  END
> <VM2 Rank>
164

> <Conf_Id>
342

> <Probability>
0.00

> <Sum Probability>
99.95

> <Delta G>
4.780

> <G>
38.483

> <E>
0.470

> <-TS>
38.013

> <U+W>
-23.675

> <U>
28.749

> <W>
-52.424

> <W(PB)>
-54.870

> <W(SA)>
2.447

> <Valence>
6.743

> <Coulomb>
20.841

> <VdW>
1.164

> <VdW6>
-10.610

> <VdW12>
11.774

> <Bond>
0.335

> <Angle>
2.546

> <Pdih>
3.863

> <Idih>
0.000

> <Tether>
0.000

$$$$
VeraChem MOL file


 29 28  0  0  0  0  0  0  0  0999 V2000     
   19.2003   20.3518   20.4980 C   0  0  0  0  0  0  0  0  0  0  0  0
   18.9131   21.3963   20.3212 H   0  0  0  0  0  0  0  0  0  0  0  0
   19.6615   19.9697   19.5780 H   0  0  0  0  0  0  0  0  0  0  0  0
   18.2808   19.7829   20.6839 H   0  0  0  0  0  0  0  0  0  0  0  0
   20.1772   20.2533   21.6909 C   0  0  0  0  0  0  0  0  0  0  0  0
   19.6857   20.6260   22.5973 H   0  0  0  0  0  0  0  0  0  0  0  0
   21.0261   20.9270   21.5092 H   0  0  0  0  0  0  0  0  0  0  0  0
   20.7240   18.8213   21.9203 C   0  0  0  0  0  0  0  0  0  0  0  0
   21.2835   18.5149   21.0258 H   0  0  0  0  0  0  0  0  0  0  0  0
   21.4632   18.8357   22.7310 H   0  0  0  0  0  0  0  0  0  0  0  0
   19.6494   17.7424   22.2162 C   0  0  0  0  0  0  0  0  0  0  0  0
   20.1527   16.7739   22.3413 H   0  0  0  0  0  0  0  0  0  0  0  0
   19.0107   17.6231   21.3310 H   0  0  0  0  0  0  0  0  0  0  0  0
   18.7430   17.9968   23.4507 C   0  0  0  0  0  0  0  0  0  0  0  0
   18.1654   18.9203   23.3214 H   0  0  0  0  0  0  0  0  0  0  0  0
   17.9960   17.1914   23.4743 H   0  0  0  0  0  0  0  0  0  0  0  0
   19.4878   17.9862   24.8135 C   0  0  0  0  0  0  0  0  0  0  0  0
   20.2695   17.2155   24.7886 H   0  0  0  0  0  0  0  0  0  0  0  0
   18.7853   17.6750   25.5981 H   0  0  0  0  0  0  0  0  0  0  0  0
   20.1030   19.3430   25.2239 C   0  0  2  0  0  0  0  0  0  0  0  0
   20.7235   19.7122   24.4043 H   0  0  0  0  0  0  0  0  0  0  0  0
   20.9982   19.1710   26.4610 C   0  0  0  0  0  0  0  0  0  0  0  0
   21.4596   20.1256   26.7424 H   0  0  0  0  0  0  0  0  0  0  0  0
   20.4227   18.8029   27.3197 H   0  0  0  0  0  0  0  0  0  0  0  0
   21.8070   18.4573   26.2604 H   0  0  0  0  0  0  0  0  0  0  0  0
   19.0531   20.3901   25.4795 N   0  3  0  0  0  0  0  0  0  0  0  0
   18.4422   20.1208   26.2554 H   0  0  0  0  0  0  0  0  0  0  0  0
   18.4605   20.5355   24.6580 H   0  0  0  0  0  0  0  0  0  0  0  0
   19.4744   21.2917   25.7212 H   0  0  0  0  0  0  0  0  0  0  0  0
  1  2  1  0  0  0  0
  1  3  1  0  0  0  0
  1  4  1  0  0  0  0
  1  5  1  0  0  0  0
  5  6  1  0  0  0  0
  5  7  1  0  0  0  0
  5  8  1  0  0  0  0
  8  9  1  0  0  0  0
  8 10  1  0  0  0  0
  8 11  1  0  0  0  0
 11 12  1  0  0  0  0
 11 13  1  0  0  0  0
 11 14  1  0  0  0  0
 14 15  1  0  0  0  0
 14 16  1  0  0  0  0
 14 17  1  0  0  0  0
 17 18  1  0  0  0  0
 17 19  1  0  0  0  0
 17 20  1  0  0  0  0
 20 21  1  0  0  0  0
 20 22  1  0  0  0  0
 22 23  1  0  0  0  0
 22 24  1  0  0  0  0
 22 25  1  0  0  0  0
 20 26  1  0  0  0  0
 26 27  1  0  0  0  0
 26 28  1  0  0  0  0
 26 29  1  0  0  0  0
M  END
> <VM2 Rank>
165

> <Conf_Id>
984

> <Probability>
0.00

> <Sum Probability>
99.95

> <Delta G>
4.785

> <G>
38.487

> <E>
-0.165

> <-TS>
38.652

> <U+W>
-24.309

> <U>
28.628

> <W>
-52.937

> <W(PB)>
-55.336

> <W(SA)>
2.399

> <Valence>
6.751

> <Coulomb>
21.512

> <VdW>
0.364

> <VdW6>
-12.196

> <VdW12>
12.560

> <Bond>
0.349

> <Angle>
2.627

> <Pdih>
3.776

> <Idih>
0.000

> <Tether>
0.000

$$$$
VeraChem MOL file


 29 28  0  0  0  0  0  0  0  0999 V2000     
   20.7268   19.2842   19.8195 C   0  0  0  0  0  0  0  0  0  0  0  0
   21.5829   19.8347   19.4085 H   0  0  0  0  0  0  0  0  0  0  0  0
   21.0989   18.3186   20.1825 H   0  0  0  0  0  0  0  0  0  0  0  0
   20.0259   19.0931   18.9966 H   0  0  0  0  0  0  0  0  0  0  0  0
   20.0511   20.0990   20.9463 C   0  0  0  0  0  0  0  0  0  0  0  0
   19.7810   21.0867   20.5475 H   0  0  0  0  0  0  0  0  0  0  0  0
   20.7750   20.2826   21.7494 H   0  0  0  0  0  0  0  0  0  0  0  0
   18.7704   19.4248   21.5025 C   0  0  0  0  0  0  0  0  0  0  0  0
   18.2049   20.1493   22.1043 H   0  0  0  0  0  0  0  0  0  0  0  0
   18.1175   19.1764   20.6544 H   0  0  0  0  0  0  0  0  0  0  0  0
   19.0182   18.1385   22.3369 C   0  0  0  0  0  0  0  0  0  0  0  0
   19.9317   17.6276   22.0082 H   0  0  0  0  0  0  0  0  0  0  0  0
   18.1990   17.4362   22.1298 H   0  0  0  0  0  0  0  0  0  0  0  0
   19.0642   18.3605   23.8707 C   0  0  0  0  0  0  0  0  0  0  0  0
   18.1017   18.7722   24.2021 H   0  0  0  0  0  0  0  0  0  0  0  0
   19.1587   17.3765   24.3473 H   0  0  0  0  0  0  0  0  0  0  0  0
   20.2211   19.2817   24.3415 C   0  0  0  0  0  0  0  0  0  0  0  0
   20.0698   20.2881   23.9331 H   0  0  0  0  0  0  0  0  0  0  0  0
   21.1700   18.9186   23.9253 H   0  0  0  0  0  0  0  0  0  0  0  0
   20.3664   19.4128   25.8762 C   0  0  2  0  0  0  0  0  0  0  0  0
   21.1600   20.1424   26.0653 H   0  0  0  0  0  0  0  0  0  0  0  0
   20.7900   18.0885   26.5355 C   0  0  0  0  0  0  0  0  0  0  0  0
   19.9979   17.3328   26.4778 H   0  0  0  0  0  0  0  0  0  0  0  0
   21.6885   17.6829   26.0541 H   0  0  0  0  0  0  0  0  0  0  0  0
   21.0238   18.2465   27.5954 H   0  0  0  0  0  0  0  0  0  0  0  0
   19.1277   19.9663   26.5249 N   0  3  0  0  0  0  0  0  0  0  0  0
   18.8668   20.8718   26.1243 H   0  0  0  0  0  0  0  0  0  0  0  0
   19.2615   20.1031   27.5309 H   0  0  0  0  0  0  0  0  0  0  0  0
   18.3324   19.3343   26.4037 H   0  0  0  0  0  0  0  0  0  0  0  0
  1  2  1  0  0  0  0
  1  3  1  0  0  0  0
  1  4  1  0  0  0  0
  1  5  1  0  0  0  0
  5  6  1  0  0  0  0
  5  7  1  0  0  0  0
  5  8  1  0  0  0  0
  8  9  1  0  0  0  0
  8 10  1  0  0  0  0
  8 11  1  0  0  0  0
 11 12  1  0  0  0  0
 11 13  1  0  0  0  0
 11 14  1  0  0  0  0
 14 15  1  0  0  0  0
 14 16  1  0  0  0  0
 14 17  1  0  0  0  0
 17 18  1  0  0  0  0
 17 19  1  0  0  0  0
 17 20  1  0  0  0  0
 20 21  1  0  0  0  0
 20 22  1  0  0  0  0
 22 23  1  0  0  0  0
 22 24  1  0  0  0  0
 22 25  1  0  0  0  0
 20 26  1  0  0  0  0
 26 27  1  0  0  0  0
 26 28  1  0  0  0  0
 26 29  1  0  0  0  0
M  END
> <VM2 Rank>
166

> <Conf_Id>
335

> <Probability>
0.00

> <Sum Probability>
99.96

> <Delta G>
4.792

> <G>
38.494

> <E>
0.552

> <-TS>
37.943

> <U+W>
-23.593

> <U>
28.997

> <W>
-52.589

> <W(PB)>
-55.020

> <W(SA)>
2.431

> <Valence>
7.517

> <Coulomb>
20.090

> <VdW>
1.390

> <VdW6>
-10.733

> <VdW12>
12.123

> <Bond>
0.363

> <Angle>
2.271

> <Pdih>
4.883

> <Idih>
0.000

> <Tether>
0.000

$$$$
VeraChem MOL file


 29 28  0  0  0  0  0  0  0  0999 V2000     
   18.6410   18.9128   19.9402 C   0  0  0  0  0  0  0  0  0  0  0  0
   17.5956   19.0891   19.6554 H   0  0  0  0  0  0  0  0  0  0  0  0
   19.2556   19.0158   19.0365 H   0  0  0  0  0  0  0  0  0  0  0  0
   18.7178   17.8760   20.2890 H   0  0  0  0  0  0  0  0  0  0  0  0
   19.0815   19.9183   21.0287 C   0  0  0  0  0  0  0  0  0  0  0  0
   18.4442   19.8015   21.9137 H   0  0  0  0  0  0  0  0  0  0  0  0
   18.9025   20.9363   20.6554 H   0  0  0  0  0  0  0  0  0  0  0  0
   20.5792   19.7876   21.4080 C   0  0  0  0  0  0  0  0  0  0  0  0
   21.1712   19.8080   20.4827 H   0  0  0  0  0  0  0  0  0  0  0  0
   20.8941   20.6737   21.9760 H   0  0  0  0  0  0  0  0  0  0  0  0
   20.9390   18.5045   22.2056 C   0  0  0  0  0  0  0  0  0  0  0  0
   21.9260   18.1596   21.8677 H   0  0  0  0  0  0  0  0  0  0  0  0
   20.2461   17.6880   21.9674 H   0  0  0  0  0  0  0  0  0  0  0  0
   21.0134   18.6958   23.7426 C   0  0  0  0  0  0  0  0  0  0  0  0
   21.3515   17.7477   24.1791 H   0  0  0  0  0  0  0  0  0  0  0  0
   21.7883   19.4373   23.9811 H   0  0  0  0  0  0  0  0  0  0  0  0
   19.6738   19.1239   24.3940 C   0  0  0  0  0  0  0  0  0  0  0  0
   18.8828   18.4125   24.1225 H   0  0  0  0  0  0  0  0  0  0  0  0
   19.3808   20.0971   23.9822 H   0  0  0  0  0  0  0  0  0  0  0  0
   19.7443   19.2634   25.9321 C   0  0  2  0  0  0  0  0  0  0  0  0
   20.5889   19.9137   26.1800 H   0  0  0  0  0  0  0  0  0  0  0  0
   19.9485   17.9076   26.6322 C   0  0  0  0  0  0  0  0  0  0  0  0
   19.1582   17.1972   26.3594 H   0  0  0  0  0  0  0  0  0  0  0  0
   20.9155   17.4630   26.3713 H   0  0  0  0  0  0  0  0  0  0  0  0
   19.9334   18.0301   27.7222 H   0  0  0  0  0  0  0  0  0  0  0  0
   18.5153   19.9421   26.4705 N   0  3  0  0  0  0  0  0  0  0  0  0
   18.3818   20.8677   26.0530 H   0  0  0  0  0  0  0  0  0  0  0  0
   18.5739   20.0713   27.4847 H   0  0  0  0  0  0  0  0  0  0  0  0
   17.6720   19.3938   26.2807 H   0  0  0  0  0  0  0  0  0  0  0  0
  1  2  1  0  0  0  0
  1  3  1  0  0  0  0
  1  4  1  0  0  0  0
  1  5  1  0  0  0  0
  5  6  1  0  0  0  0
  5  7  1  0  0  0  0
  5  8  1  0  0  0  0
  8  9  1  0  0  0  0
  8 10  1  0  0  0  0
  8 11  1  0  0  0  0
 11 12  1  0  0  0  0
 11 13  1  0  0  0  0
 11 14  1  0  0  0  0
 14 15  1  0  0  0  0
 14 16  1  0  0  0  0
 14 17  1  0  0  0  0
 17 18  1  0  0  0  0
 17 19  1  0  0  0  0
 17 20  1  0  0  0  0
 20 21  1  0  0  0  0
 20 22  1  0  0  0  0
 22 23  1  0  0  0  0
 22 24  1  0  0  0  0
 22 25  1  0  0  0  0
 20 26  1  0  0  0  0
 26 27  1  0  0  0  0
 26 28  1  0  0  0  0
 26 29  1  0  0  0  0
M  END
> <VM2 Rank>
167

> <Conf_Id>
672

> <Probability>
0.00

> <Sum Probability>
99.96

> <Delta G>
4.801

> <G>
38.503

> <E>
0.724

> <-TS>
37.779

> <U+W>
-23.421

> <U>
29.177

> <W>
-52.597

> <W(PB)>
-55.058

> <W(SA)>
2.460

> <Valence>
7.592

> <Coulomb>
20.152

> <VdW>
1.432

> <VdW6>
-10.245

> <VdW12>
11.678

> <Bond>
0.339

> <Angle>
2.240

> <Pdih>
5.013

> <Idih>
0.000

> <Tether>
0.000

$$$$
VeraChem MOL file


 29 28  0  0  0  0  0  0  0  0999 V2000     
   18.9263   20.3917   19.8913 C   0  0  0  0  0  0  0  0  0  0  0  0
   19.8915   20.5730   19.4006 H   0  0  0  0  0  0  0  0  0  0  0  0
   18.1714   20.2482   19.1074 H   0  0  0  0  0  0  0  0  0  0  0  0
   18.6565   21.2921   20.4584 H   0  0  0  0  0  0  0  0  0  0  0  0
   18.9965   19.1557   20.8127 C   0  0  0  0  0  0  0  0  0  0  0  0
   19.2334   18.2664   20.2119 H   0  0  0  0  0  0  0  0  0  0  0  0
   18.0092   18.9804   21.2623 H   0  0  0  0  0  0  0  0  0  0  0  0
   20.0545   19.3312   21.9241 C   0  0  0  0  0  0  0  0  0  0  0  0
   21.0398   19.4984   21.4674 H   0  0  0  0  0  0  0  0  0  0  0  0
   19.8205   20.2326   22.5033 H   0  0  0  0  0  0  0  0  0  0  0  0
   20.1228   18.0943   22.8517 C   0  0  0  0  0  0  0  0  0  0  0  0
   20.3521   17.2106   22.2403 H   0  0  0  0  0  0  0  0  0  0  0  0
   19.1415   17.8942   23.2979 H   0  0  0  0  0  0  0  0  0  0  0  0
   21.2025   18.2073   23.9580 C   0  0  0  0  0  0  0  0  0  0  0  0
   21.2368   17.2629   24.5173 H   0  0  0  0  0  0  0  0  0  0  0  0
   22.1853   18.2907   23.4738 H   0  0  0  0  0  0  0  0  0  0  0  0
   21.0513   19.3929   24.9560 C   0  0  0  0  0  0  0  0  0  0  0  0
   21.1708   20.3452   24.4245 H   0  0  0  0  0  0  0  0  0  0  0  0
   21.8997   19.3477   25.6515 H   0  0  0  0  0  0  0  0  0  0  0  0
   19.7574   19.4445   25.8086 C   0  0  2  0  0  0  0  0  0  0  0  0
   19.9216   20.1939   26.5890 H   0  0  0  0  0  0  0  0  0  0  0  0
   19.4640   18.1084   26.5127 C   0  0  0  0  0  0  0  0  0  0  0  0
   19.1941   17.3234   25.7964 H   0  0  0  0  0  0  0  0  0  0  0  0
   20.3382   17.7693   27.0823 H   0  0  0  0  0  0  0  0  0  0  0  0
   18.6309   18.2205   27.2173 H   0  0  0  0  0  0  0  0  0  0  0  0
   18.5606   19.9301   25.0389 N   0  3  0  0  0  0  0  0  0  0  0  0
   18.7121   20.8729   24.6694 H   0  0  0  0  0  0  0  0  0  0  0  0
   17.7248   19.9634   25.6298 H   0  0  0  0  0  0  0  0  0  0  0  0
   18.3595   19.3164   24.2460 H   0  0  0  0  0  0  0  0  0  0  0  0
  1  2  1  0  0  0  0
  1  3  1  0  0  0  0
  1  4  1  0  0  0  0
  1  5  1  0  0  0  0
  5  6  1  0  0  0  0
  5  7  1  0  0  0  0
  5  8  1  0  0  0  0
  8  9  1  0  0  0  0
  8 10  1  0  0  0  0
  8 11  1  0  0  0  0
 11 12  1  0  0  0  0
 11 13  1  0  0  0  0
 11 14  1  0  0  0  0
 14 15  1  0  0  0  0
 14 16  1  0  0  0  0
 14 17  1  0  0  0  0
 17 18  1  0  0  0  0
 17 19  1  0  0  0  0
 17 20  1  0  0  0  0
 20 21  1  0  0  0  0
 20 22  1  0  0  0  0
 22 23  1  0  0  0  0
 22 24  1  0  0  0  0
 22 25  1  0  0  0  0
 20 26  1  0  0  0  0
 26 27  1  0  0  0  0
 26 28  1  0  0  0  0
 26 29  1  0  0  0  0
M  END
> <VM2 Rank>
168

> <Conf_Id>
282

> <Probability>
0.00

> <Sum Probability>
99.96

> <Delta G>
4.822

> <G>
38.524

> <E>
0.043

> <-TS>
38.480

> <U+W>
-24.101

> <U>
28.029

> <W>
-52.130

> <W(PB)>
-54.543

> <W(SA)>
2.413

> <Valence>
5.578

> <Coulomb>
21.811

> <VdW>
0.640

> <VdW6>
-11.462

> <VdW12>
12.102

> <Bond>
0.349

> <Angle>
2.654

> <Pdih>
2.574

> <Idih>
0.000

> <Tether>
0.000

$$$$
VeraChem MOL file


 29 28  0  0  0  0  0  0  0  0999 V2000     
   20.1154   18.7014   19.4452 C   0  0  0  0  0  0  0  0  0  0  0  0
   19.7859   18.1375   18.5629 H   0  0  0  0  0  0  0  0  0  0  0  0
   20.4649   19.6845   19.1040 H   0  0  0  0  0  0  0  0  0  0  0  0
   20.9676   18.1645   19.8797 H   0  0  0  0  0  0  0  0  0  0  0  0
   18.9573   18.8443   20.4586 C   0  0  0  0  0  0  0  0  0  0  0  0
   18.6484   17.8498   20.8097 H   0  0  0  0  0  0  0  0  0  0  0  0
   18.0866   19.2719   19.9420 H   0  0  0  0  0  0  0  0  0  0  0  0
   19.3049   19.7423   21.6705 C   0  0  0  0  0  0  0  0  0  0  0  0
   19.5952   20.7402   21.3141 H   0  0  0  0  0  0  0  0  0  0  0  0
   18.3930   19.8827   22.2642 H   0  0  0  0  0  0  0  0  0  0  0  0
   20.4299   19.1610   22.5647 C   0  0  0  0  0  0  0  0  0  0  0  0
   21.3537   19.0891   21.9761 H   0  0  0  0  0  0  0  0  0  0  0  0
   20.1733   18.1368   22.8611 H   0  0  0  0  0  0  0  0  0  0  0  0
   20.7249   20.0308   23.8144 C   0  0  0  0  0  0  0  0  0  0  0  0
   21.6986   19.7480   24.2376 H   0  0  0  0  0  0  0  0  0  0  0  0
   20.8399   21.0743   23.4900 H   0  0  0  0  0  0  0  0  0  0  0  0
   19.6406   19.9635   24.9255 C   0  0  0  0  0  0  0  0  0  0  0  0
   18.6571   19.7296   24.5008 H   0  0  0  0  0  0  0  0  0  0  0  0
   19.5465   20.9670   25.3611 H   0  0  0  0  0  0  0  0  0  0  0  0
   19.9596   18.9827   26.0791 C   0  0  2  0  0  0  0  0  0  0  0  0
   20.9256   19.2650   26.5091 H   0  0  0  0  0  0  0  0  0  0  0  0
   20.0517   17.5215   25.6083 C   0  0  0  0  0  0  0  0  0  0  0  0
   20.2019   16.8486   26.4614 H   0  0  0  0  0  0  0  0  0  0  0  0
   19.1364   17.2131   25.0878 H   0  0  0  0  0  0  0  0  0  0  0  0
   20.9022   17.3791   24.9317 H   0  0  0  0  0  0  0  0  0  0  0  0
   18.9518   19.1082   27.1878 N   0  3  0  0  0  0  0  0  0  0  0  0
   19.1834   18.4951   27.9746 H   0  0  0  0  0  0  0  0  0  0  0  0
   18.0125   18.8551   26.8695 H   0  0  0  0  0  0  0  0  0  0  0  0
   18.9070   20.0650   27.5502 H   0  0  0  0  0  0  0  0  0  0  0  0
  1  2  1  0  0  0  0
  1  3  1  0  0  0  0
  1  4  1  0  0  0  0
  1  5  1  0  0  0  0
  5  6  1  0  0  0  0
  5  7  1  0  0  0  0
  5  8  1  0  0  0  0
  8  9  1  0  0  0  0
  8 10  1  0  0  0  0
  8 11  1  0  0  0  0
 11 12  1  0  0  0  0
 11 13  1  0  0  0  0
 11 14  1  0  0  0  0
 14 15  1  0  0  0  0
 14 16  1  0  0  0  0
 14 17  1  0  0  0  0
 17 18  1  0  0  0  0
 17 19  1  0  0  0  0
 17 20  1  0  0  0  0
 20 21  1  0  0  0  0
 20 22  1  0  0  0  0
 22 23  1  0  0  0  0
 22 24  1  0  0  0  0
 22 25  1  0  0  0  0
 20 26  1  0  0  0  0
 26 27  1  0  0  0  0
 26 28  1  0  0  0  0
 26 29  1  0  0  0  0
M  END
> <VM2 Rank>
169

> <Conf_Id>
1324

> <Probability>
0.00

> <Sum Probability>
99.97

> <Delta G>
4.841

> <G>
38.543

> <E>
0.671

> <-TS>
37.872

> <U+W>
-23.474

> <U>
28.780

> <W>
-52.254

> <W(PB)>
-54.715

> <W(SA)>
2.461

> <Valence>
7.565

> <Coulomb>
19.822

> <VdW>
1.393

> <VdW6>
-10.248

> <VdW12>
11.641

> <Bond>
0.340

> <Angle>
2.097

> <Pdih>
5.128

> <Idih>
0.000

> <Tether>
0.000

$$$$
VeraChem MOL file


 29 28  0  0  0  0  0  0  0  0999 V2000     
   19.0430   18.9011   19.5359 C   0  0  0  0  0  0  0  0  0  0  0  0
   18.9543   19.9572   19.2496 H   0  0  0  0  0  0  0  0  0  0  0  0
   19.0777   18.3053   18.6147 H   0  0  0  0  0  0  0  0  0  0  0  0
   18.1344   18.6141   20.0795 H   0  0  0  0  0  0  0  0  0  0  0  0
   20.3126   18.6599   20.3837 C   0  0  0  0  0  0  0  0  0  0  0  0
   21.1961   18.8400   19.7554 H   0  0  0  0  0  0  0  0  0  0  0  0
   20.3604   17.6044   20.6858 H   0  0  0  0  0  0  0  0  0  0  0  0
   20.4012   19.5669   21.6349 C   0  0  0  0  0  0  0  0  0  0  0  0
   21.3839   19.4132   22.0978 H   0  0  0  0  0  0  0  0  0  0  0  0
   20.3694   20.6205   21.3252 H   0  0  0  0  0  0  0  0  0  0  0  0
   19.2821   19.2949   22.6728 C   0  0  0  0  0  0  0  0  0  0  0  0
   19.2694   18.2297   22.9315 H   0  0  0  0  0  0  0  0  0  0  0  0
   18.3090   19.5099   22.2126 H   0  0  0  0  0  0  0  0  0  0  0  0
   19.4073   20.1654   23.9506 C   0  0  0  0  0  0  0  0  0  0  0  0
   19.5439   21.2107   23.6410 H   0  0  0  0  0  0  0  0  0  0  0  0
   18.4545   20.1469   24.4949 H   0  0  0  0  0  0  0  0  0  0  0  0
   20.5715   19.7698   24.9054 C   0  0  0  0  0  0  0  0  0  0  0  0
   20.9740   20.6875   25.3538 H   0  0  0  0  0  0  0  0  0  0  0  0
   21.4050   19.3379   24.3394 H   0  0  0  0  0  0  0  0  0  0  0  0
   20.2015   18.8117   26.0647 C   0  0  2  0  0  0  0  0  0  0  0  0
   21.1182   18.6266   26.6331 H   0  0  0  0  0  0  0  0  0  0  0  0
   19.6819   17.4516   25.5717 C   0  0  0  0  0  0  0  0  0  0  0  0
   18.7010   17.5465   25.0910 H   0  0  0  0  0  0  0  0  0  0  0  0
   20.3805   17.0039   24.8541 H   0  0  0  0  0  0  0  0  0  0  0  0
   19.5760   16.7546   26.4120 H   0  0  0  0  0  0  0  0  0  0  0  0
   19.2349   19.4347   27.0345 N   0  3  0  0  0  0  0  0  0  0  0  0
   19.5963   20.3159   27.4109 H   0  0  0  0  0  0  0  0  0  0  0  0
   19.0510   18.8152   27.8288 H   0  0  0  0  0  0  0  0  0  0  0  0
   18.3371   19.6358   26.5876 H   0  0  0  0  0  0  0  0  0  0  0  0
  1  2  1  0  0  0  0
  1  3  1  0  0  0  0
  1  4  1  0  0  0  0
  1  5  1  0  0  0  0
  5  6  1  0  0  0  0
  5  7  1  0  0  0  0
  5  8  1  0  0  0  0
  8  9  1  0  0  0  0
  8 10  1  0  0  0  0
  8 11  1  0  0  0  0
 11 12  1  0  0  0  0
 11 13  1  0  0  0  0
 11 14  1  0  0  0  0
 14 15  1  0  0  0  0
 14 16  1  0  0  0  0
 14 17  1  0  0  0  0
 17 18  1  0  0  0  0
 17 19  1  0  0  0  0
 17 20  1  0  0  0  0
 20 21  1  0  0  0  0
 20 22  1  0  0  0  0
 22 23  1  0  0  0  0
 22 24  1  0  0  0  0
 22 25  1  0  0  0  0
 20 26  1  0  0  0  0
 26 27  1  0  0  0  0
 26 28  1  0  0  0  0
 26 29  1  0  0  0  0
M  END
> <VM2 Rank>
170

> <Conf_Id>
1197

> <Probability>
0.00

> <Sum Probability>
99.97

> <Delta G>
4.851

> <G>
38.553

> <E>
0.643

> <-TS>
37.910

> <U+W>
-23.502

> <U>
28.852

> <W>
-52.354

> <W(PB)>
-54.783

> <W(SA)>
2.429

> <Valence>
7.578

> <Coulomb>
19.889

> <VdW>
1.385

> <VdW6>
-10.700

> <VdW12>
12.085

> <Bond>
0.383

> <Angle>
2.314

> <Pdih>
4.882

> <Idih>
0.000

> <Tether>
0.000

$$$$
VeraChem MOL file


 29 28  0  0  0  0  0  0  0  0999 V2000     
   21.4189   19.5201   21.3839 C   0  0  0  0  0  0  0  0  0  0  0  0
   21.4515   20.4980   20.8864 H   0  0  0  0  0  0  0  0  0  0  0  0
   21.4413   19.6875   22.4668 H   0  0  0  0  0  0  0  0  0  0  0  0
   22.3326   18.9754   21.1138 H   0  0  0  0  0  0  0  0  0  0  0  0
   20.1663   18.7230   20.9541 C   0  0  0  0  0  0  0  0  0  0  0  0
   20.1491   17.7434   21.4472 H   0  0  0  0  0  0  0  0  0  0  0  0
   20.2407   18.5097   19.8787 H   0  0  0  0  0  0  0  0  0  0  0  0
   18.8382   19.4760   21.2111 C   0  0  0  0  0  0  0  0  0  0  0  0
   18.8366   20.3928   20.6056 H   0  0  0  0  0  0  0  0  0  0  0  0
   18.0078   18.8671   20.8281 H   0  0  0  0  0  0  0  0  0  0  0  0
   18.5401   19.8626   22.6850 C   0  0  0  0  0  0  0  0  0  0  0  0
   17.6107   20.4487   22.6780 H   0  0  0  0  0  0  0  0  0  0  0  0
   19.3050   20.5507   23.0636 H   0  0  0  0  0  0  0  0  0  0  0  0
   18.3266   18.6625   23.6492 C   0  0  0  0  0  0  0  0  0  0  0  0
   17.5796   18.9489   24.4013 H   0  0  0  0  0  0  0  0  0  0  0  0
   17.8723   17.8277   23.0982 H   0  0  0  0  0  0  0  0  0  0  0  0
   19.5980   18.1599   24.3869 C   0  0  0  0  0  0  0  0  0  0  0  0
   20.3200   17.7718   23.6610 H   0  0  0  0  0  0  0  0  0  0  0  0
   19.3220   17.3043   25.0174 H   0  0  0  0  0  0  0  0  0  0  0  0
   20.2922   19.2260   25.2646 C   0  0  2  0  0  0  0  0  0  0  0  0
   20.5755   20.0691   24.6287 H   0  0  0  0  0  0  0  0  0  0  0  0
   21.5729   18.6512   25.8899 C   0  0  0  0  0  0  0  0  0  0  0  0
   21.3475   17.8017   26.5468 H   0  0  0  0  0  0  0  0  0  0  0  0
   22.2657   18.3071   25.1118 H   0  0  0  0  0  0  0  0  0  0  0  0
   22.0914   19.4141   26.4834 H   0  0  0  0  0  0  0  0  0  0  0  0
   19.3828   19.7748   26.3293 N   0  3  0  0  0  0  0  0  0  0  0  0
   19.8502   20.4952   26.8870 H   0  0  0  0  0  0  0  0  0  0  0  0
   19.0755   19.0399   26.9719 H   0  0  0  0  0  0  0  0  0  0  0  0
   18.5453   20.1974   25.9197 H   0  0  0  0  0  0  0  0  0  0  0  0
  1  2  1  0  0  0  0
  1  3  1  0  0  0  0
  1  4  1  0  0  0  0
  1  5  1  0  0  0  0
  5  6  1  0  0  0  0
  5  7  1  0  0  0  0
  5  8  1  0  0  0  0
  8  9  1  0  0  0  0
  8 10  1  0  0  0  0
  8 11  1  0  0  0  0
 11 12  1  0  0  0  0
 11 13  1  0  0  0  0
 11 14  1  0  0  0  0
 14 15  1  0  0  0  0
 14 16  1  0  0  0  0
 14 17  1  0  0  0  0
 17 18  1  0  0  0  0
 17 19  1  0  0  0  0
 17 20  1  0  0  0  0
 20 21  1  0  0  0  0
 20 22  1  0  0  0  0
 22 23  1  0  0  0  0
 22 24  1  0  0  0  0
 22 25  1  0  0  0  0
 20 26  1  0  0  0  0
 26 27  1  0  0  0  0
 26 28  1  0  0  0  0
 26 29  1  0  0  0  0
M  END
> <VM2 Rank>
171

> <Conf_Id>
271

> <Probability>
0.00

> <Sum Probability>
99.97

> <Delta G>
4.894

> <G>
38.596

> <E>
0.018

> <-TS>
38.577

> <U+W>
-24.126

> <U>
28.539

> <W>
-52.665

> <W(PB)>
-55.022

> <W(SA)>
2.357

> <Valence>
7.210

> <Coulomb>
20.792

> <VdW>
0.537

> <VdW6>
-12.023

> <VdW12>
12.561

> <Bond>
0.379

> <Angle>
2.779

> <Pdih>
4.051

> <Idih>
0.000

> <Tether>
0.000

$$$$
VeraChem MOL file


 29 28  0  0  0  0  0  0  0  0999 V2000     
   20.5478   20.4445   20.7001 C   0  0  0  0  0  0  0  0  0  0  0  0
   20.5805   21.5377   20.6075 H   0  0  0  0  0  0  0  0  0  0  0  0
   21.3148   20.1498   21.4262 H   0  0  0  0  0  0  0  0  0  0  0  0
   20.8191   20.0171   19.7262 H   0  0  0  0  0  0  0  0  0  0  0  0
   19.1388   19.9795   21.1338 C   0  0  0  0  0  0  0  0  0  0  0  0
   18.4072   20.3603   20.4076 H   0  0  0  0  0  0  0  0  0  0  0  0
   18.8658   20.4330   22.0949 H   0  0  0  0  0  0  0  0  0  0  0  0
   18.9989   18.4395   21.2083 C   0  0  0  0  0  0  0  0  0  0  0  0
   17.9497   18.1902   21.4181 H   0  0  0  0  0  0  0  0  0  0  0  0
   19.2100   18.0208   20.2148 H   0  0  0  0  0  0  0  0  0  0  0  0
   19.9018   17.7233   22.2487 C   0  0  0  0  0  0  0  0  0  0  0  0
   20.9634   17.8901   22.0239 H   0  0  0  0  0  0  0  0  0  0  0  0
   19.7462   16.6430   22.1218 H   0  0  0  0  0  0  0  0  0  0  0  0
   19.5936   18.0753   23.7279 C   0  0  0  0  0  0  0  0  0  0  0  0
   18.5345   18.3450   23.8315 H   0  0  0  0  0  0  0  0  0  0  0  0
   19.7363   17.1655   24.3255 H   0  0  0  0  0  0  0  0  0  0  0  0
   20.5077   19.1924   24.3027 C   0  0  0  0  0  0  0  0  0  0  0  0
   20.4387   20.0915   23.6819 H   0  0  0  0  0  0  0  0  0  0  0  0
   21.5547   18.8675   24.2414 H   0  0  0  0  0  0  0  0  0  0  0  0
   20.1997   19.5960   25.7638 C   0  0  2  0  0  0  0  0  0  0  0  0
   20.8933   20.3990   26.0320 H   0  0  0  0  0  0  0  0  0  0  0  0
   20.4296   18.4360   26.7482 C   0  0  0  0  0  0  0  0  0  0  0  0
   19.6991   17.6310   26.6047 H   0  0  0  0  0  0  0  0  0  0  0  0
   21.4351   18.0146   26.6263 H   0  0  0  0  0  0  0  0  0  0  0  0
   20.3399   18.7883   27.7831 H   0  0  0  0  0  0  0  0  0  0  0  0
   18.8183   20.1694   25.9204 N   0  3  0  0  0  0  0  0  0  0  0  0
   18.6734   20.9736   25.3033 H   0  0  0  0  0  0  0  0  0  0  0  0
   18.6515   20.4855   26.8801 H   0  0  0  0  0  0  0  0  0  0  0  0
   18.1013   19.4749   25.6968 H   0  0  0  0  0  0  0  0  0  0  0  0
  1  2  1  0  0  0  0
  1  3  1  0  0  0  0
  1  4  1  0  0  0  0
  1  5  1  0  0  0  0
  5  6  1  0  0  0  0
  5  7  1  0  0  0  0
  5  8  1  0  0  0  0
  8  9  1  0  0  0  0
  8 10  1  0  0  0  0
  8 11  1  0  0  0  0
 11 12  1  0  0  0  0
 11 13  1  0  0  0  0
 11 14  1  0  0  0  0
 14 15  1  0  0  0  0
 14 16  1  0  0  0  0
 14 17  1  0  0  0  0
 17 18  1  0  0  0  0
 17 19  1  0  0  0  0
 17 20  1  0  0  0  0
 20 21  1  0  0  0  0
 20 22  1  0  0  0  0
 22 23  1  0  0  0  0
 22 24  1  0  0  0  0
 22 25  1  0  0  0  0
 20 26  1  0  0  0  0
 26 27  1  0  0  0  0
 26 28  1  0  0  0  0
 26 29  1  0  0  0  0
M  END
> <VM2 Rank>
172

> <Conf_Id>
1009

> <Probability>
0.00

> <Sum Probability>
99.97

> <Delta G>
4.934

> <G>
38.636

> <E>
0.284

> <-TS>
38.352

> <U+W>
-23.860

> <U>
28.974

> <W>
-52.835

> <W(PB)>
-55.218

> <W(SA)>
2.383

> <Valence>
7.347

> <Coulomb>
20.626

> <VdW>
1.002

> <VdW6>
-11.327

> <VdW12>
12.329

> <Bond>
0.364

> <Angle>
2.515

> <Pdih>
4.468

> <Idih>
0.000

> <Tether>
0.000

$$$$
VeraChem MOL file


 29 28  0  0  0  0  0  0  0  0999 V2000     
   18.3967   19.6217   20.7609 C   0  0  0  0  0  0  0  0  0  0  0  0
   18.1119   20.5941   21.1830 H   0  0  0  0  0  0  0  0  0  0  0  0
   17.8968   19.5220   19.7889 H   0  0  0  0  0  0  0  0  0  0  0  0
   18.0008   18.8366   21.4131 H   0  0  0  0  0  0  0  0  0  0  0  0
   19.9297   19.5188   20.5894 C   0  0  0  0  0  0  0  0  0  0  0  0
   20.2331   20.2668   19.8435 H   0  0  0  0  0  0  0  0  0  0  0  0
   20.2000   18.5425   20.1640 H   0  0  0  0  0  0  0  0  0  0  0  0
   20.7309   19.7798   21.8915 C   0  0  0  0  0  0  0  0  0  0  0  0
   21.6906   20.2311   21.6040 H   0  0  0  0  0  0  0  0  0  0  0  0
   20.2293   20.5376   22.5072 H   0  0  0  0  0  0  0  0  0  0  0  0
   21.0582   18.5127   22.7270 C   0  0  0  0  0  0  0  0  0  0  0  0
   21.7763   18.7884   23.5108 H   0  0  0  0  0  0  0  0  0  0  0  0
   21.5893   17.7939   22.0880 H   0  0  0  0  0  0  0  0  0  0  0  0
   19.8501   17.7953   23.3830 C   0  0  0  0  0  0  0  0  0  0  0  0
   19.2064   17.3740   22.6012 H   0  0  0  0  0  0  0  0  0  0  0  0
   20.2203   16.9259   23.9422 H   0  0  0  0  0  0  0  0  0  0  0  0
   18.9997   18.6862   24.3286 C   0  0  0  0  0  0  0  0  0  0  0  0
   18.2070   18.0737   24.7779 H   0  0  0  0  0  0  0  0  0  0  0  0
   18.4857   19.4489   23.7313 H   0  0  0  0  0  0  0  0  0  0  0  0
   19.7980   19.3913   25.4497 C   0  0  2  0  0  0  0  0  0  0  0  0
   20.5942   19.9814   24.9863 H   0  0  0  0  0  0  0  0  0  0  0  0
   20.4388   18.3853   26.4222 C   0  0  0  0  0  0  0  0  0  0  0  0
   19.6807   17.7358   26.8773 H   0  0  0  0  0  0  0  0  0  0  0  0
   21.1728   17.7508   25.9120 H   0  0  0  0  0  0  0  0  0  0  0  0
   20.9665   18.9095   27.2285 H   0  0  0  0  0  0  0  0  0  0  0  0
   18.9338   20.3649   26.2016 N   0  3  0  0  0  0  0  0  0  0  0  0
   18.1588   19.8901   26.6722 H   0  0  0  0  0  0  0  0  0  0  0  0
   18.5302   21.0705   25.5788 H   0  0  0  0  0  0  0  0  0  0  0  0
   19.4685   20.8620   26.9198 H   0  0  0  0  0  0  0  0  0  0  0  0
  1  2  1  0  0  0  0
  1  3  1  0  0  0  0
  1  4  1  0  0  0  0
  1  5  1  0  0  0  0
  5  6  1  0  0  0  0
  5  7  1  0  0  0  0
  5  8  1  0  0  0  0
  8  9  1  0  0  0  0
  8 10  1  0  0  0  0
  8 11  1  0  0  0  0
 11 12  1  0  0  0  0
 11 13  1  0  0  0  0
 11 14  1  0  0  0  0
 14 15  1  0  0  0  0
 14 16  1  0  0  0  0
 14 17  1  0  0  0  0
 17 18  1  0  0  0  0
 17 19  1  0  0  0  0
 17 20  1  0  0  0  0
 20 21  1  0  0  0  0
 20 22  1  0  0  0  0
 22 23  1  0  0  0  0
 22 24  1  0  0  0  0
 22 25  1  0  0  0  0
 20 26  1  0  0  0  0
 26 27  1  0  0  0  0
 26 28  1  0  0  0  0
 26 29  1  0  0  0  0
M  END
> <VM2 Rank>
173

> <Conf_Id>
928

> <Probability>
0.00

> <Sum Probability>
99.98

> <Delta G>
4.980

> <G>
38.683

> <E>
0.090

> <-TS>
38.593

> <U+W>
-24.055

> <U>
28.921

> <W>
-52.976

> <W(PB)>
-55.346

> <W(SA)>
2.370

> <Valence>
7.503

> <Coulomb>
20.758

> <VdW>
0.659

> <VdW6>
-12.103

> <VdW12>
12.762

> <Bond>
0.368

> <Angle>
2.905

> <Pdih>
4.231

> <Idih>
0.000

> <Tether>
0.000

$$$$
VeraChem MOL file


 29 28  0  0  0  0  0  0  0  0999 V2000     
   20.8470   20.5730   21.2840 C   0  0  0  0  0  0  0  0  0  0  0  0
   20.4364   21.1192   22.1413 H   0  0  0  0  0  0  0  0  0  0  0  0
   21.9085   20.8403   21.2027 H   0  0  0  0  0  0  0  0  0  0  0  0
   20.3422   20.9291   20.3767 H   0  0  0  0  0  0  0  0  0  0  0  0
   20.6871   19.0437   21.4439 C   0  0  0  0  0  0  0  0  0  0  0  0
   21.1898   18.7141   22.3593 H   0  0  0  0  0  0  0  0  0  0  0  0
   21.2225   18.5528   20.6193 H   0  0  0  0  0  0  0  0  0  0  0  0
   19.2111   18.5672   21.4141 C   0  0  0  0  0  0  0  0  0  0  0  0
   18.7707   18.9030   20.4651 H   0  0  0  0  0  0  0  0  0  0  0  0
   19.1822   17.4696   21.3773 H   0  0  0  0  0  0  0  0  0  0  0  0
   18.3069   19.0675   22.5746 C   0  0  0  0  0  0  0  0  0  0  0  0
   17.2787   19.1176   22.1903 H   0  0  0  0  0  0  0  0  0  0  0  0
   18.5539   20.0983   22.8533 H   0  0  0  0  0  0  0  0  0  0  0  0
   18.2746   18.1511   23.8280 C   0  0  0  0  0  0  0  0  0  0  0  0
   17.5051   18.5278   24.5151 H   0  0  0  0  0  0  0  0  0  0  0  0
   17.9338   17.1501   23.5298 H   0  0  0  0  0  0  0  0  0  0  0  0
   19.6117   18.0111   24.5997 C   0  0  0  0  0  0  0  0  0  0  0  0
   20.3217   17.4427   23.9871 H   0  0  0  0  0  0  0  0  0  0  0  0
   19.4413   17.4007   25.4964 H   0  0  0  0  0  0  0  0  0  0  0  0
   20.2426   19.3584   25.0153 C   0  0  2  0  0  0  0  0  0  0  0  0
   20.3938   19.9594   24.1141 H   0  0  0  0  0  0  0  0  0  0  0  0
   21.6116   19.1294   25.6740 C   0  0  0  0  0  0  0  0  0  0  0  0
   21.5167   18.5323   26.5896 H   0  0  0  0  0  0  0  0  0  0  0  0
   22.2894   18.6024   24.9910 H   0  0  0  0  0  0  0  0  0  0  0  0
   22.0809   20.0856   25.9364 H   0  0  0  0  0  0  0  0  0  0  0  0
   19.3434   20.1546   25.9204 N   0  3  0  0  0  0  0  0  0  0  0  0
   19.1615   19.6566   26.7958 H   0  0  0  0  0  0  0  0  0  0  0  0
   18.4396   20.3385   25.4765 H   0  0  0  0  0  0  0  0  0  0  0  0
   19.7591   21.0587   26.1619 H   0  0  0  0  0  0  0  0  0  0  0  0
  1  2  1  0  0  0  0
  1  3  1  0  0  0  0
  1  4  1  0  0  0  0
  1  5  1  0  0  0  0
  5  6  1  0  0  0  0
  5  7  1  0  0  0  0
  5  8  1  0  0  0  0
  8  9  1  0  0  0  0
  8 10  1  0  0  0  0
  8 11  1  0  0  0  0
 11 12  1  0  0  0  0
 11 13  1  0  0  0  0
 11 14  1  0  0  0  0
 14 15  1  0  0  0  0
 14 16  1  0  0  0  0
 14 17  1  0  0  0  0
 17 18  1  0  0  0  0
 17 19  1  0  0  0  0
 17 20  1  0  0  0  0
 20 21  1  0  0  0  0
 20 22  1  0  0  0  0
 22 23  1  0  0  0  0
 22 24  1  0  0  0  0
 22 25  1  0  0  0  0
 20 26  1  0  0  0  0
 26 27  1  0  0  0  0
 26 28  1  0  0  0  0
 26 29  1  0  0  0  0
M  END
> <VM2 Rank>
174

> <Conf_Id>
1690

> <Probability>
0.00

> <Sum Probability>
99.98

> <Delta G>
4.992

> <G>
38.694

> <E>
0.027

> <-TS>
38.667

> <U+W>
-24.117

> <U>
28.386

> <W>
-52.504

> <W(PB)>
-54.863

> <W(SA)>
2.359

> <Valence>
7.169

> <Coulomb>
20.924

> <VdW>
0.293

> <VdW6>
-12.436

> <VdW12>
12.730

> <Bond>
0.372

> <Angle>
2.823

> <Pdih>
3.975

> <Idih>
0.000

> <Tether>
0.000

$$$$
VeraChem MOL file


 29 28  0  0  0  0  0  0  0  0999 V2000     
   19.6485   20.4690   19.8922 C   0  0  0  0  0  0  0  0  0  0  0  0
   19.7015   21.4327   20.4153 H   0  0  0  0  0  0  0  0  0  0  0  0
   20.3647   20.4968   19.0608 H   0  0  0  0  0  0  0  0  0  0  0  0
   18.6419   20.3656   19.4664 H   0  0  0  0  0  0  0  0  0  0  0  0
   19.9693   19.3009   20.8485 C   0  0  0  0  0  0  0  0  0  0  0  0
   20.9951   19.4180   21.2224 H   0  0  0  0  0  0  0  0  0  0  0  0
   19.9386   18.3543   20.2913 H   0  0  0  0  0  0  0  0  0  0  0  0
   18.9746   19.2434   22.0313 C   0  0  0  0  0  0  0  0  0  0  0  0
   19.0351   20.1767   22.6041 H   0  0  0  0  0  0  0  0  0  0  0  0
   17.9516   19.1975   21.6330 H   0  0  0  0  0  0  0  0  0  0  0  0
   19.1918   18.0216   22.9617 C   0  0  0  0  0  0  0  0  0  0  0  0
   19.0564   17.1053   22.3705 H   0  0  0  0  0  0  0  0  0  0  0  0
   18.3995   17.9917   23.7192 H   0  0  0  0  0  0  0  0  0  0  0  0
   20.5790   17.9540   23.6543 C   0  0  0  0  0  0  0  0  0  0  0  0
   20.6235   17.0447   24.2679 H   0  0  0  0  0  0  0  0  0  0  0  0
   21.3497   17.8096   22.8860 H   0  0  0  0  0  0  0  0  0  0  0  0
   20.9784   19.1841   24.5209 C   0  0  0  0  0  0  0  0  0  0  0  0
   21.0393   20.0800   23.8904 H   0  0  0  0  0  0  0  0  0  0  0  0
   22.0032   19.0167   24.8774 H   0  0  0  0  0  0  0  0  0  0  0  0
   20.1034   19.4922   25.7633 C   0  0  2  0  0  0  0  0  0  0  0  0
   20.6426   20.2404   26.3525 H   0  0  0  0  0  0  0  0  0  0  0  0
   19.9039   18.2596   26.6620 C   0  0  0  0  0  0  0  0  0  0  0  0
   20.8685   17.8021   26.9147 H   0  0  0  0  0  0  0  0  0  0  0  0
   19.4144   18.5446   27.6013 H   0  0  0  0  0  0  0  0  0  0  0  0
   19.2791   17.5011   26.1755 H   0  0  0  0  0  0  0  0  0  0  0  0
   18.7872   20.1313   25.4197 N   0  3  0  0  0  0  0  0  0  0  0  0
   18.2230   19.5158   24.8296 H   0  0  0  0  0  0  0  0  0  0  0  0
   18.9203   21.0108   24.9129 H   0  0  0  0  0  0  0  0  0  0  0  0
   18.2433   20.3418   26.2615 H   0  0  0  0  0  0  0  0  0  0  0  0
  1  2  1  0  0  0  0
  1  3  1  0  0  0  0
  1  4  1  0  0  0  0
  1  5  1  0  0  0  0
  5  6  1  0  0  0  0
  5  7  1  0  0  0  0
  5  8  1  0  0  0  0
  8  9  1  0  0  0  0
  8 10  1  0  0  0  0
  8 11  1  0  0  0  0
 11 12  1  0  0  0  0
 11 13  1  0  0  0  0
 11 14  1  0  0  0  0
 14 15  1  0  0  0  0
 14 16  1  0  0  0  0
 14 17  1  0  0  0  0
 17 18  1  0  0  0  0
 17 19  1  0  0  0  0
 17 20  1  0  0  0  0
 20 21  1  0  0  0  0
 20 22  1  0  0  0  0
 22 23  1  0  0  0  0
 22 24  1  0  0  0  0
 22 25  1  0  0  0  0
 20 26  1  0  0  0  0
 26 27  1  0  0  0  0
 26 28  1  0  0  0  0
 26 29  1  0  0  0  0
M  END
> <VM2 Rank>
175

> <Conf_Id>
1347

> <Probability>
0.00

> <Sum Probability>
99.98

> <Delta G>
5.045

> <G>
38.747

> <E>
0.098

> <-TS>
38.649

> <U+W>
-24.046

> <U>
28.518

> <W>
-52.564

> <W(PB)>
-54.941

> <W(SA)>
2.376

> <Valence>
6.049

> <Coulomb>
21.789

> <VdW>
0.681

> <VdW6>
-12.165

> <VdW12>
12.846

> <Bond>
0.399

> <Angle>
2.965

> <Pdih>
2.685

> <Idih>
0.000

> <Tether>
0.000

$$$$
VeraChem MOL file


 29 28  0  0  0  0  0  0  0  0999 V2000     
   20.3034   19.0104   19.9002 C   0  0  0  0  0  0  0  0  0  0  0  0
   19.7747   18.0658   20.0787 H   0  0  0  0  0  0  0  0  0  0  0  0
   19.6393   19.6767   19.3346 H   0  0  0  0  0  0  0  0  0  0  0  0
   21.1729   18.7870   19.2686 H   0  0  0  0  0  0  0  0  0  0  0  0
   20.7519   19.6662   21.2255 C   0  0  0  0  0  0  0  0  0  0  0  0
   21.3892   20.5304   20.9918 H   0  0  0  0  0  0  0  0  0  0  0  0
   21.3892   18.9683   21.7825 H   0  0  0  0  0  0  0  0  0  0  0  0
   19.5724   20.1521   22.1077 C   0  0  0  0  0  0  0  0  0  0  0  0
   19.9766   20.6523   22.9947 H   0  0  0  0  0  0  0  0  0  0  0  0
   19.0290   20.9320   21.5568 H   0  0  0  0  0  0  0  0  0  0  0  0
   18.5536   19.0562   22.5269 C   0  0  0  0  0  0  0  0  0  0  0  0
   18.1162   18.6221   21.6185 H   0  0  0  0  0  0  0  0  0  0  0  0
   17.7104   19.5293   23.0484 H   0  0  0  0  0  0  0  0  0  0  0  0
   19.1168   17.9043   23.4042 C   0  0  0  0  0  0  0  0  0  0  0  0
   18.5162   17.0078   23.1976 H   0  0  0  0  0  0  0  0  0  0  0  0
   20.1361   17.6359   23.1042 H   0  0  0  0  0  0  0  0  0  0  0  0
   19.0393   18.1585   24.9343 C   0  0  0  0  0  0  0  0  0  0  0  0
   19.3537   17.2470   25.4598 H   0  0  0  0  0  0  0  0  0  0  0  0
   17.9861   18.3116   25.2042 H   0  0  0  0  0  0  0  0  0  0  0  0
   19.8640   19.3520   25.4660 C   0  0  2  0  0  0  0  0  0  0  0  0
   19.5617   20.2508   24.9229 H   0  0  0  0  0  0  0  0  0  0  0  0
   21.3759   19.1380   25.2754 C   0  0  0  0  0  0  0  0  0  0  0  0
   21.9404   19.9876   25.6787 H   0  0  0  0  0  0  0  0  0  0  0  0
   21.7149   18.2296   25.7888 H   0  0  0  0  0  0  0  0  0  0  0  0
   21.6362   19.0474   24.2155 H   0  0  0  0  0  0  0  0  0  0  0  0
   19.5586   19.6183   26.9138 N   0  3  0  0  0  0  0  0  0  0  0  0
   19.8130   18.8203   27.5022 H   0  0  0  0  0  0  0  0  0  0  0  0
   18.5624   19.8042   27.0612 H   0  0  0  0  0  0  0  0  0  0  0  0
   20.0751   20.4312   27.2617 H   0  0  0  0  0  0  0  0  0  0  0  0
  1  2  1  0  0  0  0
  1  3  1  0  0  0  0
  1  4  1  0  0  0  0
  1  5  1  0  0  0  0
  5  6  1  0  0  0  0
  5  7  1  0  0  0  0
  5  8  1  0  0  0  0
  8  9  1  0  0  0  0
  8 10  1  0  0  0  0
  8 11  1  0  0  0  0
 11 12  1  0  0  0  0
 11 13  1  0  0  0  0
 11 14  1  0  0  0  0
 14 15  1  0  0  0  0
 14 16  1  0  0  0  0
 14 17  1  0  0  0  0
 17 18  1  0  0  0  0
 17 19  1  0  0  0  0
 17 20  1  0  0  0  0
 20 21  1  0  0  0  0
 20 22  1  0  0  0  0
 22 23  1  0  0  0  0
 22 24  1  0  0  0  0
 22 25  1  0  0  0  0
 20 26  1  0  0  0  0
 26 27  1  0  0  0  0
 26 28  1  0  0  0  0
 26 29  1  0  0  0  0
M  END
> <VM2 Rank>
176

> <Conf_Id>
1641

> <Probability>
0.00

> <Sum Probability>
99.98

> <Delta G>
5.153

> <G>
38.855

> <E>
0.194

> <-TS>
38.661

> <U+W>
-23.950

> <U>
28.821

> <W>
-52.772

> <W(PB)>
-55.141

> <W(SA)>
2.370

> <Valence>
7.656

> <Coulomb>
20.424

> <VdW>
0.741

> <VdW6>
-11.946

> <VdW12>
12.687

> <Bond>
0.394

> <Angle>
3.130

> <Pdih>
4.132

> <Idih>
0.000

> <Tether>
0.000

$$$$
VeraChem MOL file


 29 28  0  0  0  0  0  0  0  0999 V2000     
   19.9305   19.2160   19.7927 C   0  0  0  0  0  0  0  0  0  0  0  0
   19.4518   20.1069   19.3662 H   0  0  0  0  0  0  0  0  0  0  0  0
   20.9479   19.4865   20.1014 H   0  0  0  0  0  0  0  0  0  0  0  0
   20.0153   18.4658   18.9960 H   0  0  0  0  0  0  0  0  0  0  0  0
   19.1092   18.6577   20.9767 C   0  0  0  0  0  0  0  0  0  0  0  0
   19.6162   17.7789   21.3969 H   0  0  0  0  0  0  0  0  0  0  0  0
   18.1436   18.2958   20.5970 H   0  0  0  0  0  0  0  0  0  0  0  0
   18.8417   19.7043   22.0879 C   0  0  0  0  0  0  0  0  0  0  0  0
   18.2564   20.5303   21.6611 H   0  0  0  0  0  0  0  0  0  0  0  0
   18.1974   19.2496   22.8506 H   0  0  0  0  0  0  0  0  0  0  0  0
   20.1138   20.2918   22.7570 C   0  0  0  0  0  0  0  0  0  0  0  0
   19.8218   21.0343   23.5090 H   0  0  0  0  0  0  0  0  0  0  0  0
   20.6774   20.8641   22.0083 H   0  0  0  0  0  0  0  0  0  0  0  0
   21.0687   19.2474   23.3946 C   0  0  0  0  0  0  0  0  0  0  0  0
   21.5087   18.6397   22.5928 H   0  0  0  0  0  0  0  0  0  0  0  0
   21.9144   19.7784   23.8528 H   0  0  0  0  0  0  0  0  0  0  0  0
   20.4481   18.2906   24.4496 C   0  0  0  0  0  0  0  0  0  0  0  0
   21.2150   17.5423   24.6901 H   0  0  0  0  0  0  0  0  0  0  0  0
   19.6114   17.7255   24.0204 H   0  0  0  0  0  0  0  0  0  0  0  0
   20.0115   18.9763   25.7658 C   0  0  2  0  0  0  0  0  0  0  0  0
   20.7806   19.7027   26.0457 H   0  0  0  0  0  0  0  0  0  0  0  0
   19.8938   17.9401   26.8956 C   0  0  0  0  0  0  0  0  0  0  0  0
   19.6033   18.4229   27.8369 H   0  0  0  0  0  0  0  0  0  0  0  0
   19.1431   17.1763   26.6567 H   0  0  0  0  0  0  0  0  0  0  0  0
   20.8532   17.4355   27.0650 H   0  0  0  0  0  0  0  0  0  0  0  0
   18.7186   19.7318   25.6341 N   0  3  0  0  0  0  0  0  0  0  0  0
   17.9398   19.0999   25.4309 H   0  0  0  0  0  0  0  0  0  0  0  0
   18.7668   20.4177   24.8769 H   0  0  0  0  0  0  0  0  0  0  0  0
   18.4896   20.2343   26.4965 H   0  0  0  0  0  0  0  0  0  0  0  0
  1  2  1  0  0  0  0
  1  3  1  0  0  0  0
  1  4  1  0  0  0  0
  1  5  1  0  0  0  0
  5  6  1  0  0  0  0
  5  7  1  0  0  0  0
  5  8  1  0  0  0  0
  8  9  1  0  0  0  0
  8 10  1  0  0  0  0
  8 11  1  0  0  0  0
 11 12  1  0  0  0  0
 11 13  1  0  0  0  0
 11 14  1  0  0  0  0
 14 15  1  0  0  0  0
 14 16  1  0  0  0  0
 14 17  1  0  0  0  0
 17 18  1  0  0  0  0
 17 19  1  0  0  0  0
 17 20  1  0  0  0  0
 20 21  1  0  0  0  0
 20 22  1  0  0  0  0
 22 23  1  0  0  0  0
 22 24  1  0  0  0  0
 22 25  1  0  0  0  0
 20 26  1  0  0  0  0
 26 27  1  0  0  0  0
 26 28  1  0  0  0  0
 26 29  1  0  0  0  0
M  END
> <VM2 Rank>
177

> <Conf_Id>
975

> <Probability>
0.00

> <Sum Probability>
99.99

> <Delta G>
5.195

> <G>
38.897

> <E>
0.345

> <-TS>
38.552

> <U+W>
-23.800

> <U>
28.626

> <W>
-52.426

> <W(PB)>
-54.799

> <W(SA)>
2.374

> <Valence>
6.309

> <Coulomb>
21.584

> <VdW>
0.733

> <VdW6>
-12.083

> <VdW12>
12.816

> <Bond>
0.385

> <Angle>
2.789

> <Pdih>
3.135

> <Idih>
0.000

> <Tether>
0.000

$$$$
VeraChem MOL file


 29 28  0  0  0  0  0  0  0  0999 V2000     
   20.6744   18.7252   19.7783 C   0  0  0  0  0  0  0  0  0  0  0  0
   21.0613   19.4119   19.0143 H   0  0  0  0  0  0  0  0  0  0  0  0
   21.5267   18.1802   20.2047 H   0  0  0  0  0  0  0  0  0  0  0  0
   20.0197   17.9995   19.2784 H   0  0  0  0  0  0  0  0  0  0  0  0
   19.9101   19.5014   20.8715 C   0  0  0  0  0  0  0  0  0  0  0  0
   19.0829   20.0599   20.4118 H   0  0  0  0  0  0  0  0  0  0  0  0
   20.5848   20.2424   21.3202 H   0  0  0  0  0  0  0  0  0  0  0  0
   19.3581   18.5542   21.9624 C   0  0  0  0  0  0  0  0  0  0  0  0
   18.7427   17.7801   21.4837 H   0  0  0  0  0  0  0  0  0  0  0  0
   20.1896   18.0241   22.4431 H   0  0  0  0  0  0  0  0  0  0  0  0
   18.4928   19.2752   23.0284 C   0  0  0  0  0  0  0  0  0  0  0  0
   18.0679   18.5348   23.7163 H   0  0  0  0  0  0  0  0  0  0  0  0
   17.6272   19.7285   22.5260 H   0  0  0  0  0  0  0  0  0  0  0  0
   19.2217   20.3806   23.8364 C   0  0  0  0  0  0  0  0  0  0  0  0
   19.4755   21.2010   23.1522 H   0  0  0  0  0  0  0  0  0  0  0  0
   18.5137   20.8231   24.5493 H   0  0  0  0  0  0  0  0  0  0  0  0
   20.5196   19.9574   24.5860 C   0  0  0  0  0  0  0  0  0  0  0  0
   20.9581   20.8718   25.0065 H   0  0  0  0  0  0  0  0  0  0  0  0
   21.2677   19.5898   23.8724 H   0  0  0  0  0  0  0  0  0  0  0  0
   20.3728   18.9522   25.7584 C   0  0  2  0  0  0  0  0  0  0  0  0
   21.2469   19.0956   26.4011 H   0  0  0  0  0  0  0  0  0  0  0  0
   20.4083   17.4826   25.3030 C   0  0  0  0  0  0  0  0  0  0  0  0
   19.5208   17.2035   24.7277 H   0  0  0  0  0  0  0  0  0  0  0  0
   21.2942   17.2866   24.6866 H   0  0  0  0  0  0  0  0  0  0  0  0
   20.4604   16.8167   26.1731 H   0  0  0  0  0  0  0  0  0  0  0  0
   19.1783   19.2273   26.6295 N   0  3  0  0  0  0  0  0  0  0  0  0
   19.1978   20.1818   26.9998 H   0  0  0  0  0  0  0  0  0  0  0  0
   19.1413   18.5879   27.4284 H   0  0  0  0  0  0  0  0  0  0  0  0
   18.3077   19.1176   26.1035 H   0  0  0  0  0  0  0  0  0  0  0  0
  1  2  1  0  0  0  0
  1  3  1  0  0  0  0
  1  4  1  0  0  0  0
  1  5  1  0  0  0  0
  5  6  1  0  0  0  0
  5  7  1  0  0  0  0
  5  8  1  0  0  0  0
  8  9  1  0  0  0  0
  8 10  1  0  0  0  0
  8 11  1  0  0  0  0
 11 12  1  0  0  0  0
 11 13  1  0  0  0  0
 11 14  1  0  0  0  0
 14 15  1  0  0  0  0
 14 16  1  0  0  0  0
 14 17  1  0  0  0  0
 17 18  1  0  0  0  0
 17 19  1  0  0  0  0
 17 20  1  0  0  0  0
 20 21  1  0  0  0  0
 20 22  1  0  0  0  0
 22 23  1  0  0  0  0
 22 24  1  0  0  0  0
 22 25  1  0  0  0  0
 20 26  1  0  0  0  0
 26 27  1  0  0  0  0
 26 28  1  0  0  0  0
 26 29  1  0  0  0  0
M  END
> <VM2 Rank>
178

> <Conf_Id>
1372

> <Probability>
0.00

> <Sum Probability>
99.99

> <Delta G>
5.236

> <G>
38.938

> <E>
0.259

> <-TS>
38.679

> <U+W>
-23.885

> <U>
28.682

> <W>
-52.568

> <W(PB)>
-54.935

> <W(SA)>
2.367

> <Valence>
7.341

> <Coulomb>
20.552

> <VdW>
0.790

> <VdW6>
-12.015

> <VdW12>
12.805

> <Bond>
0.401

> <Angle>
3.356

> <Pdih>
3.584

> <Idih>
0.000

> <Tether>
0.000

$$$$
VeraChem MOL file


 29 28  0  0  0  0  0  0  0  0999 V2000     
   20.0149   19.8031   19.7917 C   0  0  0  0  0  0  0  0  0  0  0  0
   20.3053   18.9463   19.1702 H   0  0  0  0  0  0  0  0  0  0  0  0
   19.6288   20.5859   19.1261 H   0  0  0  0  0  0  0  0  0  0  0  0
   20.9167   20.1963   20.2772 H   0  0  0  0  0  0  0  0  0  0  0  0
   18.9439   19.3976   20.8294 C   0  0  0  0  0  0  0  0  0  0  0  0
   18.0274   19.1083   20.2966 H   0  0  0  0  0  0  0  0  0  0  0  0
   18.6727   20.2664   21.4439 H   0  0  0  0  0  0  0  0  0  0  0  0
   19.3823   18.2184   21.7340 C   0  0  0  0  0  0  0  0  0  0  0  0
   18.5494   17.9476   22.3954 H   0  0  0  0  0  0  0  0  0  0  0  0
   19.5504   17.3346   21.1034 H   0  0  0  0  0  0  0  0  0  0  0  0
   20.6608   18.4687   22.5799 C   0  0  0  0  0  0  0  0  0  0  0  0
   21.5241   18.5322   21.9042 H   0  0  0  0  0  0  0  0  0  0  0  0
   20.8456   17.5819   23.1965 H   0  0  0  0  0  0  0  0  0  0  0  0
   20.6417   19.7437   23.4698 C   0  0  0  0  0  0  0  0  0  0  0  0
   21.6163   19.8561   23.9644 H   0  0  0  0  0  0  0  0  0  0  0  0
   20.5533   20.6208   22.8155 H   0  0  0  0  0  0  0  0  0  0  0  0
   19.5130   19.8082   24.5367 C   0  0  0  0  0  0  0  0  0  0  0  0
   18.6072   19.3027   24.1840 H   0  0  0  0  0  0  0  0  0  0  0  0
   19.2319   20.8633   24.6520 H   0  0  0  0  0  0  0  0  0  0  0  0
   19.9015   19.2834   25.9400 C   0  0  2  0  0  0  0  0  0  0  0  0
   20.7673   19.8539   26.2901 H   0  0  0  0  0  0  0  0  0  0  0  0
   20.2777   17.7928   25.9414 C   0  0  0  0  0  0  0  0  0  0  0  0
   19.4964   17.1839   25.4697 H   0  0  0  0  0  0  0  0  0  0  0  0
   21.2213   17.6275   25.4098 H   0  0  0  0  0  0  0  0  0  0  0  0
   20.4209   17.4300   26.9667 H   0  0  0  0  0  0  0  0  0  0  0  0
   18.8002   19.5400   26.9310 N   0  3  0  0  0  0  0  0  0  0  0  0
   18.5640   20.5352   26.9832 H   0  0  0  0  0  0  0  0  0  0  0  0
   19.0680   19.2408   27.8730 H   0  0  0  0  0  0  0  0  0  0  0  0
   17.9468   19.0335   26.6805 H   0  0  0  0  0  0  0  0  0  0  0  0
  1  2  1  0  0  0  0
  1  3  1  0  0  0  0
  1  4  1  0  0  0  0
  1  5  1  0  0  0  0
  5  6  1  0  0  0  0
  5  7  1  0  0  0  0
  5  8  1  0  0  0  0
  8  9  1  0  0  0  0
  8 10  1  0  0  0  0
  8 11  1  0  0  0  0
 11 12  1  0  0  0  0
 11 13  1  0  0  0  0
 11 14  1  0  0  0  0
 14 15  1  0  0  0  0
 14 16  1  0  0  0  0
 14 17  1  0  0  0  0
 17 18  1  0  0  0  0
 17 19  1  0  0  0  0
 17 20  1  0  0  0  0
 20 21  1  0  0  0  0
 20 22  1  0  0  0  0
 22 23  1  0  0  0  0
 22 24  1  0  0  0  0
 22 25  1  0  0  0  0
 20 26  1  0  0  0  0
 26 27  1  0  0  0  0
 26 28  1  0  0  0  0
 26 29  1  0  0  0  0
M  END
> <VM2 Rank>
179

> <Conf_Id>
1192

> <Probability>
0.00

> <Sum Probability>
99.99

> <Delta G>
5.288

> <G>
38.990

> <E>
0.822

> <-TS>
38.168

> <U+W>
-23.323

> <U>
29.271

> <W>
-52.594

> <W(PB)>
-54.998

> <W(SA)>
2.404

> <Valence>
7.970

> <Coulomb>
20.084

> <VdW>
1.216

> <VdW6>
-11.599

> <VdW12>
12.815

> <Bond>
0.421

> <Angle>
3.122

> <Pdih>
4.428

> <Idih>
0.000

> <Tether>
0.000

$$$$
VeraChem MOL file


 29 28  0  0  0  0  0  0  0  0999 V2000     
   19.4659   20.0171   19.6997 C   0  0  0  0  0  0  0  0  0  0  0  0
   20.2840   20.6892   19.9866 H   0  0  0  0  0  0  0  0  0  0  0  0
   19.8980   19.1458   19.1906 H   0  0  0  0  0  0  0  0  0  0  0  0
   18.8388   20.5523   18.9750 H   0  0  0  0  0  0  0  0  0  0  0  0
   18.6281   19.5859   20.9246 C   0  0  0  0  0  0  0  0  0  0  0  0
   17.7525   19.0227   20.5724 H   0  0  0  0  0  0  0  0  0  0  0  0
   18.2354   20.4764   21.4347 H   0  0  0  0  0  0  0  0  0  0  0  0
   19.4113   18.7065   21.9291 C   0  0  0  0  0  0  0  0  0  0  0  0
   18.7069   18.3500   22.6902 H   0  0  0  0  0  0  0  0  0  0  0  0
   19.7849   17.8097   21.4159 H   0  0  0  0  0  0  0  0  0  0  0  0
   20.5946   19.4468   22.6034 C   0  0  0  0  0  0  0  0  0  0  0  0
   20.2565   20.3895   23.0498 H   0  0  0  0  0  0  0  0  0  0  0  0
   21.3210   19.7337   21.8318 H   0  0  0  0  0  0  0  0  0  0  0  0
   21.3454   18.5923   23.6568 C   0  0  0  0  0  0  0  0  0  0  0  0
   21.7908   17.7260   23.1485 H   0  0  0  0  0  0  0  0  0  0  0  0
   22.1924   19.1779   24.0401 H   0  0  0  0  0  0  0  0  0  0  0  0
   20.5132   18.0771   24.8638 C   0  0  0  0  0  0  0  0  0  0  0  0
   21.1893   17.4688   25.4794 H   0  0  0  0  0  0  0  0  0  0  0  0
   19.7259   17.3898   24.5299 H   0  0  0  0  0  0  0  0  0  0  0  0
   19.9082   19.1892   25.7529 C   0  0  2  0  0  0  0  0  0  0  0  0
   20.6443   19.9936   25.8452 H   0  0  0  0  0  0  0  0  0  0  0  0
   19.6061   18.6481   27.1600 C   0  0  0  0  0  0  0  0  0  0  0  0
   18.8828   17.8239   27.1213 H   0  0  0  0  0  0  0  0  0  0  0  0
   20.5203   18.2787   27.6413 H   0  0  0  0  0  0  0  0  0  0  0  0
   19.1917   19.4375   27.7992 H   0  0  0  0  0  0  0  0  0  0  0  0
   18.6632   19.7931   25.1638 N   0  3  0  0  0  0  0  0  0  0  0  0
   18.8303   20.1271   24.2110 H   0  0  0  0  0  0  0  0  0  0  0  0
   18.3314   20.5857   25.7212 H   0  0  0  0  0  0  0  0  0  0  0  0
   17.9039   19.1081   25.1224 H   0  0  0  0  0  0  0  0  0  0  0  0
  1  2  1  0  0  0  0
  1  3  1  0  0  0  0
  1  4  1  0  0  0  0
  1  5  1  0  0  0  0
  5  6  1  0  0  0  0
  5  7  1  0  0  0  0
  5  8  1  0  0  0  0
  8  9  1  0  0  0  0
  8 10  1  0  0  0  0
  8 11  1  0  0  0  0
 11 12  1  0  0  0  0
 11 13  1  0  0  0  0
 11 14  1  0  0  0  0
 14 15  1  0  0  0  0
 14 16  1  0  0  0  0
 14 17  1  0  0  0  0
 17 18  1  0  0  0  0
 17 19  1  0  0  0  0
 17 20  1  0  0  0  0
 20 21  1  0  0  0  0
 20 22  1  0  0  0  0
 22 23  1  0  0  0  0
 22 24  1  0  0  0  0
 22 25  1  0  0  0  0
 20 26  1  0  0  0  0
 26 27  1  0  0  0  0
 26 28  1  0  0  0  0
 26 29  1  0  0  0  0
M  END
> <VM2 Rank>
180

> <Conf_Id>
371

> <Probability>
0.00

> <Sum Probability>
99.99

> <Delta G>
5.471

> <G>
39.173

> <E>
0.987

> <-TS>
38.186

> <U+W>
-23.158

> <U>
28.492

> <W>
-51.649

> <W(PB)>
-54.088

> <W(SA)>
2.439

> <Valence>
6.023

> <Coulomb>
21.518

> <VdW>
0.951

> <VdW6>
-11.102

> <VdW12>
12.053

> <Bond>
0.333

> <Angle>
2.459

> <Pdih>
3.230

> <Idih>
0.000

> <Tether>
0.000

$$$$
VeraChem MOL file


 29 28  0  0  0  0  0  0  0  0999 V2000     
   20.0103   20.9538   21.3442 C   0  0  0  0  0  0  0  0  0  0  0  0
   20.5692   20.8699   20.4031 H   0  0  0  0  0  0  0  0  0  0  0  0
   19.4746   21.9118   21.3304 H   0  0  0  0  0  0  0  0  0  0  0  0
   20.7321   20.9937   22.1684 H   0  0  0  0  0  0  0  0  0  0  0  0
   19.0149   19.7818   21.5044 C   0  0  0  0  0  0  0  0  0  0  0  0
   18.2517   19.8675   20.7184 H   0  0  0  0  0  0  0  0  0  0  0  0
   18.4751   19.8826   22.4516 H   0  0  0  0  0  0  0  0  0  0  0  0
   19.6770   18.3841   21.3857 C   0  0  0  0  0  0  0  0  0  0  0  0
   18.8963   17.6118   21.3557 H   0  0  0  0  0  0  0  0  0  0  0  0
   20.1764   18.3329   20.4083 H   0  0  0  0  0  0  0  0  0  0  0  0
   20.7163   18.0232   22.4830 C   0  0  0  0  0  0  0  0  0  0  0  0
   21.3175   18.8957   22.7635 H   0  0  0  0  0  0  0  0  0  0  0  0
   21.4319   17.3191   22.0365 H   0  0  0  0  0  0  0  0  0  0  0  0
   20.1319   17.3307   23.7442 C   0  0  0  0  0  0  0  0  0  0  0  0
   19.6048   16.4167   23.4382 H   0  0  0  0  0  0  0  0  0  0  0  0
   20.9658   16.9875   24.3710 H   0  0  0  0  0  0  0  0  0  0  0  0
   19.1744   18.1909   24.6087 C   0  0  0  0  0  0  0  0  0  0  0  0
   18.9017   17.6213   25.5070 H   0  0  0  0  0  0  0  0  0  0  0  0
   18.2371   18.3361   24.0585 H   0  0  0  0  0  0  0  0  0  0  0  0
   19.7400   19.5661   25.0338 C   0  0  2  0  0  0  0  0  0  0  0  0
   20.0280   20.1131   24.1316 H   0  0  0  0  0  0  0  0  0  0  0  0
   20.9804   19.4264   25.9337 C   0  0  0  0  0  0  0  0  0  0  0  0
   20.7527   18.8434   26.8348 H   0  0  0  0  0  0  0  0  0  0  0  0
   21.8025   18.9315   25.4036 H   0  0  0  0  0  0  0  0  0  0  0  0
   21.3427   20.4127   26.2485 H   0  0  0  0  0  0  0  0  0  0  0  0
   18.6908   20.3989   25.7164 N   0  3  0  0  0  0  0  0  0  0  0  0
   18.3682   19.9563   26.5812 H   0  0  0  0  0  0  0  0  0  0  0  0
   17.8716   20.5399   25.1186 H   0  0  0  0  0  0  0  0  0  0  0  0
   19.0514   21.3248   25.9641 H   0  0  0  0  0  0  0  0  0  0  0  0
  1  2  1  0  0  0  0
  1  3  1  0  0  0  0
  1  4  1  0  0  0  0
  1  5  1  0  0  0  0
  5  6  1  0  0  0  0
  5  7  1  0  0  0  0
  5  8  1  0  0  0  0
  8  9  1  0  0  0  0
  8 10  1  0  0  0  0
  8 11  1  0  0  0  0
 11 12  1  0  0  0  0
 11 13  1  0  0  0  0
 11 14  1  0  0  0  0
 14 15  1  0  0  0  0
 14 16  1  0  0  0  0
 14 17  1  0  0  0  0
 17 18  1  0  0  0  0
 17 19  1  0  0  0  0
 17 20  1  0  0  0  0
 20 21  1  0  0  0  0
 20 22  1  0  0  0  0
 22 23  1  0  0  0  0
 22 24  1  0  0  0  0
 22 25  1  0  0  0  0
 20 26  1  0  0  0  0
 26 27  1  0  0  0  0
 26 28  1  0  0  0  0
 26 29  1  0  0  0  0
M  END
> <VM2 Rank>
181

> <Conf_Id>
1051

> <Probability>
0.00

> <Sum Probability>
99.99

> <Delta G>
5.506

> <G>
39.208

> <E>
0.425

> <-TS>
38.783

> <U+W>
-23.719

> <U>
29.314

> <W>
-53.033

> <W(PB)>
-55.383

> <W(SA)>
2.350

> <Valence>
7.653

> <Coulomb>
21.278

> <VdW>
0.382

> <VdW6>
-12.612

> <VdW12>
12.994

> <Bond>
0.381

> <Angle>
3.142

> <Pdih>
4.131

> <Idih>
0.000

> <Tether>
0.000

$$$$
VeraChem MOL file


 29 28  0  0  0  0  0  0  0  0999 V2000     
   19.0962   19.0065   19.7718 C   0  0  0  0  0  0  0  0  0  0  0  0
   19.0588   17.9502   20.0655 H   0  0  0  0  0  0  0  0  0  0  0  0
   18.3175   19.1656   19.0148 H   0  0  0  0  0  0  0  0  0  0  0  0
   20.0682   19.1986   19.2991 H   0  0  0  0  0  0  0  0  0  0  0  0
   18.8725   19.9412   20.9820 C   0  0  0  0  0  0  0  0  0  0  0  0
   17.9096   19.7063   21.4564 H   0  0  0  0  0  0  0  0  0  0  0  0
   18.7918   20.9753   20.6188 H   0  0  0  0  0  0  0  0  0  0  0  0
   20.0071   19.8724   22.0326 C   0  0  0  0  0  0  0  0  0  0  0  0
   20.9633   20.1274   21.5555 H   0  0  0  0  0  0  0  0  0  0  0  0
   19.8240   20.6510   22.7828 H   0  0  0  0  0  0  0  0  0  0  0  0
   20.1255   18.4889   22.7213 C   0  0  0  0  0  0  0  0  0  0  0  0
   20.3795   17.7350   21.9648 H   0  0  0  0  0  0  0  0  0  0  0  0
   19.1566   18.1792   23.1300 H   0  0  0  0  0  0  0  0  0  0  0  0
   21.2159   18.4339   23.8220 C   0  0  0  0  0  0  0  0  0  0  0  0
   21.2897   17.4033   24.1940 H   0  0  0  0  0  0  0  0  0  0  0  0
   22.1885   18.6416   23.3551 H   0  0  0  0  0  0  0  0  0  0  0  0
   21.0392   19.4032   25.0279 C   0  0  0  0  0  0  0  0  0  0  0  0
   21.1321   20.4423   24.6886 H   0  0  0  0  0  0  0  0  0  0  0  0
   21.8919   19.2484   25.7020 H   0  0  0  0  0  0  0  0  0  0  0  0
   19.7487   19.2576   25.8744 C   0  0  2  0  0  0  0  0  0  0  0  0
   19.8962   19.8500   26.7826 H   0  0  0  0  0  0  0  0  0  0  0  0
   19.4947   17.8048   26.3128 C   0  0  0  0  0  0  0  0  0  0  0  0
   19.2444   17.1619   25.4606 H   0  0  0  0  0  0  0  0  0  0  0  0
   20.3798   17.3888   26.8098 H   0  0  0  0  0  0  0  0  0  0  0  0
   18.6611   17.7585   27.0242 H   0  0  0  0  0  0  0  0  0  0  0  0
   18.5363   19.8476   25.2092 N   0  3  0  0  0  0  0  0  0  0  0  0
   18.6604   20.8475   25.0269 H   0  0  0  0  0  0  0  0  0  0  0  0
   17.7017   19.7440   25.7936 H   0  0  0  0  0  0  0  0  0  0  0  0
   18.3505   19.3913   24.3130 H   0  0  0  0  0  0  0  0  0  0  0  0
  1  2  1  0  0  0  0
  1  3  1  0  0  0  0
  1  4  1  0  0  0  0
  1  5  1  0  0  0  0
  5  6  1  0  0  0  0
  5  7  1  0  0  0  0
  5  8  1  0  0  0  0
  8  9  1  0  0  0  0
  8 10  1  0  0  0  0
  8 11  1  0  0  0  0
 11 12  1  0  0  0  0
 11 13  1  0  0  0  0
 11 14  1  0  0  0  0
 14 15  1  0  0  0  0
 14 16  1  0  0  0  0
 14 17  1  0  0  0  0
 17 18  1  0  0  0  0
 17 19  1  0  0  0  0
 17 20  1  0  0  0  0
 20 21  1  0  0  0  0
 20 22  1  0  0  0  0
 22 23  1  0  0  0  0
 22 24  1  0  0  0  0
 22 25  1  0  0  0  0
 20 26  1  0  0  0  0
 26 27  1  0  0  0  0
 26 28  1  0  0  0  0
 26 29  1  0  0  0  0
M  END
> <VM2 Rank>
182

> <Conf_Id>
860

> <Probability>
0.00

> <Sum Probability>
99.99

> <Delta G>
5.589

> <G>
39.291

> <E>
0.689

> <-TS>
38.602

> <U+W>
-23.456

> <U>
28.746

> <W>
-52.201

> <W(PB)>
-54.566

> <W(SA)>
2.364

> <Valence>
6.147

> <Coulomb>
21.776

> <VdW>
0.823

> <VdW6>
-12.079

> <VdW12>
12.902

> <Bond>
0.393

> <Angle>
2.949

> <Pdih>
2.805

> <Idih>
0.000

> <Tether>
0.000

$$$$
VeraChem MOL file


 29 28  0  0  0  0  0  0  0  0999 V2000     
   19.2242   20.8144   21.4908 C   0  0  0  0  0  0  0  0  0  0  0  0
   18.2853   21.3511   21.3031 H   0  0  0  0  0  0  0  0  0  0  0  0
   19.4281   20.8694   22.5660 H   0  0  0  0  0  0  0  0  0  0  0  0
   20.0264   21.3467   20.9635 H   0  0  0  0  0  0  0  0  0  0  0  0
   19.1185   19.3517   21.0031 C   0  0  0  0  0  0  0  0  0  0  0  0
   18.8309   19.3575   19.9425 H   0  0  0  0  0  0  0  0  0  0  0  0
   18.3052   18.8328   21.5251 H   0  0  0  0  0  0  0  0  0  0  0  0
   20.4398   18.5576   21.1458 C   0  0  0  0  0  0  0  0  0  0  0  0
   20.2951   17.5537   20.7236 H   0  0  0  0  0  0  0  0  0  0  0  0
   21.2021   19.0364   20.5159 H   0  0  0  0  0  0  0  0  0  0  0  0
   21.0085   18.4207   22.5841 C   0  0  0  0  0  0  0  0  0  0  0  0
   21.2555   19.4061   22.9960 H   0  0  0  0  0  0  0  0  0  0  0  0
   21.9727   17.9014   22.4967 H   0  0  0  0  0  0  0  0  0  0  0  0
   20.1254   17.6000   23.5648 C   0  0  0  0  0  0  0  0  0  0  0  0
   19.5854   16.8229   23.0069 H   0  0  0  0  0  0  0  0  0  0  0  0
   20.7837   17.0507   24.2506 H   0  0  0  0  0  0  0  0  0  0  0  0
   19.1127   18.4238   24.4078 C   0  0  0  0  0  0  0  0  0  0  0  0
   18.5577   17.7340   25.0572 H   0  0  0  0  0  0  0  0  0  0  0  0
   18.3642   18.8699   23.7450 H   0  0  0  0  0  0  0  0  0  0  0  0
   19.7307   19.5429   25.2799 C   0  0  2  0  0  0  0  0  0  0  0  0
   20.2720   20.2337   24.6278 H   0  0  0  0  0  0  0  0  0  0  0  0
   20.7161   18.9893   26.3241 C   0  0  0  0  0  0  0  0  0  0  0  0
   20.2349   18.2419   26.9671 H   0  0  0  0  0  0  0  0  0  0  0  0
   21.5838   18.5229   25.8431 H   0  0  0  0  0  0  0  0  0  0  0  0
   21.0949   19.7958   26.9640 H   0  0  0  0  0  0  0  0  0  0  0  0
   18.6602   20.3556   25.9536 N   0  3  0  0  0  0  0  0  0  0  0  0
   18.0153   20.7688   25.2739 H   0  0  0  0  0  0  0  0  0  0  0  0
   19.0615   21.1233   26.4998 H   0  0  0  0  0  0  0  0  0  0  0  0
   18.1054   19.7828   26.5954 H   0  0  0  0  0  0  0  0  0  0  0  0
  1  2  1  0  0  0  0
  1  3  1  0  0  0  0
  1  4  1  0  0  0  0
  1  5  1  0  0  0  0
  5  6  1  0  0  0  0
  5  7  1  0  0  0  0
  5  8  1  0  0  0  0
  8  9  1  0  0  0  0
  8 10  1  0  0  0  0
  8 11  1  0  0  0  0
 11 12  1  0  0  0  0
 11 13  1  0  0  0  0
 11 14  1  0  0  0  0
 14 15  1  0  0  0  0
 14 16  1  0  0  0  0
 14 17  1  0  0  0  0
 17 18  1  0  0  0  0
 17 19  1  0  0  0  0
 17 20  1  0  0  0  0
 20 21  1  0  0  0  0
 20 22  1  0  0  0  0
 22 23  1  0  0  0  0
 22 24  1  0  0  0  0
 22 25  1  0  0  0  0
 20 26  1  0  0  0  0
 26 27  1  0  0  0  0
 26 28  1  0  0  0  0
 26 29  1  0  0  0  0
M  END
> <VM2 Rank>
183

> <Conf_Id>
1043

> <Probability>
0.00

> <Sum Probability>
99.99

> <Delta G>
5.619

> <G>
39.322

> <E>
0.669

> <-TS>
38.652

> <U+W>
-23.475

> <U>
29.549

> <W>
-53.026

> <W(PB)>
-55.380

> <W(SA)>
2.354

> <Valence>
7.750

> <Coulomb>
21.171

> <VdW>
0.628

> <VdW6>
-12.188

> <VdW12>
12.817

> <Bond>
0.391

> <Angle>
3.142

> <Pdih>
4.217

> <Idih>
0.000

> <Tether>
0.000

$$$$
VeraChem MOL file


 29 28  0  0  0  0  0  0  0  0999 V2000     
   19.8759   19.0718   19.8411 C   0  0  0  0  0  0  0  0  0  0  0  0
   18.8640   18.9537   19.4324 H   0  0  0  0  0  0  0  0  0  0  0  0
   20.5314   19.4034   19.0255 H   0  0  0  0  0  0  0  0  0  0  0  0
   20.2310   18.0876   20.1709 H   0  0  0  0  0  0  0  0  0  0  0  0
   19.8911   20.0960   20.9981 C   0  0  0  0  0  0  0  0  0  0  0  0
   19.6412   21.0874   20.5953 H   0  0  0  0  0  0  0  0  0  0  0  0
   20.9085   20.1832   21.4022 H   0  0  0  0  0  0  0  0  0  0  0  0
   18.8912   19.7584   22.1329 C   0  0  0  0  0  0  0  0  0  0  0  0
   18.9213   20.5642   22.8764 H   0  0  0  0  0  0  0  0  0  0  0  0
   17.8726   19.7733   21.7213 H   0  0  0  0  0  0  0  0  0  0  0  0
   19.1235   18.3906   22.8305 C   0  0  0  0  0  0  0  0  0  0  0  0
   18.9578   17.5864   22.1014 H   0  0  0  0  0  0  0  0  0  0  0  0
   18.3537   18.2357   23.5956 H   0  0  0  0  0  0  0  0  0  0  0  0
   20.5294   18.2009   23.4592 C   0  0  0  0  0  0  0  0  0  0  0  0
   20.5896   17.1950   23.8950 H   0  0  0  0  0  0  0  0  0  0  0  0
   21.2767   18.2021   22.6547 H   0  0  0  0  0  0  0  0  0  0  0  0
   20.9563   19.2542   24.5230 C   0  0  0  0  0  0  0  0  0  0  0  0
   20.9957   20.2507   24.0656 H   0  0  0  0  0  0  0  0  0  0  0  0
   21.9923   19.0311   24.8098 H   0  0  0  0  0  0  0  0  0  0  0  0
   20.1224   19.3249   25.8282 C   0  0  2  0  0  0  0  0  0  0  0  0
   20.6822   19.9535   26.5276 H   0  0  0  0  0  0  0  0  0  0  0  0
   19.9485   17.9471   26.4904 C   0  0  0  0  0  0  0  0  0  0  0  0
   19.3061   17.2893   25.8928 H   0  0  0  0  0  0  0  0  0  0  0  0
   20.9194   17.4540   26.6232 H   0  0  0  0  0  0  0  0  0  0  0  0
   19.4904   18.0526   27.4815 H   0  0  0  0  0  0  0  0  0  0  0  0
   18.7976   20.0121   25.6506 N   0  3  0  0  0  0  0  0  0  0  0  0
   18.9168   20.9696   25.3084 H   0  0  0  0  0  0  0  0  0  0  0  0
   18.2827   20.0643   26.5343 H   0  0  0  0  0  0  0  0  0  0  0  0
   18.2120   19.5129   24.9776 H   0  0  0  0  0  0  0  0  0  0  0  0
  1  2  1  0  0  0  0
  1  3  1  0  0  0  0
  1  4  1  0  0  0  0
  1  5  1  0  0  0  0
  5  6  1  0  0  0  0
  5  7  1  0  0  0  0
  5  8  1  0  0  0  0
  8  9  1  0  0  0  0
  8 10  1  0  0  0  0
  8 11  1  0  0  0  0
 11 12  1  0  0  0  0
 11 13  1  0  0  0  0
 11 14  1  0  0  0  0
 14 15  1  0  0  0  0
 14 16  1  0  0  0  0
 14 17  1  0  0  0  0
 17 18  1  0  0  0  0
 17 19  1  0  0  0  0
 17 20  1  0  0  0  0
 20 21  1  0  0  0  0
 20 22  1  0  0  0  0
 22 23  1  0  0  0  0
 22 24  1  0  0  0  0
 22 25  1  0  0  0  0
 20 26  1  0  0  0  0
 26 27  1  0  0  0  0
 26 28  1  0  0  0  0
 26 29  1  0  0  0  0
M  END
> <VM2 Rank>
184

> <Conf_Id>
856

> <Probability>
0.00

> <Sum Probability>
99.99

> <Delta G>
5.720

> <G>
39.422

> <E>
0.460

> <-TS>
38.962

> <U+W>
-23.685

> <U>
28.969

> <W>
-52.653

> <W(PB)>
-55.006

> <W(SA)>
2.353

> <Valence>
6.483

> <Coulomb>
21.800

> <VdW>
0.686

> <VdW6>
-13.002

> <VdW12>
13.687

> <Bond>
0.441

> <Angle>
3.285

> <Pdih>
2.757

> <Idih>
0.000

> <Tether>
0.000

$$$$
VeraChem MOL file


 29 28  0  0  0  0  0  0  0  0999 V2000     
   19.3478   21.0142   20.5454 C   0  0  0  0  0  0  0  0  0  0  0  0
   18.4303   21.3040   20.0168 H   0  0  0  0  0  0  0  0  0  0  0  0
   19.5455   21.7699   21.3168 H   0  0  0  0  0  0  0  0  0  0  0  0
   20.1741   21.0393   19.8230 H   0  0  0  0  0  0  0  0  0  0  0  0
   19.1975   19.6102   21.1678 C   0  0  0  0  0  0  0  0  0  0  0  0
   18.9721   18.8835   20.3748 H   0  0  0  0  0  0  0  0  0  0  0  0
   18.3349   19.6144   21.8448 H   0  0  0  0  0  0  0  0  0  0  0  0
   20.4823   19.1804   21.9159 C   0  0  0  0  0  0  0  0  0  0  0  0
   21.3232   19.2219   21.2098 H   0  0  0  0  0  0  0  0  0  0  0  0
   20.7220   19.9095   22.6963 H   0  0  0  0  0  0  0  0  0  0  0  0
   20.4186   17.7426   22.4968 C   0  0  0  0  0  0  0  0  0  0  0  0
   21.4101   17.4606   22.8769 H   0  0  0  0  0  0  0  0  0  0  0  0
   20.2184   17.0537   21.6645 H   0  0  0  0  0  0  0  0  0  0  0  0
   19.3566   17.4895   23.6028 C   0  0  0  0  0  0  0  0  0  0  0  0
   18.4034   17.9717   23.3576 H   0  0  0  0  0  0  0  0  0  0  0  0
   19.1345   16.4134   23.6025 H   0  0  0  0  0  0  0  0  0  0  0  0
   19.8017   17.8563   25.0450 C   0  0  0  0  0  0  0  0  0  0  0  0
   20.6967   17.2726   25.2979 H   0  0  0  0  0  0  0  0  0  0  0  0
   19.0201   17.5275   25.7428 H   0  0  0  0  0  0  0  0  0  0  0  0
   20.0946   19.3512   25.2951 C   0  0  2  0  0  0  0  0  0  0  0  0
   20.9359   19.6471   24.6635 H   0  0  0  0  0  0  0  0  0  0  0  0
   20.5028   19.5778   26.7592 C   0  0  0  0  0  0  0  0  0  0  0  0
   19.6912   19.3046   27.4452 H   0  0  0  0  0  0  0  0  0  0  0  0
   21.3838   18.9762   27.0153 H   0  0  0  0  0  0  0  0  0  0  0  0
   20.7567   20.6307   26.9327 H   0  0  0  0  0  0  0  0  0  0  0  0
   18.9342   20.2338   24.9261 N   0  3  0  0  0  0  0  0  0  0  0  0
   18.6900   20.1216   23.9382 H   0  0  0  0  0  0  0  0  0  0  0  0
   19.1507   21.2223   25.0840 H   0  0  0  0  0  0  0  0  0  0  0  0
   18.1044   20.0078   25.4814 H   0  0  0  0  0  0  0  0  0  0  0  0
  1  2  1  0  0  0  0
  1  3  1  0  0  0  0
  1  4  1  0  0  0  0
  1  5  1  0  0  0  0
  5  6  1  0  0  0  0
  5  7  1  0  0  0  0
  5  8  1  0  0  0  0
  8  9  1  0  0  0  0
  8 10  1  0  0  0  0
  8 11  1  0  0  0  0
 11 12  1  0  0  0  0
 11 13  1  0  0  0  0
 11 14  1  0  0  0  0
 14 15  1  0  0  0  0
 14 16  1  0  0  0  0
 14 17  1  0  0  0  0
 17 18  1  0  0  0  0
 17 19  1  0  0  0  0
 17 20  1  0  0  0  0
 20 21  1  0  0  0  0
 20 22  1  0  0  0  0
 22 23  1  0  0  0  0
 22 24  1  0  0  0  0
 22 25  1  0  0  0  0
 20 26  1  0  0  0  0
 26 27  1  0  0  0  0
 26 28  1  0  0  0  0
 26 29  1  0  0  0  0
M  END
> <VM2 Rank>
185

> <Conf_Id>
654

> <Probability>
0.00

> <Sum Probability>
99.99

> <Delta G>
5.737

> <G>
39.439

> <E>
1.176

> <-TS>
38.263

> <U+W>
-22.968

> <U>
28.534

> <W>
-51.502

> <W(PB)>
-53.928

> <W(SA)>
2.426

> <Valence>
6.517

> <Coulomb>
21.463

> <VdW>
0.554

> <VdW6>
-11.294

> <VdW12>
11.848

> <Bond>
0.345

> <Angle>
2.713

> <Pdih>
3.460

> <Idih>
0.000

> <Tether>
0.000

$$$$
VeraChem MOL file


 29 28  0  0  0  0  0  0  0  0999 V2000     
   18.2553   19.8989   20.8902 C   0  0  0  0  0  0  0  0  0  0  0  0
   17.8964   20.7729   20.3314 H   0  0  0  0  0  0  0  0  0  0  0  0
   17.6664   19.0299   20.5694 H   0  0  0  0  0  0  0  0  0  0  0  0
   18.0515   20.0801   21.9523 H   0  0  0  0  0  0  0  0  0  0  0  0
   19.7623   19.6738   20.6322 C   0  0  0  0  0  0  0  0  0  0  0  0
   20.3326   20.5453   20.9806 H   0  0  0  0  0  0  0  0  0  0  0  0
   19.9302   19.6190   19.5476 H   0  0  0  0  0  0  0  0  0  0  0  0
   20.3125   18.3785   21.2816 C   0  0  0  0  0  0  0  0  0  0  0  0
   19.7996   17.5133   20.8393 H   0  0  0  0  0  0  0  0  0  0  0  0
   21.3718   18.2696   21.0114 H   0  0  0  0  0  0  0  0  0  0  0  0
   20.1755   18.3043   22.8239 C   0  0  0  0  0  0  0  0  0  0  0  0
   20.5862   17.3432   23.1622 H   0  0  0  0  0  0  0  0  0  0  0  0
   19.1123   18.2991   23.0892 H   0  0  0  0  0  0  0  0  0  0  0  0
   20.9051   19.4550   23.5590 C   0  0  0  0  0  0  0  0  0  0  0  0
   21.9128   19.5562   23.1331 H   0  0  0  0  0  0  0  0  0  0  0  0
   20.4003   20.4084   23.3567 H   0  0  0  0  0  0  0  0  0  0  0  0
   21.0589   19.2576   25.0939 C   0  0  0  0  0  0  0  0  0  0  0  0
   21.6434   20.1057   25.4740 H   0  0  0  0  0  0  0  0  0  0  0  0
   21.6766   18.3716   25.2914 H   0  0  0  0  0  0  0  0  0  0  0  0
   19.7597   19.1830   25.9374 C   0  0  2  0  0  0  0  0  0  0  0  0
   20.0287   19.4890   26.9531 H   0  0  0  0  0  0  0  0  0  0  0  0
   19.2038   17.7515   26.0496 C   0  0  0  0  0  0  0  0  0  0  0  0
   18.8380   17.3676   25.0929 H   0  0  0  0  0  0  0  0  0  0  0  0
   19.9736   17.0636   26.4205 H   0  0  0  0  0  0  0  0  0  0  0  0
   18.3684   17.7223   26.7598 H   0  0  0  0  0  0  0  0  0  0  0  0
   18.7029   20.1533   25.4862 N   0  3  0  0  0  0  0  0  0  0  0  0
   19.0519   21.1161   25.4975 H   0  0  0  0  0  0  0  0  0  0  0  0
   17.8783   20.1180   26.0925 H   0  0  0  0  0  0  0  0  0  0  0  0
   18.3985   19.9452   24.5321 H   0  0  0  0  0  0  0  0  0  0  0  0
  1  2  1  0  0  0  0
  1  3  1  0  0  0  0
  1  4  1  0  0  0  0
  1  5  1  0  0  0  0
  5  6  1  0  0  0  0
  5  7  1  0  0  0  0
  5  8  1  0  0  0  0
  8  9  1  0  0  0  0
  8 10  1  0  0  0  0
  8 11  1  0  0  0  0
 11 12  1  0  0  0  0
 11 13  1  0  0  0  0
 11 14  1  0  0  0  0
 14 15  1  0  0  0  0
 14 16  1  0  0  0  0
 14 17  1  0  0  0  0
 17 18  1  0  0  0  0
 17 19  1  0  0  0  0
 17 20  1  0  0  0  0
 20 21  1  0  0  0  0
 20 22  1  0  0  0  0
 22 23  1  0  0  0  0
 22 24  1  0  0  0  0
 22 25  1  0  0  0  0
 20 26  1  0  0  0  0
 26 27  1  0  0  0  0
 26 28  1  0  0  0  0
 26 29  1  0  0  0  0
M  END
> <VM2 Rank>
186

> <Conf_Id>
344

> <Probability>
0.00

> <Sum Probability>
99.99

> <Delta G>
5.841

> <G>
39.543

> <E>
1.246

> <-TS>
38.297

> <U+W>
-22.899

> <U>
29.417

> <W>
-52.316

> <W(PB)>
-54.671

> <W(SA)>
2.355

> <Valence>
7.176

> <Coulomb>
21.250

> <VdW>
0.991

> <VdW6>
-11.694

> <VdW12>
12.685

> <Bond>
0.376

> <Angle>
2.904

> <Pdih>
3.896

> <Idih>
0.000

> <Tether>
0.000

$$$$
VeraChem MOL file


 29 28  0  0  0  0  0  0  0  0999 V2000     
   21.0343   20.6085   21.0221 C   0  0  0  0  0  0  0  0  0  0  0  0
   22.1010   20.5455   20.7705 H   0  0  0  0  0  0  0  0  0  0  0  0
   20.4981   20.9618   20.1317 H   0  0  0  0  0  0  0  0  0  0  0  0
   20.9185   21.3616   21.8124 H   0  0  0  0  0  0  0  0  0  0  0  0
   20.5011   19.2356   21.4818 C   0  0  0  0  0  0  0  0  0  0  0  0
   21.0837   18.8913   22.3444 H   0  0  0  0  0  0  0  0  0  0  0  0
   20.6663   18.4966   20.6853 H   0  0  0  0  0  0  0  0  0  0  0  0
   18.9925   19.2941   21.8232 C   0  0  0  0  0  0  0  0  0  0  0  0
   18.7753   20.1261   22.5058 H   0  0  0  0  0  0  0  0  0  0  0  0
   18.4451   19.5195   20.8975 H   0  0  0  0  0  0  0  0  0  0  0  0
   18.4479   17.9657   22.4068 C   0  0  0  0  0  0  0  0  0  0  0  0
   19.0416   17.1177   22.0386 H   0  0  0  0  0  0  0  0  0  0  0  0
   17.4372   17.8101   22.0046 H   0  0  0  0  0  0  0  0  0  0  0  0
   18.3421   17.9077   23.9549 C   0  0  0  0  0  0  0  0  0  0  0  0
   17.6445   18.6770   24.3096 H   0  0  0  0  0  0  0  0  0  0  0  0
   17.8702   16.9493   24.2120 H   0  0  0  0  0  0  0  0  0  0  0  0
   19.6880   17.9903   24.7243 C   0  0  0  0  0  0  0  0  0  0  0  0
   20.4422   17.3951   24.1931 H   0  0  0  0  0  0  0  0  0  0  0  0
   19.5627   17.5087   25.7033 H   0  0  0  0  0  0  0  0  0  0  0  0
   20.2132   19.4261   24.9561 C   0  0  2  0  0  0  0  0  0  0  0  0
   20.2732   19.9395   23.9939 H   0  0  0  0  0  0  0  0  0  0  0  0
   21.6245   19.3861   25.5628 C   0  0  0  0  0  0  0  0  0  0  0  0
   22.0172   20.4012   25.6997 H   0  0  0  0  0  0  0  0  0  0  0  0
   21.6231   18.8853   26.5391 H   0  0  0  0  0  0  0  0  0  0  0  0
   22.3171   18.8480   24.9037 H   0  0  0  0  0  0  0  0  0  0  0  0
   19.2924   20.2419   25.8219 N   0  3  0  0  0  0  0  0  0  0  0  0
   18.3578   20.3133   25.4109 H   0  0  0  0  0  0  0  0  0  0  0  0
   19.6454   21.1944   25.9505 H   0  0  0  0  0  0  0  0  0  0  0  0
   19.1893   19.8255   26.7511 H   0  0  0  0  0  0  0  0  0  0  0  0
  1  2  1  0  0  0  0
  1  3  1  0  0  0  0
  1  4  1  0  0  0  0
  1  5  1  0  0  0  0
  5  6  1  0  0  0  0
  5  7  1  0  0  0  0
  5  8  1  0  0  0  0
  8  9  1  0  0  0  0
  8 10  1  0  0  0  0
  8 11  1  0  0  0  0
 11 12  1  0  0  0  0
 11 13  1  0  0  0  0
 11 14  1  0  0  0  0
 14 15  1  0  0  0  0
 14 16  1  0  0  0  0
 14 17  1  0  0  0  0
 17 18  1  0  0  0  0
 17 19  1  0  0  0  0
 17 20  1  0  0  0  0
 20 21  1  0  0  0  0
 20 22  1  0  0  0  0
 22 23  1  0  0  0  0
 22 24  1  0  0  0  0
 22 25  1  0  0  0  0
 20 26  1  0  0  0  0
 26 27  1  0  0  0  0
 26 28  1  0  0  0  0
 26 29  1  0  0  0  0
M  END
> <VM2 Rank>
187

> <Conf_Id>
482

> <Probability>
0.00

> <Sum Probability>
99.99

> <Delta G>
5.851

> <G>
39.553

> <E>
1.178

> <-TS>
38.375

> <U+W>
-22.967

> <U>
29.616

> <W>
-52.582

> <W(PB)>
-54.955

> <W(SA)>
2.373

> <Valence>
8.185

> <Coulomb>
21.112

> <VdW>
0.319

> <VdW6>
-11.889

> <VdW12>
12.208

> <Bond>
0.321

> <Angle>
2.381

> <Pdih>
5.483

> <Idih>
0.000

> <Tether>
0.000

$$$$
VeraChem MOL file


 29 28  0  0  0  0  0  0  0  0999 V2000     
   20.4470   20.6469   20.0463 C   0  0  0  0  0  0  0  0  0  0  0  0
   19.4554   21.0047   19.7398 H   0  0  0  0  0  0  0  0  0  0  0  0
   20.8770   21.3823   20.7388 H   0  0  0  0  0  0  0  0  0  0  0  0
   21.0839   20.6125   19.1529 H   0  0  0  0  0  0  0  0  0  0  0  0
   20.3550   19.2536   20.7036 C   0  0  0  0  0  0  0  0  0  0  0  0
   21.3642   18.9090   20.9691 H   0  0  0  0  0  0  0  0  0  0  0  0
   19.9546   18.5330   19.9767 H   0  0  0  0  0  0  0  0  0  0  0  0
   19.4628   19.2742   21.9641 C   0  0  0  0  0  0  0  0  0  0  0  0
   19.8602   20.0102   22.6717 H   0  0  0  0  0  0  0  0  0  0  0  0
   18.4551   19.6163   21.6909 H   0  0  0  0  0  0  0  0  0  0  0  0
   19.3690   17.8758   22.6226 C   0  0  0  0  0  0  0  0  0  0  0  0
   20.3697   17.4815   22.8443 H   0  0  0  0  0  0  0  0  0  0  0  0
   18.9315   17.1857   21.8878 H   0  0  0  0  0  0  0  0  0  0  0  0
   18.4894   17.8456   23.8987 C   0  0  0  0  0  0  0  0  0  0  0  0
   17.6574   18.5569   23.8026 H   0  0  0  0  0  0  0  0  0  0  0  0
   18.0216   16.8532   23.9598 H   0  0  0  0  0  0  0  0  0  0  0  0
   19.2413   18.0831   25.2360 C   0  0  0  0  0  0  0  0  0  0  0  0
   20.0218   17.3220   25.3686 H   0  0  0  0  0  0  0  0  0  0  0  0
   18.5208   17.9047   26.0452 H   0  0  0  0  0  0  0  0  0  0  0  0
   19.8374   19.5009   25.4040 C   0  0  2  0  0  0  0  0  0  0  0  0
   19.3234   20.1730   24.7109 H   0  0  0  0  0  0  0  0  0  0  0  0
   21.3464   19.5217   25.0984 C   0  0  0  0  0  0  0  0  0  0  0  0
   21.7379   20.5449   25.1544 H   0  0  0  0  0  0  0  0  0  0  0  0
   21.9029   18.9061   25.8161 H   0  0  0  0  0  0  0  0  0  0  0  0
   21.5596   19.1404   24.0938 H   0  0  0  0  0  0  0  0  0  0  0  0
   19.5878   20.0541   26.7804 N   0  3  0  0  0  0  0  0  0  0  0  0
   18.5869   20.0952   26.9940 H   0  0  0  0  0  0  0  0  0  0  0  0
   19.9586   21.0041   26.8745 H   0  0  0  0  0  0  0  0  0  0  0  0
   20.0336   19.4795   27.5007 H   0  0  0  0  0  0  0  0  0  0  0  0
  1  2  1  0  0  0  0
  1  3  1  0  0  0  0
  1  4  1  0  0  0  0
  1  5  1  0  0  0  0
  5  6  1  0  0  0  0
  5  7  1  0  0  0  0
  5  8  1  0  0  0  0
  8  9  1  0  0  0  0
  8 10  1  0  0  0  0
  8 11  1  0  0  0  0
 11 12  1  0  0  0  0
 11 13  1  0  0  0  0
 11 14  1  0  0  0  0
 14 15  1  0  0  0  0
 14 16  1  0  0  0  0
 14 17  1  0  0  0  0
 17 18  1  0  0  0  0
 17 19  1  0  0  0  0
 17 20  1  0  0  0  0
 20 21  1  0  0  0  0
 20 22  1  0  0  0  0
 22 23  1  0  0  0  0
 22 24  1  0  0  0  0
 22 25  1  0  0  0  0
 20 26  1  0  0  0  0
 26 27  1  0  0  0  0
 26 28  1  0  0  0  0
 26 29  1  0  0  0  0
M  END
> <VM2 Rank>
188

> <Conf_Id>
1311

> <Probability>
0.00

> <Sum Probability>
100.00

> <Delta G>
5.873

> <G>
39.575

> <E>
1.532

> <-TS>
38.044

> <U+W>
-22.613

> <U>
29.858

> <W>
-52.471

> <W(PB)>
-54.907

> <W(SA)>
2.436

> <Valence>
8.678

> <Coulomb>
20.336

> <VdW>
0.844

> <VdW6>
-10.508

> <VdW12>
11.352

> <Bond>
0.280

> <Angle>
2.113

> <Pdih>
6.286

> <Idih>
0.000

> <Tether>
0.000

$$$$
VeraChem MOL file


 29 28  0  0  0  0  0  0  0  0999 V2000     
   19.6939   19.6693   19.8782 C   0  0  0  0  0  0  0  0  0  0  0  0
   18.8717   19.1071   19.4170 H   0  0  0  0  0  0  0  0  0  0  0  0
   19.2773   20.5756   20.3349 H   0  0  0  0  0  0  0  0  0  0  0  0
   20.3755   19.9855   19.0780 H   0  0  0  0  0  0  0  0  0  0  0  0
   20.4430   18.8049   20.9172 C   0  0  0  0  0  0  0  0  0  0  0  0
   21.2484   19.3931   21.3768 H   0  0  0  0  0  0  0  0  0  0  0  0
   20.9372   17.9740   20.3949 H   0  0  0  0  0  0  0  0  0  0  0  0
   19.5166   18.2179   22.0122 C   0  0  0  0  0  0  0  0  0  0  0  0
   18.7795   17.5578   21.5350 H   0  0  0  0  0  0  0  0  0  0  0  0
   20.1124   17.5698   22.6668 H   0  0  0  0  0  0  0  0  0  0  0  0
   18.7590   19.2686   22.8684 C   0  0  0  0  0  0  0  0  0  0  0  0
   18.1191   18.7533   23.5940 H   0  0  0  0  0  0  0  0  0  0  0  0
   18.0619   19.8185   22.2225 H   0  0  0  0  0  0  0  0  0  0  0  0
   19.6606   20.2940   23.6038 C   0  0  0  0  0  0  0  0  0  0  0  0
   20.1666   20.9129   22.8511 H   0  0  0  0  0  0  0  0  0  0  0  0
   19.0222   20.9951   24.1571 H   0  0  0  0  0  0  0  0  0  0  0  0
   20.7446   19.7110   24.5580 C   0  0  0  0  0  0  0  0  0  0  0  0
   21.3565   20.5557   24.9002 H   0  0  0  0  0  0  0  0  0  0  0  0
   21.4378   19.0701   23.9988 H   0  0  0  0  0  0  0  0  0  0  0  0
   20.2545   18.9700   25.8298 C   0  0  2  0  0  0  0  0  0  0  0  0
   21.0758   19.0165   26.5515 H   0  0  0  0  0  0  0  0  0  0  0  0
   19.9757   17.4757   25.5890 C   0  0  0  0  0  0  0  0  0  0  0  0
   19.1022   17.3125   24.9512 H   0  0  0  0  0  0  0  0  0  0  0  0
   20.8397   16.9882   25.1211 H   0  0  0  0  0  0  0  0  0  0  0  0
   19.7881   16.9663   26.5421 H   0  0  0  0  0  0  0  0  0  0  0  0
   19.0881   19.6447   26.4974 N   0  3  0  0  0  0  0  0  0  0  0  0
   19.3040   20.6175   26.7328 H   0  0  0  0  0  0  0  0  0  0  0  0
   18.8259   19.1688   27.3653 H   0  0  0  0  0  0  0  0  0  0  0  0
   18.2680   19.6493   25.8857 H   0  0  0  0  0  0  0  0  0  0  0  0
  1  2  1  0  0  0  0
  1  3  1  0  0  0  0
  1  4  1  0  0  0  0
  1  5  1  0  0  0  0
  5  6  1  0  0  0  0
  5  7  1  0  0  0  0
  5  8  1  0  0  0  0
  8  9  1  0  0  0  0
  8 10  1  0  0  0  0
  8 11  1  0  0  0  0
 11 12  1  0  0  0  0
 11 13  1  0  0  0  0
 11 14  1  0  0  0  0
 14 15  1  0  0  0  0
 14 16  1  0  0  0  0
 14 17  1  0  0  0  0
 17 18  1  0  0  0  0
 17 19  1  0  0  0  0
 17 20  1  0  0  0  0
 20 21  1  0  0  0  0
 20 22  1  0  0  0  0
 22 23  1  0  0  0  0
 22 24  1  0  0  0  0
 22 25  1  0  0  0  0
 20 26  1  0  0  0  0
 26 27  1  0  0  0  0
 26 28  1  0  0  0  0
 26 29  1  0  0  0  0
M  END
> <VM2 Rank>
189

> <Conf_Id>
79

> <Probability>
0.00

> <Sum Probability>
100.00

> <Delta G>
5.943

> <G>
39.645

> <E>
0.660

> <-TS>
38.985

> <U+W>
-23.485

> <U>
29.136

> <W>
-52.620

> <W(PB)>
-54.965

> <W(SA)>
2.344

> <Valence>
7.786

> <Coulomb>
20.543

> <VdW>
0.806

> <VdW6>
-12.839

> <VdW12>
13.645

> <Bond>
0.443

> <Angle>
3.663

> <Pdih>
3.681

> <Idih>
0.000

> <Tether>
0.000

$$$$
VeraChem MOL file


 29 28  0  0  0  0  0  0  0  0999 V2000     
   20.7477   20.3441   20.6900 C   0  0  0  0  0  0  0  0  0  0  0  0
   21.4555   19.5261   20.5033 H   0  0  0  0  0  0  0  0  0  0  0  0
   21.0086   21.1740   20.0207 H   0  0  0  0  0  0  0  0  0  0  0  0
   20.8848   20.6994   21.7185 H   0  0  0  0  0  0  0  0  0  0  0  0
   19.2927   19.8902   20.4437 C   0  0  0  0  0  0  0  0  0  0  0  0
   19.1518   19.7319   19.3653 H   0  0  0  0  0  0  0  0  0  0  0  0
   18.6058   20.7010   20.7238 H   0  0  0  0  0  0  0  0  0  0  0  0
   18.8929   18.5890   21.1854 C   0  0  0  0  0  0  0  0  0  0  0  0
   17.8605   18.3497   20.8954 H   0  0  0  0  0  0  0  0  0  0  0  0
   19.5016   17.7484   20.8254 H   0  0  0  0  0  0  0  0  0  0  0  0
   18.9495   18.6758   22.7334 C   0  0  0  0  0  0  0  0  0  0  0  0
   18.1441   18.0501   23.1424 H   0  0  0  0  0  0  0  0  0  0  0  0
   18.7368   19.7061   23.0411 H   0  0  0  0  0  0  0  0  0  0  0  0
   20.2951   18.1874   23.3298 C   0  0  0  0  0  0  0  0  0  0  0  0
   20.5401   17.2117   22.8881 H   0  0  0  0  0  0  0  0  0  0  0  0
   21.1101   18.8611   23.0405 H   0  0  0  0  0  0  0  0  0  0  0  0
   20.2998   18.0202   24.8722 C   0  0  0  0  0  0  0  0  0  0  0  0
   21.2514   17.5420   25.1404 H   0  0  0  0  0  0  0  0  0  0  0  0
   19.5149   17.3173   25.1810 H   0  0  0  0  0  0  0  0  0  0  0  0
   20.1715   19.3405   25.6684 C   0  0  2  0  0  0  0  0  0  0  0  0
   20.7623   20.1090   25.1607 H   0  0  0  0  0  0  0  0  0  0  0  0
   20.7306   19.1645   27.0899 C   0  0  0  0  0  0  0  0  0  0  0  0
   20.1808   18.3900   27.6394 H   0  0  0  0  0  0  0  0  0  0  0  0
   21.7892   18.8774   27.0610 H   0  0  0  0  0  0  0  0  0  0  0  0
   20.6578   20.1019   27.6551 H   0  0  0  0  0  0  0  0  0  0  0  0
   18.7561   19.8443   25.7411 N   0  3  0  0  0  0  0  0  0  0  0  0
   18.3609   19.9849   24.8088 H   0  0  0  0  0  0  0  0  0  0  0  0
   18.7028   20.7382   26.2379 H   0  0  0  0  0  0  0  0  0  0  0  0
   18.1518   19.1827   26.2357 H   0  0  0  0  0  0  0  0  0  0  0  0
  1  2  1  0  0  0  0
  1  3  1  0  0  0  0
  1  4  1  0  0  0  0
  1  5  1  0  0  0  0
  5  6  1  0  0  0  0
  5  7  1  0  0  0  0
  5  8  1  0  0  0  0
  8  9  1  0  0  0  0
  8 10  1  0  0  0  0
  8 11  1  0  0  0  0
 11 12  1  0  0  0  0
 11 13  1  0  0  0  0
 11 14  1  0  0  0  0
 14 15  1  0  0  0  0
 14 16  1  0  0  0  0
 14 17  1  0  0  0  0
 17 18  1  0  0  0  0
 17 19  1  0  0  0  0
 17 20  1  0  0  0  0
 20 21  1  0  0  0  0
 20 22  1  0  0  0  0
 22 23  1  0  0  0  0
 22 24  1  0  0  0  0
 22 25  1  0  0  0  0
 20 26  1  0  0  0  0
 26 27  1  0  0  0  0
 26 28  1  0  0  0  0
 26 29  1  0  0  0  0
M  END
> <VM2 Rank>
190

> <Conf_Id>
1516

> <Probability>
0.00

> <Sum Probability>
100.00

> <Delta G>
6.057

> <G>
39.759

> <E>
2.258

> <-TS>
37.501

> <U+W>
-21.887

> <U>
30.431

> <W>
-52.317

> <W(PB)>
-54.736

> <W(SA)>
2.419

> <Valence>
7.908

> <Coulomb>
21.387

> <VdW>
1.135

> <VdW6>
-10.626

> <VdW12>
11.762

> <Bond>
0.341

> <Angle>
2.396

> <Pdih>
5.171

> <Idih>
0.000

> <Tether>
0.000

$$$$
VeraChem MOL file


 29 28  0  0  0  0  0  0  0  0999 V2000     
   20.8293   19.3378   20.0254 C   0  0  0  0  0  0  0  0  0  0  0  0
   21.4203   18.8683   20.8189 H   0  0  0  0  0  0  0  0  0  0  0  0
   20.4941   18.5487   19.3399 H   0  0  0  0  0  0  0  0  0  0  0  0
   21.4987   20.0030   19.4648 H   0  0  0  0  0  0  0  0  0  0  0  0
   19.6259   20.1312   20.5855 C   0  0  0  0  0  0  0  0  0  0  0  0
   19.1191   20.6159   19.7393 H   0  0  0  0  0  0  0  0  0  0  0  0
   19.9752   20.9457   21.2352 H   0  0  0  0  0  0  0  0  0  0  0  0
   18.5939   19.2489   21.3347 C   0  0  0  0  0  0  0  0  0  0  0  0
   17.5968   19.6807   21.1715 H   0  0  0  0  0  0  0  0  0  0  0  0
   18.5570   18.2450   20.8898 H   0  0  0  0  0  0  0  0  0  0  0  0
   18.8110   19.1490   22.8666 C   0  0  0  0  0  0  0  0  0  0  0  0
   17.9692   18.5879   23.2952 H   0  0  0  0  0  0  0  0  0  0  0  0
   18.7691   20.1598   23.2904 H   0  0  0  0  0  0  0  0  0  0  0  0
   20.1368   18.4627   23.2750 C   0  0  0  0  0  0  0  0  0  0  0  0
   20.2771   17.5689   22.6517 H   0  0  0  0  0  0  0  0  0  0  0  0
   20.9800   19.1313   23.0570 H   0  0  0  0  0  0  0  0  0  0  0  0
   20.2113   18.0249   24.7615 C   0  0  0  0  0  0  0  0  0  0  0  0
   21.1333   17.4401   24.8792 H   0  0  0  0  0  0  0  0  0  0  0  0
   19.3885   17.3367   24.9963 H   0  0  0  0  0  0  0  0  0  0  0  0
   20.2349   19.1888   25.7804 C   0  0  2  0  0  0  0  0  0  0  0  0
   20.8841   19.9776   25.3882 H   0  0  0  0  0  0  0  0  0  0  0  0
   20.8138   18.7122   27.1227 C   0  0  0  0  0  0  0  0  0  0  0  0
   20.2054   17.9071   27.5536 H   0  0  0  0  0  0  0  0  0  0  0  0
   21.8372   18.3373   26.9962 H   0  0  0  0  0  0  0  0  0  0  0  0
   20.8508   19.5371   27.8450 H   0  0  0  0  0  0  0  0  0  0  0  0
   18.8790   19.8005   26.0022 N   0  3  0  0  0  0  0  0  0  0  0  0
   18.4751   20.1400   25.1264 H   0  0  0  0  0  0  0  0  0  0  0  0
   18.9278   20.5933   26.6486 H   0  0  0  0  0  0  0  0  0  0  0  0
   18.2258   19.1205   26.4003 H   0  0  0  0  0  0  0  0  0  0  0  0
  1  2  1  0  0  0  0
  1  3  1  0  0  0  0
  1  4  1  0  0  0  0
  1  5  1  0  0  0  0
  5  6  1  0  0  0  0
  5  7  1  0  0  0  0
  5  8  1  0  0  0  0
  8  9  1  0  0  0  0
  8 10  1  0  0  0  0
  8 11  1  0  0  0  0
 11 12  1  0  0  0  0
 11 13  1  0  0  0  0
 11 14  1  0  0  0  0
 14 15  1  0  0  0  0
 14 16  1  0  0  0  0
 14 17  1  0  0  0  0
 17 18  1  0  0  0  0
 17 19  1  0  0  0  0
 17 20  1  0  0  0  0
 20 21  1  0  0  0  0
 20 22  1  0  0  0  0
 22 23  1  0  0  0  0
 22 24  1  0  0  0  0
 22 25  1  0  0  0  0
 20 26  1  0  0  0  0
 26 27  1  0  0  0  0
 26 28  1  0  0  0  0
 26 29  1  0  0  0  0
M  END
> <VM2 Rank>
191

> <Conf_Id>
980

> <Probability>
0.00

> <Sum Probability>
100.00

> <Delta G>
6.078

> <G>
39.780

> <E>
2.059

> <-TS>
37.721

> <U+W>
-22.086

> <U>
30.184

> <W>
-52.270

> <W(PB)>
-54.704

> <W(SA)>
2.434

> <Valence>
7.817

> <Coulomb>
21.246

> <VdW>
1.122

> <VdW6>
-10.605

> <VdW12>
11.727

> <Bond>
0.328

> <Angle>
2.365

> <Pdih>
5.124

> <Idih>
0.000

> <Tether>
0.000

$$$$
VeraChem MOL file


 29 28  0  0  0  0  0  0  0  0999 V2000     
   19.3847   18.3792   19.6299 C   0  0  0  0  0  0  0  0  0  0  0  0
   19.2721   17.3027   19.4472 H   0  0  0  0  0  0  0  0  0  0  0  0
   18.5151   18.8877   19.1934 H   0  0  0  0  0  0  0  0  0  0  0  0
   20.2826   18.7195   19.0978 H   0  0  0  0  0  0  0  0  0  0  0  0
   19.4945   18.6666   21.1422 C   0  0  0  0  0  0  0  0  0  0  0  0
   20.3512   18.1123   21.5481 H   0  0  0  0  0  0  0  0  0  0  0  0
   18.5957   18.2903   21.6501 H   0  0  0  0  0  0  0  0  0  0  0  0
   19.6608   20.1774   21.4248 C   0  0  0  0  0  0  0  0  0  0  0  0
   20.5887   20.5372   20.9591 H   0  0  0  0  0  0  0  0  0  0  0  0
   18.8422   20.7235   20.9358 H   0  0  0  0  0  0  0  0  0  0  0  0
   19.6627   20.5456   22.9307 C   0  0  0  0  0  0  0  0  0  0  0  0
   18.7001   20.2663   23.3756 H   0  0  0  0  0  0  0  0  0  0  0  0
   19.7209   21.6404   23.0044 H   0  0  0  0  0  0  0  0  0  0  0  0
   20.8469   19.9412   23.7338 C   0  0  0  0  0  0  0  0  0  0  0  0
   21.6994   19.7949   23.0563 H   0  0  0  0  0  0  0  0  0  0  0  0
   21.1938   20.6711   24.4785 H   0  0  0  0  0  0  0  0  0  0  0  0
   20.5278   18.6021   24.4531 C   0  0  0  0  0  0  0  0  0  0  0  0
   21.4547   18.0153   24.5017 H   0  0  0  0  0  0  0  0  0  0  0  0
   19.8201   18.0030   23.8676 H   0  0  0  0  0  0  0  0  0  0  0  0
   20.0022   18.7784   25.8965 C   0  0  2  0  0  0  0  0  0  0  0  0
   20.7446   19.3523   26.4594 H   0  0  0  0  0  0  0  0  0  0  0  0
   19.8383   17.4092   26.5754 C   0  0  0  0  0  0  0  0  0  0  0  0
   19.0994   16.7914   26.0498 H   0  0  0  0  0  0  0  0  0  0  0  0
   20.7906   16.8645   26.5902 H   0  0  0  0  0  0  0  0  0  0  0  0
   19.5072   17.5281   27.6145 H   0  0  0  0  0  0  0  0  0  0  0  0
   18.7182   19.5562   25.9675 N   0  3  0  0  0  0  0  0  0  0  0  0
   18.8243   20.4803   25.5396 H   0  0  0  0  0  0  0  0  0  0  0  0
   18.4183   19.6962   26.9367 H   0  0  0  0  0  0  0  0  0  0  0  0
   17.9619   19.0709   25.4779 H   0  0  0  0  0  0  0  0  0  0  0  0
  1  2  1  0  0  0  0
  1  3  1  0  0  0  0
  1  4  1  0  0  0  0
  1  5  1  0  0  0  0
  5  6  1  0  0  0  0
  5  7  1  0  0  0  0
  5  8  1  0  0  0  0
  8  9  1  0  0  0  0
  8 10  1  0  0  0  0
  8 11  1  0  0  0  0
 11 12  1  0  0  0  0
 11 13  1  0  0  0  0
 11 14  1  0  0  0  0
 14 15  1  0  0  0  0
 14 16  1  0  0  0  0
 14 17  1  0  0  0  0
 17 18  1  0  0  0  0
 17 19  1  0  0  0  0
 17 20  1  0  0  0  0
 20 21  1  0  0  0  0
 20 22  1  0  0  0  0
 22 23  1  0  0  0  0
 22 24  1  0  0  0  0
 22 25  1  0  0  0  0
 20 26  1  0  0  0  0
 26 27  1  0  0  0  0
 26 28  1  0  0  0  0
 26 29  1  0  0  0  0
M  END
> <VM2 Rank>
192

> <Conf_Id>
656

> <Probability>
0.00

> <Sum Probability>
100.00

> <Delta G>
6.112

> <G>
39.814

> <E>
1.851

> <-TS>
37.963

> <U+W>
-22.293

> <U>
30.054

> <W>
-52.347

> <W(PB)>
-54.788

> <W(SA)>
2.441

> <Valence>
8.014

> <Coulomb>
20.943

> <VdW>
1.097

> <VdW6>
-10.534

> <VdW12>
11.631

> <Bond>
0.334

> <Angle>
1.815

> <Pdih>
5.865

> <Idih>
0.000

> <Tether>
0.000

$$$$
VeraChem MOL file


 29 28  0  0  0  0  0  0  0  0999 V2000     
   18.7014   20.7184   20.9173 C   0  0  0  0  0  0  0  0  0  0  0  0
   18.3424   21.2299   20.0148 H   0  0  0  0  0  0  0  0  0  0  0  0
   17.8665   20.6737   21.6284 H   0  0  0  0  0  0  0  0  0  0  0  0
   19.4953   21.3389   21.3507 H   0  0  0  0  0  0  0  0  0  0  0  0
   19.2108   19.3021   20.5649 C   0  0  0  0  0  0  0  0  0  0  0  0
   20.0539   19.3749   19.8637 H   0  0  0  0  0  0  0  0  0  0  0  0
   18.4145   18.7631   20.0328 H   0  0  0  0  0  0  0  0  0  0  0  0
   19.6283   18.4743   21.8033 C   0  0  0  0  0  0  0  0  0  0  0  0
   18.7779   18.4086   22.4927 H   0  0  0  0  0  0  0  0  0  0  0  0
   19.8391   17.4451   21.4815 H   0  0  0  0  0  0  0  0  0  0  0  0
   20.8811   19.0371   22.5217 C   0  0  0  0  0  0  0  0  0  0  0  0
   20.7216   20.0717   22.8448 H   0  0  0  0  0  0  0  0  0  0  0  0
   21.7068   19.0828   21.7981 H   0  0  0  0  0  0  0  0  0  0  0  0
   21.3417   18.1777   23.7262 C   0  0  0  0  0  0  0  0  0  0  0  0
   21.6366   17.1861   23.3561 H   0  0  0  0  0  0  0  0  0  0  0  0
   22.2560   18.6226   24.1428 H   0  0  0  0  0  0  0  0  0  0  0  0
   20.3136   17.9875   24.8757 C   0  0  0  0  0  0  0  0  0  0  0  0
   20.7873   17.3367   25.6227 H   0  0  0  0  0  0  0  0  0  0  0  0
   19.4337   17.4351   24.5227 H   0  0  0  0  0  0  0  0  0  0  0  0
   19.8752   19.2979   25.5718 C   0  0  2  0  0  0  0  0  0  0  0  0
   20.7508   19.9482   25.6613 H   0  0  0  0  0  0  0  0  0  0  0  0
   19.3452   19.0055   26.9851 C   0  0  0  0  0  0  0  0  0  0  0  0
   18.4737   18.3397   26.9521 H   0  0  0  0  0  0  0  0  0  0  0  0
   20.1174   18.5279   27.6010 H   0  0  0  0  0  0  0  0  0  0  0  0
   19.0480   19.9338   27.4885 H   0  0  0  0  0  0  0  0  0  0  0  0
   18.8386   20.0553   24.7879 N   0  3  0  0  0  0  0  0  0  0  0  0
   17.9573   19.5365   24.7451 H   0  0  0  0  0  0  0  0  0  0  0  0
   19.1497   20.2172   23.8258 H   0  0  0  0  0  0  0  0  0  0  0  0
   18.6386   20.9654   25.2134 H   0  0  0  0  0  0  0  0  0  0  0  0
  1  2  1  0  0  0  0
  1  3  1  0  0  0  0
  1  4  1  0  0  0  0
  1  5  1  0  0  0  0
  5  6  1  0  0  0  0
  5  7  1  0  0  0  0
  5  8  1  0  0  0  0
  8  9  1  0  0  0  0
  8 10  1  0  0  0  0
  8 11  1  0  0  0  0
 11 12  1  0  0  0  0
 11 13  1  0  0  0  0
 11 14  1  0  0  0  0
 14 15  1  0  0  0  0
 14 16  1  0  0  0  0
 14 17  1  0  0  0  0
 17 18  1  0  0  0  0
 17 19  1  0  0  0  0
 17 20  1  0  0  0  0
 20 21  1  0  0  0  0
 20 22  1  0  0  0  0
 22 23  1  0  0  0  0
 22 24  1  0  0  0  0
 22 25  1  0  0  0  0
 20 26  1  0  0  0  0
 26 27  1  0  0  0  0
 26 28  1  0  0  0  0
 26 29  1  0  0  0  0
M  END
> <VM2 Rank>
193

> <Conf_Id>
629

> <Probability>
0.00

> <Sum Probability>
100.00

> <Delta G>
6.245

> <G>
39.947

> <E>
1.605

> <-TS>
38.342

> <U+W>
-22.539

> <U>
28.370

> <W>
-50.909

> <W(PB)>
-53.309

> <W(SA)>
2.400

> <Valence>
5.939

> <Coulomb>
21.711

> <VdW>
0.720

> <VdW6>
-11.570

> <VdW12>
12.290

> <Bond>
0.321

> <Angle>
2.349

> <Pdih>
3.269

> <Idih>
0.000

> <Tether>
0.000

$$$$
VeraChem MOL file


 29 28  0  0  0  0  0  0  0  0999 V2000     
   21.2929   19.9371   21.3353 C   0  0  0  0  0  0  0  0  0  0  0  0
   21.1505   20.1654   22.3966 H   0  0  0  0  0  0  0  0  0  0  0  0
   22.3422   19.6470   21.1954 H   0  0  0  0  0  0  0  0  0  0  0  0
   21.1245   20.8610   20.7669 H   0  0  0  0  0  0  0  0  0  0  0  0
   20.3511   18.8115   20.8471 C   0  0  0  0  0  0  0  0  0  0  0  0
   20.5761   17.8663   21.3590 H   0  0  0  0  0  0  0  0  0  0  0  0
   20.5672   18.6331   19.7844 H   0  0  0  0  0  0  0  0  0  0  0  0
   18.8472   19.1579   20.9881 C   0  0  0  0  0  0  0  0  0  0  0  0
   18.6928   20.2370   20.8510 H   0  0  0  0  0  0  0  0  0  0  0  0
   18.3152   18.6789   20.1544 H   0  0  0  0  0  0  0  0  0  0  0  0
   18.1636   18.6838   22.2995 C   0  0  0  0  0  0  0  0  0  0  0  0
   18.2473   17.5925   22.3957 H   0  0  0  0  0  0  0  0  0  0  0  0
   17.0884   18.8857   22.1958 H   0  0  0  0  0  0  0  0  0  0  0  0
   18.6513   19.3773   23.5967 C   0  0  0  0  0  0  0  0  0  0  0  0
   19.0109   20.3899   23.3696 H   0  0  0  0  0  0  0  0  0  0  0  0
   17.7858   19.5063   24.2603 H   0  0  0  0  0  0  0  0  0  0  0  0
   19.7334   18.5648   24.3540 C   0  0  0  0  0  0  0  0  0  0  0  0
   20.5476   18.3032   23.6693 H   0  0  0  0  0  0  0  0  0  0  0  0
   19.3054   17.6137   24.6974 H   0  0  0  0  0  0  0  0  0  0  0  0
   20.3252   19.3306   25.5566 C   0  0  2  0  0  0  0  0  0  0  0  0
   20.7206   20.2845   25.1943 H   0  0  0  0  0  0  0  0  0  0  0  0
   21.4825   18.5346   26.1803 C   0  0  0  0  0  0  0  0  0  0  0  0
   21.1376   17.5654   26.5618 H   0  0  0  0  0  0  0  0  0  0  0  0
   22.2715   18.3496   25.4406 H   0  0  0  0  0  0  0  0  0  0  0  0
   21.9312   19.0899   27.0132 H   0  0  0  0  0  0  0  0  0  0  0  0
   19.2888   19.6584   26.5964 N   0  3  0  0  0  0  0  0  0  0  0  0
   18.5322   20.2251   26.2037 H   0  0  0  0  0  0  0  0  0  0  0  0
   19.6939   20.1849   27.3757 H   0  0  0  0  0  0  0  0  0  0  0  0
   18.8691   18.8096   26.9848 H   0  0  0  0  0  0  0  0  0  0  0  0
  1  2  1  0  0  0  0
  1  3  1  0  0  0  0
  1  4  1  0  0  0  0
  1  5  1  0  0  0  0
  5  6  1  0  0  0  0
  5  7  1  0  0  0  0
  5  8  1  0  0  0  0
  8  9  1  0  0  0  0
  8 10  1  0  0  0  0
  8 11  1  0  0  0  0
 11 12  1  0  0  0  0
 11 13  1  0  0  0  0
 11 14  1  0  0  0  0
 14 15  1  0  0  0  0
 14 16  1  0  0  0  0
 14 17  1  0  0  0  0
 17 18  1  0  0  0  0
 17 19  1  0  0  0  0
 17 20  1  0  0  0  0
 20 21  1  0  0  0  0
 20 22  1  0  0  0  0
 22 23  1  0  0  0  0
 22 24  1  0  0  0  0
 22 25  1  0  0  0  0
 20 26  1  0  0  0  0
 26 27  1  0  0  0  0
 26 28  1  0  0  0  0
 26 29  1  0  0  0  0
M  END
> <VM2 Rank>
194

> <Conf_Id>
1208

> <Probability>
0.00

> <Sum Probability>
100.00

> <Delta G>
6.256

> <G>
39.958

> <E>
1.672

> <-TS>
38.286

> <U+W>
-22.472

> <U>
30.008

> <W>
-52.480

> <W(PB)>
-54.891

> <W(SA)>
2.411

> <Valence>
8.778

> <Coulomb>
20.386

> <VdW>
0.844

> <VdW6>
-10.989

> <VdW12>
11.834

> <Bond>
0.330

> <Angle>
2.382

> <Pdih>
6.066

> <Idih>
0.000

> <Tether>
0.000

$$$$
VeraChem MOL file


 29 28  0  0  0  0  0  0  0  0999 V2000     
   18.0810   19.7610   20.9360 C   0  0  0  0  0  0  0  0  0  0  0  0
   17.5078   19.9093   20.0116 H   0  0  0  0  0  0  0  0  0  0  0  0
   17.6812   18.8662   21.4286 H   0  0  0  0  0  0  0  0  0  0  0  0
   17.8969   20.6273   21.5843 H   0  0  0  0  0  0  0  0  0  0  0  0
   19.5861   19.6129   20.6167 C   0  0  0  0  0  0  0  0  0  0  0  0
   19.9081   20.4806   20.0240 H   0  0  0  0  0  0  0  0  0  0  0  0
   19.7455   18.7307   19.9811 H   0  0  0  0  0  0  0  0  0  0  0  0
   20.4751   19.5174   21.8792 C   0  0  0  0  0  0  0  0  0  0  0  0
   21.5286   19.5550   21.5693 H   0  0  0  0  0  0  0  0  0  0  0  0
   20.3095   20.4050   22.5016 H   0  0  0  0  0  0  0  0  0  0  0  0
   20.2421   18.2208   22.6954 C   0  0  0  0  0  0  0  0  0  0  0  0
   20.4153   17.3582   22.0372 H   0  0  0  0  0  0  0  0  0  0  0  0
   19.1977   18.1390   23.0147 H   0  0  0  0  0  0  0  0  0  0  0  0
   21.1780   18.0879   23.9235 C   0  0  0  0  0  0  0  0  0  0  0  0
   21.0030   17.1130   24.3978 H   0  0  0  0  0  0  0  0  0  0  0  0
   22.2163   18.0523   23.5661 H   0  0  0  0  0  0  0  0  0  0  0  0
   21.0710   19.2100   24.9979 C   0  0  0  0  0  0  0  0  0  0  0  0
   21.4059   20.1647   24.5735 H   0  0  0  0  0  0  0  0  0  0  0  0
   21.7976   18.9800   25.7883 H   0  0  0  0  0  0  0  0  0  0  0  0
   19.6932   19.4120   25.6796 C   0  0  2  0  0  0  0  0  0  0  0  0
   19.8573   20.0684   26.5397 H   0  0  0  0  0  0  0  0  0  0  0  0
   19.1046   18.0955   26.2160 C   0  0  0  0  0  0  0  0  0  0  0  0
   18.2067   18.2921   26.8145 H   0  0  0  0  0  0  0  0  0  0  0  0
   18.8235   17.4154   25.4033 H   0  0  0  0  0  0  0  0  0  0  0  0
   19.8280   17.5811   26.8607 H   0  0  0  0  0  0  0  0  0  0  0  0
   18.7049   20.1385   24.8096 N   0  3  0  0  0  0  0  0  0  0  0  0
   19.0419   21.0743   24.5659 H   0  0  0  0  0  0  0  0  0  0  0  0
   17.8032   20.2509   25.2822 H   0  0  0  0  0  0  0  0  0  0  0  0
   18.5431   19.6312   23.9360 H   0  0  0  0  0  0  0  0  0  0  0  0
  1  2  1  0  0  0  0
  1  3  1  0  0  0  0
  1  4  1  0  0  0  0
  1  5  1  0  0  0  0
  5  6  1  0  0  0  0
  5  7  1  0  0  0  0
  5  8  1  0  0  0  0
  8  9  1  0  0  0  0
  8 10  1  0  0  0  0
  8 11  1  0  0  0  0
 11 12  1  0  0  0  0
 11 13  1  0  0  0  0
 11 14  1  0  0  0  0
 14 15  1  0  0  0  0
 14 16  1  0  0  0  0
 14 17  1  0  0  0  0
 17 18  1  0  0  0  0
 17 19  1  0  0  0  0
 17 20  1  0  0  0  0
 20 21  1  0  0  0  0
 20 22  1  0  0  0  0
 22 23  1  0  0  0  0
 22 24  1  0  0  0  0
 22 25  1  0  0  0  0
 20 26  1  0  0  0  0
 26 27  1  0  0  0  0
 26 28  1  0  0  0  0
 26 29  1  0  0  0  0
M  END
> <VM2 Rank>
195

> <Conf_Id>
1030

> <Probability>
0.00

> <Sum Probability>
100.00

> <Delta G>
6.288

> <G>
39.990

> <E>
1.247

> <-TS>
38.743

> <U+W>
-22.898

> <U>
28.640

> <W>
-51.538

> <W(PB)>
-53.873

> <W(SA)>
2.335

> <Valence>
6.059

> <Coulomb>
21.999

> <VdW>
0.582

> <VdW6>
-12.549

> <VdW12>
13.131

> <Bond>
0.383

> <Angle>
2.850

> <Pdih>
2.826

> <Idih>
0.000

> <Tether>
0.000

$$$$
VeraChem MOL file


 29 28  0  0  0  0  0  0  0  0999 V2000     
   19.7089   18.2252   20.1337 C   0  0  0  0  0  0  0  0  0  0  0  0
   20.8038   18.2029   20.0599 H   0  0  0  0  0  0  0  0  0  0  0  0
   19.4034   17.6078   20.9877 H   0  0  0  0  0  0  0  0  0  0  0  0
   19.3018   17.7577   19.2278 H   0  0  0  0  0  0  0  0  0  0  0  0
   19.1901   19.6730   20.2737 C   0  0  0  0  0  0  0  0  0  0  0  0
   18.0968   19.6586   20.3848 H   0  0  0  0  0  0  0  0  0  0  0  0
   19.3937   20.2124   19.3382 H   0  0  0  0  0  0  0  0  0  0  0  0
   19.8200   20.4660   21.4472 C   0  0  0  0  0  0  0  0  0  0  0  0
   20.9031   20.5710   21.2952 H   0  0  0  0  0  0  0  0  0  0  0  0
   19.4155   21.4870   21.4105 H   0  0  0  0  0  0  0  0  0  0  0  0
   19.5272   19.8791   22.8526 C   0  0  0  0  0  0  0  0  0  0  0  0
   18.5723   19.3359   22.8385 H   0  0  0  0  0  0  0  0  0  0  0  0
   19.4034   20.7207   23.5454 H   0  0  0  0  0  0  0  0  0  0  0  0
   20.6645   18.9694   23.3827 C   0  0  0  0  0  0  0  0  0  0  0  0
   20.9692   18.2674   22.5973 H   0  0  0  0  0  0  0  0  0  0  0  0
   21.5515   19.5829   23.5928 H   0  0  0  0  0  0  0  0  0  0  0  0
   20.3009   18.1418   24.6435 C   0  0  0  0  0  0  0  0  0  0  0  0
   21.1438   17.4654   24.8388 H   0  0  0  0  0  0  0  0  0  0  0  0
   19.4394   17.4937   24.4352 H   0  0  0  0  0  0  0  0  0  0  0  0
   20.0366   18.9792   25.9172 C   0  0  2  0  0  0  0  0  0  0  0  0
   20.7682   19.7922   25.9539 H   0  0  0  0  0  0  0  0  0  0  0  0
   20.2168   18.1123   27.1742 C   0  0  0  0  0  0  0  0  0  0  0  0
   20.0476   18.7042   28.0822 H   0  0  0  0  0  0  0  0  0  0  0  0
   19.5140   17.2696   27.1791 H   0  0  0  0  0  0  0  0  0  0  0  0
   21.2355   17.7084   27.2279 H   0  0  0  0  0  0  0  0  0  0  0  0
   18.6711   19.6101   25.9292 N   0  3  0  0  0  0  0  0  0  0  0  0
   18.5363   20.1937   26.7598 H   0  0  0  0  0  0  0  0  0  0  0  0
   17.9343   18.8998   25.9311 H   0  0  0  0  0  0  0  0  0  0  0  0
   18.5263   20.2023   25.1082 H   0  0  0  0  0  0  0  0  0  0  0  0
  1  2  1  0  0  0  0
  1  3  1  0  0  0  0
  1  4  1  0  0  0  0
  1  5  1  0  0  0  0
  5  6  1  0  0  0  0
  5  7  1  0  0  0  0
  5  8  1  0  0  0  0
  8  9  1  0  0  0  0
  8 10  1  0  0  0  0
  8 11  1  0  0  0  0
 11 12  1  0  0  0  0
 11 13  1  0  0  0  0
 11 14  1  0  0  0  0
 14 15  1  0  0  0  0
 14 16  1  0  0  0  0
 14 17  1  0  0  0  0
 17 18  1  0  0  0  0
 17 19  1  0  0  0  0
 17 20  1  0  0  0  0
 20 21  1  0  0  0  0
 20 22  1  0  0  0  0
 22 23  1  0  0  0  0
 22 24  1  0  0  0  0
 22 25  1  0  0  0  0
 20 26  1  0  0  0  0
 26 27  1  0  0  0  0
 26 28  1  0  0  0  0
 26 29  1  0  0  0  0
M  END
> <VM2 Rank>
196

> <Conf_Id>
1305

> <Probability>
0.00

> <Sum Probability>
100.00

> <Delta G>
6.429

> <G>
40.131

> <E>
2.284

> <-TS>
37.847

> <U+W>
-21.860

> <U>
30.313

> <W>
-52.173

> <W(PB)>
-54.606

> <W(SA)>
2.433

> <Valence>
7.949

> <Coulomb>
21.217

> <VdW>
1.147

> <VdW6>
-10.650

> <VdW12>
11.797

> <Bond>
0.329

> <Angle>
2.264

> <Pdih>
5.357

> <Idih>
0.000

> <Tether>
0.000

$$$$
VeraChem MOL file


 29 28  0  0  0  0  0  0  0  0999 V2000     
   20.6614   19.0546   19.8076 C   0  0  0  0  0  0  0  0  0  0  0  0
   21.3483   18.7169   20.5919 H   0  0  0  0  0  0  0  0  0  0  0  0
   20.7021   18.3235   18.9899 H   0  0  0  0  0  0  0  0  0  0  0  0
   21.0377   20.0099   19.4193 H   0  0  0  0  0  0  0  0  0  0  0  0
   19.2132   19.2046   20.3289 C   0  0  0  0  0  0  0  0  0  0  0  0
   18.8118   18.2267   20.6293 H   0  0  0  0  0  0  0  0  0  0  0  0
   18.5850   19.5445   19.4936 H   0  0  0  0  0  0  0  0  0  0  0  0
   19.0862   20.2218   21.4921 C   0  0  0  0  0  0  0  0  0  0  0  0
   19.8985   20.9600   21.4427 H   0  0  0  0  0  0  0  0  0  0  0  0
   18.1592   20.7936   21.3461 H   0  0  0  0  0  0  0  0  0  0  0  0
   19.0275   19.5907   22.9074 C   0  0  0  0  0  0  0  0  0  0  0  0
   18.1496   18.9336   22.9768 H   0  0  0  0  0  0  0  0  0  0  0  0
   18.8694   20.4094   23.6185 H   0  0  0  0  0  0  0  0  0  0  0  0
   20.2996   18.8021   23.3040 C   0  0  0  0  0  0  0  0  0  0  0  0
   20.4754   18.0136   22.5620 H   0  0  0  0  0  0  0  0  0  0  0  0
   21.1724   19.4681   23.2633 H   0  0  0  0  0  0  0  0  0  0  0  0
   20.2365   18.1151   24.6939 C   0  0  0  0  0  0  0  0  0  0  0  0
   21.1482   17.5110   24.7935 H   0  0  0  0  0  0  0  0  0  0  0  0
   19.4020   17.4022   24.7267 H   0  0  0  0  0  0  0  0  0  0  0  0
   20.1512   19.0840   25.8973 C   0  0  2  0  0  0  0  0  0  0  0  0
   20.7619   19.9648   25.6763 H   0  0  0  0  0  0  0  0  0  0  0  0
   20.7103   18.4164   27.1647 C   0  0  0  0  0  0  0  0  0  0  0  0
   20.1417   17.5137   27.4213 H   0  0  0  0  0  0  0  0  0  0  0  0
   21.7606   18.1313   27.0255 H   0  0  0  0  0  0  0  0  0  0  0  0
   20.6649   19.1037   28.0185 H   0  0  0  0  0  0  0  0  0  0  0  0
   18.7503   19.5668   26.1582 N   0  3  0  0  0  0  0  0  0  0  0  0
   18.3511   20.0232   25.3349 H   0  0  0  0  0  0  0  0  0  0  0  0
   18.7248   20.2410   26.9285 H   0  0  0  0  0  0  0  0  0  0  0  0
   18.1317   18.7913   26.4102 H   0  0  0  0  0  0  0  0  0  0  0  0
  1  2  1  0  0  0  0
  1  3  1  0  0  0  0
  1  4  1  0  0  0  0
  1  5  1  0  0  0  0
  5  6  1  0  0  0  0
  5  7  1  0  0  0  0
  5  8  1  0  0  0  0
  8  9  1  0  0  0  0
  8 10  1  0  0  0  0
  8 11  1  0  0  0  0
 11 12  1  0  0  0  0
 11 13  1  0  0  0  0
 11 14  1  0  0  0  0
 14 15  1  0  0  0  0
 14 16  1  0  0  0  0
 14 17  1  0  0  0  0
 17 18  1  0  0  0  0
 17 19  1  0  0  0  0
 17 20  1  0  0  0  0
 20 21  1  0  0  0  0
 20 22  1  0  0  0  0
 22 23  1  0  0  0  0
 22 24  1  0  0  0  0
 22 25  1  0  0  0  0
 20 26  1  0  0  0  0
 26 27  1  0  0  0  0
 26 28  1  0  0  0  0
 26 29  1  0  0  0  0
M  END
> <VM2 Rank>
197

> <Conf_Id>
849

> <Probability>
0.00

> <Sum Probability>
100.00

> <Delta G>
6.439

> <G>
40.141

> <E>
2.582

> <-TS>
37.559

> <U+W>
-21.563

> <U>
30.679

> <W>
-52.243

> <W(PB)>
-54.668

> <W(SA)>
2.425

> <Valence>
8.266

> <Coulomb>
21.123

> <VdW>
1.291

> <VdW6>
-10.405

> <VdW12>
11.696

> <Bond>
0.334

> <Angle>
2.444

> <Pdih>
5.487

> <Idih>
0.000

> <Tether>
0.000

$$$$
VeraChem MOL file


 29 28  0  0  0  0  0  0  0  0999 V2000     
   19.6992   17.8019   20.8001 C   0  0  0  0  0  0  0  0  0  0  0  0
   20.7827   17.8503   20.6308 H   0  0  0  0  0  0  0  0  0  0  0  0
   19.5183   17.4038   21.8054 H   0  0  0  0  0  0  0  0  0  0  0  0
   19.2787   17.0837   20.0845 H   0  0  0  0  0  0  0  0  0  0  0  0
   19.0437   19.1882   20.6200 C   0  0  0  0  0  0  0  0  0  0  0  0
   17.9789   19.1254   20.8842 H   0  0  0  0  0  0  0  0  0  0  0  0
   19.0769   19.4558   19.5546 H   0  0  0  0  0  0  0  0  0  0  0  0
   19.7161   20.3259   21.4303 C   0  0  0  0  0  0  0  0  0  0  0  0
   20.7537   20.4635   21.0969 H   0  0  0  0  0  0  0  0  0  0  0  0
   19.1987   21.2608   21.1743 H   0  0  0  0  0  0  0  0  0  0  0  0
   19.6603   20.1529   22.9709 C   0  0  0  0  0  0  0  0  0  0  0  0
   18.7497   19.6039   23.2380 H   0  0  0  0  0  0  0  0  0  0  0  0
   19.5730   21.1494   23.4255 H   0  0  0  0  0  0  0  0  0  0  0  0
   20.9153   19.4596   23.5609 C   0  0  0  0  0  0  0  0  0  0  0  0
   20.9892   18.4263   23.2046 H   0  0  0  0  0  0  0  0  0  0  0  0
   21.8089   19.9675   23.1733 H   0  0  0  0  0  0  0  0  0  0  0  0
   20.9990   19.4848   25.1133 C   0  0  0  0  0  0  0  0  0  0  0  0
   21.0618   20.5256   25.4568 H   0  0  0  0  0  0  0  0  0  0  0  0
   21.9535   19.0256   25.4024 H   0  0  0  0  0  0  0  0  0  0  0  0
   19.8768   18.7617   25.9009 C   0  0  2  0  0  0  0  0  0  0  0  0
   20.2189   18.6846   26.9376 H   0  0  0  0  0  0  0  0  0  0  0  0
   19.6279   17.3311   25.3928 C   0  0  0  0  0  0  0  0  0  0  0  0
   18.9392   16.8004   26.0615 H   0  0  0  0  0  0  0  0  0  0  0  0
   19.1880   17.3294   24.3886 H   0  0  0  0  0  0  0  0  0  0  0  0
   20.5651   16.7618   25.3597 H   0  0  0  0  0  0  0  0  0  0  0  0
   18.5977   19.5499   25.9648 N   0  3  0  0  0  0  0  0  0  0  0  0
   18.1971   19.6834   25.0341 H   0  0  0  0  0  0  0  0  0  0  0  0
   18.7498   20.4773   26.3718 H   0  0  0  0  0  0  0  0  0  0  0  0
   17.8952   19.0755   26.5395 H   0  0  0  0  0  0  0  0  0  0  0  0
  1  2  1  0  0  0  0
  1  3  1  0  0  0  0
  1  4  1  0  0  0  0
  1  5  1  0  0  0  0
  5  6  1  0  0  0  0
  5  7  1  0  0  0  0
  5  8  1  0  0  0  0
  8  9  1  0  0  0  0
  8 10  1  0  0  0  0
  8 11  1  0  0  0  0
 11 12  1  0  0  0  0
 11 13  1  0  0  0  0
 11 14  1  0  0  0  0
 14 15  1  0  0  0  0
 14 16  1  0  0  0  0
 14 17  1  0  0  0  0
 17 18  1  0  0  0  0
 17 19  1  0  0  0  0
 17 20  1  0  0  0  0
 20 21  1  0  0  0  0
 20 22  1  0  0  0  0
 22 23  1  0  0  0  0
 22 24  1  0  0  0  0
 22 25  1  0  0  0  0
 20 26  1  0  0  0  0
 26 27  1  0  0  0  0
 26 28  1  0  0  0  0
 26 29  1  0  0  0  0
M  END
> <VM2 Rank>
198

> <Conf_Id>
1002

> <Probability>
0.00

> <Sum Probability>
100.00

> <Delta G>
6.517

> <G>
40.219

> <E>
1.807

> <-TS>
38.413

> <U+W>
-22.338

> <U>
30.418

> <W>
-52.756

> <W(PB)>
-55.133

> <W(SA)>
2.377

> <Valence>
8.027

> <Coulomb>
21.569

> <VdW>
0.823

> <VdW6>
-11.950

> <VdW12>
12.774

> <Bond>
0.390

> <Angle>
2.986

> <Pdih>
4.651

> <Idih>
0.000

> <Tether>
0.000

$$$$
VeraChem MOL file


 29 28  0  0  0  0  0  0  0  0999 V2000     
   20.7439   20.0039   20.0876 C   0  0  0  0  0  0  0  0  0  0  0  0
   21.4088   19.9464   20.9563 H   0  0  0  0  0  0  0  0  0  0  0  0
   21.3213   19.6947   19.2068 H   0  0  0  0  0  0  0  0  0  0  0  0
   20.4607   21.0552   19.9476 H   0  0  0  0  0  0  0  0  0  0  0  0
   19.4910   19.1123   20.2523 C   0  0  0  0  0  0  0  0  0  0  0  0
   19.7814   18.0552   20.3283 H   0  0  0  0  0  0  0  0  0  0  0  0
   18.8941   19.1961   19.3334 H   0  0  0  0  0  0  0  0  0  0  0  0
   18.6008   19.5148   21.4563 C   0  0  0  0  0  0  0  0  0  0  0  0
   18.6796   20.5946   21.6428 H   0  0  0  0  0  0  0  0  0  0  0  0
   17.5524   19.3389   21.1779 H   0  0  0  0  0  0  0  0  0  0  0  0
   18.8733   18.7257   22.7629 C   0  0  0  0  0  0  0  0  0  0  0  0
   18.6978   17.6561   22.5826 H   0  0  0  0  0  0  0  0  0  0  0  0
   18.1242   19.0298   23.5024 H   0  0  0  0  0  0  0  0  0  0  0  0
   20.2997   18.9175   23.3362 C   0  0  0  0  0  0  0  0  0  0  0  0
   21.0113   18.4479   22.6447 H   0  0  0  0  0  0  0  0  0  0  0  0
   20.5605   19.9842   23.3730 H   0  0  0  0  0  0  0  0  0  0  0  0
   20.5014   18.2738   24.7332 C   0  0  0  0  0  0  0  0  0  0  0  0
   21.5478   17.9479   24.8048 H   0  0  0  0  0  0  0  0  0  0  0  0
   19.8952   17.3628   24.8250 H   0  0  0  0  0  0  0  0  0  0  0  0
   20.2252   19.2290   25.9178 C   0  0  2  0  0  0  0  0  0  0  0  0
   20.8636   20.1098   25.7987 H   0  0  0  0  0  0  0  0  0  0  0  0
   20.5911   18.5481   27.2465 C   0  0  0  0  0  0  0  0  0  0  0  0
   19.9763   17.6555   27.4173 H   0  0  0  0  0  0  0  0  0  0  0  0
   21.6450   18.2432   27.2516 H   0  0  0  0  0  0  0  0  0  0  0  0
   20.4395   19.2340   28.0891 H   0  0  0  0  0  0  0  0  0  0  0  0
   18.8097   19.7310   25.9610 N   0  3  0  0  0  0  0  0  0  0  0  0
   18.5681   20.2241   25.0970 H   0  0  0  0  0  0  0  0  0  0  0  0
   18.6670   20.3819   26.7386 H   0  0  0  0  0  0  0  0  0  0  0  0
   18.1455   18.9612   26.0775 H   0  0  0  0  0  0  0  0  0  0  0  0
  1  2  1  0  0  0  0
  1  3  1  0  0  0  0
  1  4  1  0  0  0  0
  1  5  1  0  0  0  0
  5  6  1  0  0  0  0
  5  7  1  0  0  0  0
  5  8  1  0  0  0  0
  8  9  1  0  0  0  0
  8 10  1  0  0  0  0
  8 11  1  0  0  0  0
 11 12  1  0  0  0  0
 11 13  1  0  0  0  0
 11 14  1  0  0  0  0
 14 15  1  0  0  0  0
 14 16  1  0  0  0  0
 14 17  1  0  0  0  0
 17 18  1  0  0  0  0
 17 19  1  0  0  0  0
 17 20  1  0  0  0  0
 20 21  1  0  0  0  0
 20 22  1  0  0  0  0
 22 23  1  0  0  0  0
 22 24  1  0  0  0  0
 22 25  1  0  0  0  0
 20 26  1  0  0  0  0
 26 27  1  0  0  0  0
 26 28  1  0  0  0  0
 26 29  1  0  0  0  0
M  END
> <VM2 Rank>
199

> <Conf_Id>
1074

> <Probability>
0.00

> <Sum Probability>
100.00

> <Delta G>
6.518

> <G>
40.220

> <E>
2.432

> <-TS>
37.789

> <U+W>
-21.713

> <U>
30.319

> <W>
-52.032

> <W(PB)>
-54.489

> <W(SA)>
2.457

> <Valence>
8.319

> <Coulomb>
20.774

> <VdW>
1.226

> <VdW6>
-10.363

> <VdW12>
11.589

> <Bond>
0.335

> <Angle>
2.135

> <Pdih>
5.849

> <Idih>
0.000

> <Tether>
0.000

$$$$
VeraChem MOL file


 29 28  0  0  0  0  0  0  0  0999 V2000     
   19.5206   21.1213   21.1047 C   0  0  0  0  0  0  0  0  0  0  0  0
   20.1283   21.1370   20.1905 H   0  0  0  0  0  0  0  0  0  0  0  0
   18.6035   21.6922   20.9098 H   0  0  0  0  0  0  0  0  0  0  0  0
   20.0787   21.6398   21.8952 H   0  0  0  0  0  0  0  0  0  0  0  0
   19.1836   19.6744   21.5210 C   0  0  0  0  0  0  0  0  0  0  0  0
   18.5933   19.1959   20.7271 H   0  0  0  0  0  0  0  0  0  0  0  0
   18.5423   19.6923   22.4102 H   0  0  0  0  0  0  0  0  0  0  0  0
   20.4621   18.8423   21.7824 C   0  0  0  0  0  0  0  0  0  0  0  0
   20.9990   18.7381   20.8294 H   0  0  0  0  0  0  0  0  0  0  0  0
   21.1492   19.3752   22.4529 H   0  0  0  0  0  0  0  0  0  0  0  0
   20.1614   17.4274   22.3381 C   0  0  0  0  0  0  0  0  0  0  0  0
   20.8621   16.7240   21.8671 H   0  0  0  0  0  0  0  0  0  0  0  0
   19.1619   17.0988   22.0214 H   0  0  0  0  0  0  0  0  0  0  0  0
   20.3107   17.2681   23.8754 C   0  0  0  0  0  0  0  0  0  0  0  0
   20.1504   16.2061   24.1070 H   0  0  0  0  0  0  0  0  0  0  0  0
   21.3469   17.4713   24.1716 H   0  0  0  0  0  0  0  0  0  0  0  0
   19.3144   18.0897   24.7389 C   0  0  0  0  0  0  0  0  0  0  0  0
   19.2189   17.6042   25.7192 H   0  0  0  0  0  0  0  0  0  0  0  0
   18.3193   18.0283   24.2796 H   0  0  0  0  0  0  0  0  0  0  0  0
   19.6890   19.5744   24.9696 C   0  0  2  0  0  0  0  0  0  0  0  0
   19.8793   20.0456   24.0029 H   0  0  0  0  0  0  0  0  0  0  0  0
   20.9502   19.7287   25.8384 C   0  0  0  0  0  0  0  0  0  0  0  0
   20.8305   19.2246   26.8055 H   0  0  0  0  0  0  0  0  0  0  0  0
   21.8338   19.3129   25.3416 H   0  0  0  0  0  0  0  0  0  0  0  0
   21.1578   20.7884   26.0317 H   0  0  0  0  0  0  0  0  0  0  0  0
   18.5440   20.3297   25.5856 N   0  3  0  0  0  0  0  0  0  0  0  0
   18.3049   19.9566   26.5083 H   0  0  0  0  0  0  0  0  0  0  0  0
   17.7017   20.2792   25.0056 H   0  0  0  0  0  0  0  0  0  0  0  0
   18.7722   21.3205   25.7073 H   0  0  0  0  0  0  0  0  0  0  0  0
  1  2  1  0  0  0  0
  1  3  1  0  0  0  0
  1  4  1  0  0  0  0
  1  5  1  0  0  0  0
  5  6  1  0  0  0  0
  5  7  1  0  0  0  0
  5  8  1  0  0  0  0
  8  9  1  0  0  0  0
  8 10  1  0  0  0  0
  8 11  1  0  0  0  0
 11 12  1  0  0  0  0
 11 13  1  0  0  0  0
 11 14  1  0  0  0  0
 14 15  1  0  0  0  0
 14 16  1  0  0  0  0
 14 17  1  0  0  0  0
 17 18  1  0  0  0  0
 17 19  1  0  0  0  0
 17 20  1  0  0  0  0
 20 21  1  0  0  0  0
 20 22  1  0  0  0  0
 22 23  1  0  0  0  0
 22 24  1  0  0  0  0
 22 25  1  0  0  0  0
 20 26  1  0  0  0  0
 26 27  1  0  0  0  0
 26 28  1  0  0  0  0
 26 29  1  0  0  0  0
M  END
> <VM2 Rank>
200

> <Conf_Id>
1028

> <Probability>
0.00

> <Sum Probability>
100.00

> <Delta G>
6.526

> <G>
40.228

> <E>
1.928

> <-TS>
38.299

> <U+W>
-22.216

> <U>
30.676

> <W>
-52.893

> <W(PB)>
-55.271

> <W(SA)>
2.378

> <Valence>
8.877

> <Coulomb>
21.328

> <VdW>
0.472

> <VdW6>
-11.982

> <VdW12>
12.454

> <Bond>
0.338

> <Angle>
2.800

> <Pdih>
5.738

> <Idih>
0.000

> <Tether>
0.000

$$$$
VeraChem MOL file


 29 28  0  0  0  0  0  0  0  0999 V2000     
   18.4729   18.0962   21.4331 C   0  0  0  0  0  0  0  0  0  0  0  0
   18.7846   17.2949   20.7507 H   0  0  0  0  0  0  0  0  0  0  0  0
   18.7844   17.8145   22.4441 H   0  0  0  0  0  0  0  0  0  0  0  0
   17.3761   18.1373   21.4198 H   0  0  0  0  0  0  0  0  0  0  0  0
   19.0716   19.4535   20.9964 C   0  0  0  0  0  0  0  0  0  0  0  0
   18.6772   20.2705   21.6153 H   0  0  0  0  0  0  0  0  0  0  0  0
   18.7244   19.6598   19.9743 H   0  0  0  0  0  0  0  0  0  0  0  0
   20.6208   19.4706   21.0022 C   0  0  0  0  0  0  0  0  0  0  0  0
   21.0116   18.4661   20.7889 H   0  0  0  0  0  0  0  0  0  0  0  0
   20.9521   20.0968   20.1622 H   0  0  0  0  0  0  0  0  0  0  0  0
   21.2834   20.0380   22.2867 C   0  0  0  0  0  0  0  0  0  0  0  0
   20.9685   21.0787   22.4439 H   0  0  0  0  0  0  0  0  0  0  0  0
   22.3650   20.0865   22.0988 H   0  0  0  0  0  0  0  0  0  0  0  0
   21.0654   19.2078   23.5777 C   0  0  0  0  0  0  0  0  0  0  0  0
   20.9591   18.1470   23.3194 H   0  0  0  0  0  0  0  0  0  0  0  0
   21.9747   19.2786   24.1905 H   0  0  0  0  0  0  0  0  0  0  0  0
   19.8731   19.7070   24.4362 C   0  0  0  0  0  0  0  0  0  0  0  0
   18.9359   19.6482   23.8721 H   0  0  0  0  0  0  0  0  0  0  0  0
   20.0302   20.7709   24.6572 H   0  0  0  0  0  0  0  0  0  0  0  0
   19.7159   18.9510   25.7749 C   0  0  2  0  0  0  0  0  0  0  0  0
   20.6797   18.9661   26.2929 H   0  0  0  0  0  0  0  0  0  0  0  0
   19.2954   17.4850   25.5669 C   0  0  0  0  0  0  0  0  0  0  0  0
   18.3525   17.4177   25.0101 H   0  0  0  0  0  0  0  0  0  0  0  0
   20.0598   16.9231   25.0184 H   0  0  0  0  0  0  0  0  0  0  0  0
   19.1554   16.9835   26.5325 H   0  0  0  0  0  0  0  0  0  0  0  0
   18.7375   19.6470   26.6798 N   0  3  0  0  0  0  0  0  0  0  0  0
   18.6594   19.1702   27.5828 H   0  0  0  0  0  0  0  0  0  0  0  0
   17.8012   19.6755   26.2673 H   0  0  0  0  0  0  0  0  0  0  0  0
   19.0205   20.6128   26.8693 H   0  0  0  0  0  0  0  0  0  0  0  0
  1  2  1  0  0  0  0
  1  3  1  0  0  0  0
  1  4  1  0  0  0  0
  1  5  1  0  0  0  0
  5  6  1  0  0  0  0
  5  7  1  0  0  0  0
  5  8  1  0  0  0  0
  8  9  1  0  0  0  0
  8 10  1  0  0  0  0
  8 11  1  0  0  0  0
 11 12  1  0  0  0  0
 11 13  1  0  0  0  0
 11 14  1  0  0  0  0
 14 15  1  0  0  0  0
 14 16  1  0  0  0  0
 14 17  1  0  0  0  0
 17 18  1  0  0  0  0
 17 19  1  0  0  0  0
 17 20  1  0  0  0  0
 20 21  1  0  0  0  0
 20 22  1  0  0  0  0
 22 23  1  0  0  0  0
 22 24  1  0  0  0  0
 22 25  1  0  0  0  0
 20 26  1  0  0  0  0
 26 27  1  0  0  0  0
 26 28  1  0  0  0  0
 26 29  1  0  0  0  0
M  END
> <VM2 Rank>
201

> <Conf_Id>
259

> <Probability>
0.00

> <Sum Probability>
100.00

> <Delta G>
6.624

> <G>
40.326

> <E>
1.884

> <-TS>
38.442

> <U+W>
-22.261

> <U>
30.536

> <W>
-52.796

> <W(PB)>
-55.157

> <W(SA)>
2.360

> <Valence>
9.320

> <Coulomb>
20.399

> <VdW>
0.817

> <VdW6>
-11.400

> <VdW12>
12.217

> <Bond>
0.345

> <Angle>
2.705

> <Pdih>
6.270

> <Idih>
0.000

> <Tether>
0.000

$$$$
VeraChem MOL file


 29 28  0  0  0  0  0  0  0  0999 V2000     
   21.1177   19.2251   20.6285 C   0  0  0  0  0  0  0  0  0  0  0  0
   21.8108   19.5481   21.4158 H   0  0  0  0  0  0  0  0  0  0  0  0
   20.9508   18.1457   20.7307 H   0  0  0  0  0  0  0  0  0  0  0  0
   21.6083   19.3915   19.6607 H   0  0  0  0  0  0  0  0  0  0  0  0
   19.7886   20.0080   20.7012 C   0  0  0  0  0  0  0  0  0  0  0  0
   19.1032   19.6363   19.9267 H   0  0  0  0  0  0  0  0  0  0  0  0
   19.9858   21.0602   20.4531 H   0  0  0  0  0  0  0  0  0  0  0  0
   19.0914   19.9499   22.0842 C   0  0  0  0  0  0  0  0  0  0  0  0
   19.7389   20.4053   22.8413 H   0  0  0  0  0  0  0  0  0  0  0  0
   18.2009   20.5914   22.0320 H   0  0  0  0  0  0  0  0  0  0  0  0
   18.6360   18.5294   22.5158 C   0  0  0  0  0  0  0  0  0  0  0  0
   18.3940   17.9478   21.6156 H   0  0  0  0  0  0  0  0  0  0  0  0
   17.6908   18.6064   23.0706 H   0  0  0  0  0  0  0  0  0  0  0  0
   19.6590   17.7365   23.3748 C   0  0  0  0  0  0  0  0  0  0  0  0
   19.5113   16.6671   23.1707 H   0  0  0  0  0  0  0  0  0  0  0  0
   20.6876   17.9520   23.0642 H   0  0  0  0  0  0  0  0  0  0  0  0
   19.4985   17.9409   24.9056 C   0  0  0  0  0  0  0  0  0  0  0  0
   20.1632   17.2422   25.4307 H   0  0  0  0  0  0  0  0  0  0  0  0
   18.4773   17.6510   25.1863 H   0  0  0  0  0  0  0  0  0  0  0  0
   19.7691   19.3735   25.4175 C   0  0  2  0  0  0  0  0  0  0  0  0
   19.1668   20.0707   24.8285 H   0  0  0  0  0  0  0  0  0  0  0  0
   21.2539   19.7581   25.2826 C   0  0  0  0  0  0  0  0  0  0  0  0
   21.4240   20.7764   25.6533 H   0  0  0  0  0  0  0  0  0  0  0  0
   21.8926   19.0763   25.8578 H   0  0  0  0  0  0  0  0  0  0  0  0
   21.5837   19.7312   24.2380 H   0  0  0  0  0  0  0  0  0  0  0  0
   19.3218   19.5346   26.8438 N   0  3  0  0  0  0  0  0  0  0  0  0
   19.4688   20.4920   27.1761 H   0  0  0  0  0  0  0  0  0  0  0  0
   19.8384   18.9114   27.4701 H   0  0  0  0  0  0  0  0  0  0  0  0
   18.3255   19.3238   26.9526 H   0  0  0  0  0  0  0  0  0  0  0  0
  1  2  1  0  0  0  0
  1  3  1  0  0  0  0
  1  4  1  0  0  0  0
  1  5  1  0  0  0  0
  5  6  1  0  0  0  0
  5  7  1  0  0  0  0
  5  8  1  0  0  0  0
  8  9  1  0  0  0  0
  8 10  1  0  0  0  0
  8 11  1  0  0  0  0
 11 12  1  0  0  0  0
 11 13  1  0  0  0  0
 11 14  1  0  0  0  0
 14 15  1  0  0  0  0
 14 16  1  0  0  0  0
 14 17  1  0  0  0  0
 17 18  1  0  0  0  0
 17 19  1  0  0  0  0
 17 20  1  0  0  0  0
 20 21  1  0  0  0  0
 20 22  1  0  0  0  0
 22 23  1  0  0  0  0
 22 24  1  0  0  0  0
 22 25  1  0  0  0  0
 20 26  1  0  0  0  0
 26 27  1  0  0  0  0
 26 28  1  0  0  0  0
 26 29  1  0  0  0  0
M  END
> <VM2 Rank>
202

> <Conf_Id>
667

> <Probability>
0.00

> <Sum Probability>
100.00

> <Delta G>
6.632

> <G>
40.334

> <E>
1.740

> <-TS>
38.593

> <U+W>
-22.404

> <U>
30.361

> <W>
-52.765

> <W(PB)>
-55.142

> <W(SA)>
2.377

> <Valence>
9.148

> <Coulomb>
20.452

> <VdW>
0.760

> <VdW6>
-11.953

> <VdW12>
12.713

> <Bond>
0.373

> <Angle>
2.676

> <Pdih>
6.099

> <Idih>
0.000

> <Tether>
0.000

$$$$
VeraChem MOL file


 29 28  0  0  0  0  0  0  0  0999 V2000     
   20.9072   19.1720   20.3032 C   0  0  0  0  0  0  0  0  0  0  0  0
   21.9839   19.1201   20.0959 H   0  0  0  0  0  0  0  0  0  0  0  0
   20.5071   18.1533   20.2332 H   0  0  0  0  0  0  0  0  0  0  0  0
   20.4434   19.7760   19.5126 H   0  0  0  0  0  0  0  0  0  0  0  0
   20.6539   19.7922   21.6962 C   0  0  0  0  0  0  0  0  0  0  0  0
   21.1382   20.7780   21.7331 H   0  0  0  0  0  0  0  0  0  0  0  0
   21.1456   19.1784   22.4606 H   0  0  0  0  0  0  0  0  0  0  0  0
   19.1469   19.9661   22.0167 C   0  0  0  0  0  0  0  0  0  0  0  0
   19.0176   20.6622   22.8558 H   0  0  0  0  0  0  0  0  0  0  0  0
   18.6691   20.4585   21.1585 H   0  0  0  0  0  0  0  0  0  0  0  0
   18.3958   18.6412   22.3148 C   0  0  0  0  0  0  0  0  0  0  0  0
   18.8726   17.7989   21.7980 H   0  0  0  0  0  0  0  0  0  0  0  0
   17.3914   18.7193   21.8762 H   0  0  0  0  0  0  0  0  0  0  0  0
   18.2166   18.2978   23.8181 C   0  0  0  0  0  0  0  0  0  0  0  0
   17.6315   19.0828   24.3138 H   0  0  0  0  0  0  0  0  0  0  0  0
   17.5931   17.3947   23.8723 H   0  0  0  0  0  0  0  0  0  0  0  0
   19.5274   18.0109   24.5988 C   0  0  0  0  0  0  0  0  0  0  0  0
   20.2064   17.4317   23.9593 H   0  0  0  0  0  0  0  0  0  0  0  0
   19.2930   17.3611   25.4524 H   0  0  0  0  0  0  0  0  0  0  0  0
   20.2487   19.2696   25.1331 C   0  0  2  0  0  0  0  0  0  0  0  0
   20.4196   19.9573   24.3019 H   0  0  0  0  0  0  0  0  0  0  0  0
   21.6143   18.8895   25.7266 C   0  0  0  0  0  0  0  0  0  0  0  0
   21.5013   18.2023   26.5745 H   0  0  0  0  0  0  0  0  0  0  0  0
   22.2449   18.4016   24.9730 H   0  0  0  0  0  0  0  0  0  0  0  0
   22.1468   19.7818   26.0784 H   0  0  0  0  0  0  0  0  0  0  0  0
   19.4253   20.0166   26.1466 N   0  3  0  0  0  0  0  0  0  0  0  0
   18.5275   20.3128   25.7546 H   0  0  0  0  0  0  0  0  0  0  0  0
   19.9090   20.8567   26.4763 H   0  0  0  0  0  0  0  0  0  0  0  0
   19.2271   19.4360   26.9659 H   0  0  0  0  0  0  0  0  0  0  0  0
  1  2  1  0  0  0  0
  1  3  1  0  0  0  0
  1  4  1  0  0  0  0
  1  5  1  0  0  0  0
  5  6  1  0  0  0  0
  5  7  1  0  0  0  0
  5  8  1  0  0  0  0
  8  9  1  0  0  0  0
  8 10  1  0  0  0  0
  8 11  1  0  0  0  0
 11 12  1  0  0  0  0
 11 13  1  0  0  0  0
 11 14  1  0  0  0  0
 14 15  1  0  0  0  0
 14 16  1  0  0  0  0
 14 17  1  0  0  0  0
 17 18  1  0  0  0  0
 17 19  1  0  0  0  0
 17 20  1  0  0  0  0
 20 21  1  0  0  0  0
 20 22  1  0  0  0  0
 22 23  1  0  0  0  0
 22 24  1  0  0  0  0
 22 25  1  0  0  0  0
 20 26  1  0  0  0  0
 26 27  1  0  0  0  0
 26 28  1  0  0  0  0
 26 29  1  0  0  0  0
M  END
> <VM2 Rank>
203

> <Conf_Id>
183

> <Probability>
0.00

> <Sum Probability>
100.00

> <Delta G>
6.645

> <G>
40.347

> <E>
1.952

> <-TS>
38.395

> <U+W>
-22.192

> <U>
30.560

> <W>
-52.753

> <W(PB)>
-55.117

> <W(SA)>
2.365

> <Valence>
8.893

> <Coulomb>
21.063

> <VdW>
0.604

> <VdW6>
-12.044

> <VdW12>
12.648

> <Bond>
0.360

> <Angle>
2.555

> <Pdih>
5.978

> <Idih>
0.000

> <Tether>
0.000

$$$$
VeraChem MOL file


 29 28  0  0  0  0  0  0  0  0999 V2000     
   19.8246   20.5340   20.1561 C   0  0  0  0  0  0  0  0  0  0  0  0
   20.8704   20.8027   19.9579 H   0  0  0  0  0  0  0  0  0  0  0  0
   19.2150   20.9471   19.3421 H   0  0  0  0  0  0  0  0  0  0  0  0
   19.5185   21.0303   21.0833 H   0  0  0  0  0  0  0  0  0  0  0  0
   19.6542   18.9988   20.2327 C   0  0  0  0  0  0  0  0  0  0  0  0
   19.9432   18.5784   19.2592 H   0  0  0  0  0  0  0  0  0  0  0  0
   18.5958   18.7383   20.3720 H   0  0  0  0  0  0  0  0  0  0  0  0
   20.5220   18.3346   21.3325 C   0  0  0  0  0  0  0  0  0  0  0  0
   20.8400   17.3488   20.9659 H   0  0  0  0  0  0  0  0  0  0  0  0
   21.4479   18.9064   21.4835 H   0  0  0  0  0  0  0  0  0  0  0  0
   19.8030   18.1160   22.6887 C   0  0  0  0  0  0  0  0  0  0  0  0
   20.4801   17.5579   23.3464 H   0  0  0  0  0  0  0  0  0  0  0  0
   18.9312   17.4650   22.5360 H   0  0  0  0  0  0  0  0  0  0  0  0
   19.3478   19.4217   23.3866 C   0  0  0  0  0  0  0  0  0  0  0  0
   20.1616   20.1598   23.3920 H   0  0  0  0  0  0  0  0  0  0  0  0
   18.5342   19.8612   22.7948 H   0  0  0  0  0  0  0  0  0  0  0  0
   18.8240   19.1960   24.8296 C   0  0  0  0  0  0  0  0  0  0  0  0
   18.4257   18.1781   24.9359 H   0  0  0  0  0  0  0  0  0  0  0  0
   17.9702   19.8687   24.9852 H   0  0  0  0  0  0  0  0  0  0  0  0
   19.8554   19.4874   25.9462 C   0  0  2  0  0  0  0  0  0  0  0  0
   20.1946   20.5217   25.8336 H   0  0  0  0  0  0  0  0  0  0  0  0
   21.0871   18.5690   25.8768 C   0  0  0  0  0  0  0  0  0  0  0  0
   21.6606   18.7483   24.9599 H   0  0  0  0  0  0  0  0  0  0  0  0
   21.7604   18.7606   26.7213 H   0  0  0  0  0  0  0  0  0  0  0  0
   20.7966   17.5115   25.9060 H   0  0  0  0  0  0  0  0  0  0  0  0
   19.2179   19.3985   27.3049 N   0  3  0  0  0  0  0  0  0  0  0  0
   18.4233   20.0389   27.3915 H   0  0  0  0  0  0  0  0  0  0  0  0
   19.8831   19.6366   28.0462 H   0  0  0  0  0  0  0  0  0  0  0  0
   18.8738   18.4535   27.4952 H   0  0  0  0  0  0  0  0  0  0  0  0
  1  2  1  0  0  0  0
  1  3  1  0  0  0  0
  1  4  1  0  0  0  0
  1  5  1  0  0  0  0
  5  6  1  0  0  0  0
  5  7  1  0  0  0  0
  5  8  1  0  0  0  0
  8  9  1  0  0  0  0
  8 10  1  0  0  0  0
  8 11  1  0  0  0  0
 11 12  1  0  0  0  0
 11 13  1  0  0  0  0
 11 14  1  0  0  0  0
 14 15  1  0  0  0  0
 14 16  1  0  0  0  0
 14 17  1  0  0  0  0
 17 18  1  0  0  0  0
 17 19  1  0  0  0  0
 17 20  1  0  0  0  0
 20 21  1  0  0  0  0
 20 22  1  0  0  0  0
 22 23  1  0  0  0  0
 22 24  1  0  0  0  0
 22 25  1  0  0  0  0
 20 26  1  0  0  0  0
 26 27  1  0  0  0  0
 26 28  1  0  0  0  0
 26 29  1  0  0  0  0
M  END
> <VM2 Rank>
204

> <Conf_Id>
153

> <Probability>
0.00

> <Sum Probability>
100.00

> <Delta G>
6.701

> <G>
40.403

> <E>
2.337

> <-TS>
38.066

> <U+W>
-21.808

> <U>
30.372

> <W>
-52.180

> <W(PB)>
-54.600

> <W(SA)>
2.420

> <Valence>
9.265

> <Coulomb>
19.847

> <VdW>
1.260

> <VdW6>
-10.647

> <VdW12>
11.908

> <Bond>
0.333

> <Angle>
2.435

> <Pdih>
6.497

> <Idih>
0.000

> <Tether>
0.000

$$$$
VeraChem MOL file


 29 28  0  0  0  0  0  0  0  0999 V2000     
   18.9830   20.4261   20.4034 C   0  0  0  0  0  0  0  0  0  0  0  0
   19.2552   21.1221   19.5994 H   0  0  0  0  0  0  0  0  0  0  0  0
   17.9243   20.1663   20.2743 H   0  0  0  0  0  0  0  0  0  0  0  0
   19.0858   20.9616   21.3534 H   0  0  0  0  0  0  0  0  0  0  0  0
   19.8722   19.1620   20.3472 C   0  0  0  0  0  0  0  0  0  0  0  0
   20.9336   19.4380   20.4168 H   0  0  0  0  0  0  0  0  0  0  0  0
   19.7438   18.7030   19.3569 H   0  0  0  0  0  0  0  0  0  0  0  0
   19.5172   18.1084   21.4278 C   0  0  0  0  0  0  0  0  0  0  0  0
   18.4465   18.1569   21.6690 H   0  0  0  0  0  0  0  0  0  0  0  0
   19.6778   17.1107   20.9962 H   0  0  0  0  0  0  0  0  0  0  0  0
   20.3607   18.1940   22.7260 C   0  0  0  0  0  0  0  0  0  0  0  0
   21.4213   18.0474   22.4795 H   0  0  0  0  0  0  0  0  0  0  0  0
   20.0830   17.3487   23.3665 H   0  0  0  0  0  0  0  0  0  0  0  0
   20.1970   19.5221   23.5057 C   0  0  0  0  0  0  0  0  0  0  0  0
   20.6460   20.3261   22.9083 H   0  0  0  0  0  0  0  0  0  0  0  0
   19.1335   19.7721   23.6103 H   0  0  0  0  0  0  0  0  0  0  0  0
   20.8974   19.5128   24.8932 C   0  0  0  0  0  0  0  0  0  0  0  0
   21.3221   20.5094   25.0720 H   0  0  0  0  0  0  0  0  0  0  0  0
   21.7583   18.8315   24.8727 H   0  0  0  0  0  0  0  0  0  0  0  0
   19.9964   19.1682   26.1051 C   0  0  2  0  0  0  0  0  0  0  0  0
   20.6313   19.1946   26.9961 H   0  0  0  0  0  0  0  0  0  0  0  0
   19.3851   17.7607   26.0148 C   0  0  0  0  0  0  0  0  0  0  0  0
   18.6551   17.6909   25.1995 H   0  0  0  0  0  0  0  0  0  0  0  0
   20.1650   17.0069   25.8508 H   0  0  0  0  0  0  0  0  0  0  0  0
   18.8689   17.5064   26.9486 H   0  0  0  0  0  0  0  0  0  0  0  0
   18.9269   20.2017   26.3308 N   0  3  0  0  0  0  0  0  0  0  0  0
   19.3273   21.1370   26.4469 H   0  0  0  0  0  0  0  0  0  0  0  0
   18.3804   19.9962   27.1721 H   0  0  0  0  0  0  0  0  0  0  0  0
   18.2755   20.2408   25.5431 H   0  0  0  0  0  0  0  0  0  0  0  0
  1  2  1  0  0  0  0
  1  3  1  0  0  0  0
  1  4  1  0  0  0  0
  1  5  1  0  0  0  0
  5  6  1  0  0  0  0
  5  7  1  0  0  0  0
  5  8  1  0  0  0  0
  8  9  1  0  0  0  0
  8 10  1  0  0  0  0
  8 11  1  0  0  0  0
 11 12  1  0  0  0  0
 11 13  1  0  0  0  0
 11 14  1  0  0  0  0
 14 15  1  0  0  0  0
 14 16  1  0  0  0  0
 14 17  1  0  0  0  0
 17 18  1  0  0  0  0
 17 19  1  0  0  0  0
 17 20  1  0  0  0  0
 20 21  1  0  0  0  0
 20 22  1  0  0  0  0
 22 23  1  0  0  0  0
 22 24  1  0  0  0  0
 22 25  1  0  0  0  0
 20 26  1  0  0  0  0
 26 27  1  0  0  0  0
 26 28  1  0  0  0  0
 26 29  1  0  0  0  0
M  END
> <VM2 Rank>
205

> <Conf_Id>
528

> <Probability>
0.00

> <Sum Probability>
100.00

> <Delta G>
6.759

> <G>
40.461

> <E>
2.313

> <-TS>
38.147

> <U+W>
-21.831

> <U>
30.788

> <W>
-52.619

> <W(PB)>
-55.022

> <W(SA)>
2.402

> <Valence>
9.278

> <Coulomb>
20.293

> <VdW>
1.217

> <VdW6>
-11.113

> <VdW12>
12.330

> <Bond>
0.365

> <Angle>
2.560

> <Pdih>
6.353

> <Idih>
0.000

> <Tether>
0.000

$$$$
VeraChem MOL file


 29 28  0  0  0  0  0  0  0  0999 V2000     
   20.6281   18.8515   19.9484 C   0  0  0  0  0  0  0  0  0  0  0  0
   21.3608   18.6491   20.7377 H   0  0  0  0  0  0  0  0  0  0  0  0
   20.2961   17.8873   19.5421 H   0  0  0  0  0  0  0  0  0  0  0  0
   21.1440   19.3919   19.1442 H   0  0  0  0  0  0  0  0  0  0  0  0
   19.4255   19.6730   20.4684 C   0  0  0  0  0  0  0  0  0  0  0  0
   18.7382   19.8385   19.6269 H   0  0  0  0  0  0  0  0  0  0  0  0
   19.7544   20.6711   20.7898 H   0  0  0  0  0  0  0  0  0  0  0  0
   18.6510   18.9656   21.6101 C   0  0  0  0  0  0  0  0  0  0  0  0
   17.5781   19.1493   21.4598 H   0  0  0  0  0  0  0  0  0  0  0  0
   18.7766   17.8765   21.5371 H   0  0  0  0  0  0  0  0  0  0  0  0
   19.0111   19.4472   23.0394 C   0  0  0  0  0  0  0  0  0  0  0  0
   18.3492   18.9192   23.7345 H   0  0  0  0  0  0  0  0  0  0  0  0
   18.7803   20.5173   23.1325 H   0  0  0  0  0  0  0  0  0  0  0  0
   20.4856   19.1982   23.4409 C   0  0  0  0  0  0  0  0  0  0  0  0
   20.7213   18.1300   23.3453 H   0  0  0  0  0  0  0  0  0  0  0  0
   21.1375   19.7171   22.7274 H   0  0  0  0  0  0  0  0  0  0  0  0
   20.8706   19.7074   24.8589 C   0  0  0  0  0  0  0  0  0  0  0  0
   20.7415   20.7968   24.9005 H   0  0  0  0  0  0  0  0  0  0  0  0
   21.9475   19.5380   24.9897 H   0  0  0  0  0  0  0  0  0  0  0  0
   20.1511   19.0680   26.0742 C   0  0  2  0  0  0  0  0  0  0  0  0
   20.7198   19.3573   26.9633 H   0  0  0  0  0  0  0  0  0  0  0  0
   20.1452   17.5306   26.0153 C   0  0  0  0  0  0  0  0  0  0  0  0
   19.5149   17.1592   25.1984 H   0  0  0  0  0  0  0  0  0  0  0  0
   21.1613   17.1437   25.8696 H   0  0  0  0  0  0  0  0  0  0  0  0
   19.7605   17.1117   26.9531 H   0  0  0  0  0  0  0  0  0  0  0  0
   18.7679   19.6144   26.2985 N   0  3  0  0  0  0  0  0  0  0  0  0
   18.7810   20.6325   26.4082 H   0  0  0  0  0  0  0  0  0  0  0  0
   18.3442   19.2216   27.1440 H   0  0  0  0  0  0  0  0  0  0  0  0
   18.1496   19.3970   25.5145 H   0  0  0  0  0  0  0  0  0  0  0  0
  1  2  1  0  0  0  0
  1  3  1  0  0  0  0
  1  4  1  0  0  0  0
  1  5  1  0  0  0  0
  5  6  1  0  0  0  0
  5  7  1  0  0  0  0
  5  8  1  0  0  0  0
  8  9  1  0  0  0  0
  8 10  1  0  0  0  0
  8 11  1  0  0  0  0
 11 12  1  0  0  0  0
 11 13  1  0  0  0  0
 11 14  1  0  0  0  0
 14 15  1  0  0  0  0
 14 16  1  0  0  0  0
 14 17  1  0  0  0  0
 17 18  1  0  0  0  0
 17 19  1  0  0  0  0
 17 20  1  0  0  0  0
 20 21  1  0  0  0  0
 20 22  1  0  0  0  0
 22 23  1  0  0  0  0
 22 24  1  0  0  0  0
 22 25  1  0  0  0  0
 20 26  1  0  0  0  0
 26 27  1  0  0  0  0
 26 28  1  0  0  0  0
 26 29  1  0  0  0  0
M  END
> <VM2 Rank>
206

> <Conf_Id>
1651

> <Probability>
0.00

> <Sum Probability>
100.00

> <Delta G>
6.812

> <G>
40.514

> <E>
2.306

> <-TS>
38.209

> <U+W>
-21.839

> <U>
30.733

> <W>
-52.571

> <W(PB)>
-54.996

> <W(SA)>
2.425

> <Valence>
8.311

> <Coulomb>
21.302

> <VdW>
1.120

> <VdW6>
-11.478

> <VdW12>
12.598

> <Bond>
0.388

> <Angle>
3.090

> <Pdih>
4.833

> <Idih>
0.000

> <Tether>
0.000

$$$$
VeraChem MOL file


 29 28  0  0  0  0  0  0  0  0999 V2000     
   18.0362   19.4506   21.5582 C   0  0  0  0  0  0  0  0  0  0  0  0
   17.8355   20.3595   20.9762 H   0  0  0  0  0  0  0  0  0  0  0  0
   17.1327   18.8280   21.5258 H   0  0  0  0  0  0  0  0  0  0  0  0
   18.1995   19.7487   22.5985 H   0  0  0  0  0  0  0  0  0  0  0  0
   19.2452   18.6818   20.9766 C   0  0  0  0  0  0  0  0  0  0  0  0
   19.0105   18.4274   19.9336 H   0  0  0  0  0  0  0  0  0  0  0  0
   19.3822   17.7224   21.4934 H   0  0  0  0  0  0  0  0  0  0  0  0
   20.5608   19.5001   20.9986 C   0  0  0  0  0  0  0  0  0  0  0  0
   21.1328   19.2383   20.0977 H   0  0  0  0  0  0  0  0  0  0  0  0
   20.3417   20.5725   20.9035 H   0  0  0  0  0  0  0  0  0  0  0  0
   21.4884   19.2520   22.2189 C   0  0  0  0  0  0  0  0  0  0  0  0
   22.4181   19.8087   22.0373 H   0  0  0  0  0  0  0  0  0  0  0  0
   21.7848   18.1948   22.2573 H   0  0  0  0  0  0  0  0  0  0  0  0
   20.9279   19.7046   23.5916 C   0  0  0  0  0  0  0  0  0  0  0  0
   21.7655   20.0709   24.2014 H   0  0  0  0  0  0  0  0  0  0  0  0
   20.2585   20.5630   23.4535 H   0  0  0  0  0  0  0  0  0  0  0  0
   20.2306   18.5635   24.3776 C   0  0  0  0  0  0  0  0  0  0  0  0
   20.9437   17.7379   24.5030 H   0  0  0  0  0  0  0  0  0  0  0  0
   19.3882   18.1567   23.8077 H   0  0  0  0  0  0  0  0  0  0  0  0
   19.7409   19.0079   25.7725 C   0  0  2  0  0  0  0  0  0  0  0  0
   20.5933   19.4233   26.3188 H   0  0  0  0  0  0  0  0  0  0  0  0
   19.2040   17.8019   26.5596 C   0  0  0  0  0  0  0  0  0  0  0  0
   18.3434   17.3480   26.0525 H   0  0  0  0  0  0  0  0  0  0  0  0
   19.9788   17.0333   26.6718 H   0  0  0  0  0  0  0  0  0  0  0  0
   18.8876   18.1044   27.5655 H   0  0  0  0  0  0  0  0  0  0  0  0
   18.7021   20.0936   25.7004 N   0  3  0  0  0  0  0  0  0  0  0  0
   19.0581   20.9189   25.2107 H   0  0  0  0  0  0  0  0  0  0  0  0
   18.4116   20.3939   26.6354 H   0  0  0  0  0  0  0  0  0  0  0  0
   17.8642   19.7755   25.2065 H   0  0  0  0  0  0  0  0  0  0  0  0
  1  2  1  0  0  0  0
  1  3  1  0  0  0  0
  1  4  1  0  0  0  0
  1  5  1  0  0  0  0
  5  6  1  0  0  0  0
  5  7  1  0  0  0  0
  5  8  1  0  0  0  0
  8  9  1  0  0  0  0
  8 10  1  0  0  0  0
  8 11  1  0  0  0  0
 11 12  1  0  0  0  0
 11 13  1  0  0  0  0
 11 14  1  0  0  0  0
 14 15  1  0  0  0  0
 14 16  1  0  0  0  0
 14 17  1  0  0  0  0
 17 18  1  0  0  0  0
 17 19  1  0  0  0  0
 17 20  1  0  0  0  0
 20 21  1  0  0  0  0
 20 22  1  0  0  0  0
 22 23  1  0  0  0  0
 22 24  1  0  0  0  0
 22 25  1  0  0  0  0
 20 26  1  0  0  0  0
 26 27  1  0  0  0  0
 26 28  1  0  0  0  0
 26 29  1  0  0  0  0
M  END
> <VM2 Rank>
207

> <Conf_Id>
1209

> <Probability>
0.00

> <Sum Probability>
100.00

> <Delta G>
6.824

> <G>
40.527

> <E>
2.177

> <-TS>
38.350

> <U+W>
-21.968

> <U>
30.724

> <W>
-52.691

> <W(PB)>
-55.086

> <W(SA)>
2.395

> <Valence>
8.746

> <Coulomb>
21.258

> <VdW>
0.720

> <VdW6>
-11.140

> <VdW12>
11.860

> <Bond>
0.332

> <Angle>
2.430

> <Pdih>
5.984

> <Idih>
0.000

> <Tether>
0.000

$$$$
VeraChem MOL file


 29 28  0  0  0  0  0  0  0  0999 V2000     
   19.7219   17.8471   20.6727 C   0  0  0  0  0  0  0  0  0  0  0  0
   19.2108   18.0717   19.7275 H   0  0  0  0  0  0  0  0  0  0  0  0
   20.3160   16.9365   20.5222 H   0  0  0  0  0  0  0  0  0  0  0  0
   18.9542   17.6276   21.4227 H   0  0  0  0  0  0  0  0  0  0  0  0
   20.6301   19.0243   21.0979 C   0  0  0  0  0  0  0  0  0  0  0  0
   21.2361   18.7536   21.9729 H   0  0  0  0  0  0  0  0  0  0  0  0
   21.3465   19.2076   20.2849 H   0  0  0  0  0  0  0  0  0  0  0  0
   19.8434   20.3312   21.3675 C   0  0  0  0  0  0  0  0  0  0  0  0
   20.4440   21.1694   20.9880 H   0  0  0  0  0  0  0  0  0  0  0  0
   18.9172   20.3456   20.7767 H   0  0  0  0  0  0  0  0  0  0  0  0
   19.5276   20.6290   22.8580 C   0  0  0  0  0  0  0  0  0  0  0  0
   19.0627   21.6240   22.8940 H   0  0  0  0  0  0  0  0  0  0  0  0
   20.4627   20.7291   23.4228 H   0  0  0  0  0  0  0  0  0  0  0  0
   18.5582   19.6344   23.5528 C   0  0  0  0  0  0  0  0  0  0  0  0
   17.9538   20.1893   24.2824 H   0  0  0  0  0  0  0  0  0  0  0  0
   17.8364   19.2532   22.8182 H   0  0  0  0  0  0  0  0  0  0  0  0
   19.2393   18.4437   24.2832 C   0  0  0  0  0  0  0  0  0  0  0  0
   19.7839   17.8269   23.5609 H   0  0  0  0  0  0  0  0  0  0  0  0
   18.4580   17.7955   24.7014 H   0  0  0  0  0  0  0  0  0  0  0  0
   20.2094   18.8552   25.4140 C   0  0  2  0  0  0  0  0  0  0  0  0
   20.9989   19.4784   24.9848 H   0  0  0  0  0  0  0  0  0  0  0  0
   20.8683   17.6112   26.0305 C   0  0  0  0  0  0  0  0  0  0  0  0
   21.4120   17.0400   25.2677 H   0  0  0  0  0  0  0  0  0  0  0  0
   21.5878   17.8977   26.8074 H   0  0  0  0  0  0  0  0  0  0  0  0
   20.1204   16.9492   26.4847 H   0  0  0  0  0  0  0  0  0  0  0  0
   19.5378   19.6798   26.4774 N   0  3  0  0  0  0  0  0  0  0  0  0
   19.1319   20.5330   26.0835 H   0  0  0  0  0  0  0  0  0  0  0  0
   20.1990   19.9616   27.2067 H   0  0  0  0  0  0  0  0  0  0  0  0
   18.7827   19.1591   26.9314 H   0  0  0  0  0  0  0  0  0  0  0  0
  1  2  1  0  0  0  0
  1  3  1  0  0  0  0
  1  4  1  0  0  0  0
  1  5  1  0  0  0  0
  5  6  1  0  0  0  0
  5  7  1  0  0  0  0
  5  8  1  0  0  0  0
  8  9  1  0  0  0  0
  8 10  1  0  0  0  0
  8 11  1  0  0  0  0
 11 12  1  0  0  0  0
 11 13  1  0  0  0  0
 11 14  1  0  0  0  0
 14 15  1  0  0  0  0
 14 16  1  0  0  0  0
 14 17  1  0  0  0  0
 17 18  1  0  0  0  0
 17 19  1  0  0  0  0
 17 20  1  0  0  0  0
 20 21  1  0  0  0  0
 20 22  1  0  0  0  0
 22 23  1  0  0  0  0
 22 24  1  0  0  0  0
 22 25  1  0  0  0  0
 20 26  1  0  0  0  0
 26 27  1  0  0  0  0
 26 28  1  0  0  0  0
 26 29  1  0  0  0  0
M  END
> <VM2 Rank>
208

> <Conf_Id>
1688

> <Probability>
0.00

> <Sum Probability>
100.00

> <Delta G>
6.934

> <G>
40.636

> <E>
2.377

> <-TS>
38.259

> <U+W>
-21.768

> <U>
30.742

> <W>
-52.510

> <W(PB)>
-54.887

> <W(SA)>
2.376

> <Valence>
9.238

> <Coulomb>
20.616

> <VdW>
0.888

> <VdW6>
-11.670

> <VdW12>
12.558

> <Bond>
0.382

> <Angle>
2.765

> <Pdih>
6.091

> <Idih>
0.000

> <Tether>
0.000

$$$$
VeraChem MOL file


 29 28  0  0  0  0  0  0  0  0999 V2000     
   19.3352   20.9581   20.1893 C   0  0  0  0  0  0  0  0  0  0  0  0
   20.2999   20.9326   19.6659 H   0  0  0  0  0  0  0  0  0  0  0  0
   18.5587   21.2019   19.4526 H   0  0  0  0  0  0  0  0  0  0  0  0
   19.3675   21.7711   20.9263 H   0  0  0  0  0  0  0  0  0  0  0  0
   19.0365   19.6047   20.8677 C   0  0  0  0  0  0  0  0  0  0  0  0
   18.9763   18.8183   20.1021 H   0  0  0  0  0  0  0  0  0  0  0  0
   18.0510   19.6505   21.3516 H   0  0  0  0  0  0  0  0  0  0  0  0
   20.1178   19.2365   21.9073 C   0  0  0  0  0  0  0  0  0  0  0  0
   21.0956   19.1811   21.4088 H   0  0  0  0  0  0  0  0  0  0  0  0
   20.2034   20.0393   22.6489 H   0  0  0  0  0  0  0  0  0  0  0  0
   19.8221   17.8783   22.5902 C   0  0  0  0  0  0  0  0  0  0  0  0
   19.9153   17.0916   21.8284 H   0  0  0  0  0  0  0  0  0  0  0  0
   18.7830   17.8252   22.9411 H   0  0  0  0  0  0  0  0  0  0  0  0
   20.7975   17.5565   23.7509 C   0  0  0  0  0  0  0  0  0  0  0  0
   21.0077   16.4782   23.7266 H   0  0  0  0  0  0  0  0  0  0  0  0
   21.7658   18.0467   23.5785 H   0  0  0  0  0  0  0  0  0  0  0  0
   20.2803   17.8942   25.1763 C   0  0  0  0  0  0  0  0  0  0  0  0
   21.0415   17.5426   25.8856 H   0  0  0  0  0  0  0  0  0  0  0  0
   19.3774   17.3091   25.3957 H   0  0  0  0  0  0  0  0  0  0  0  0
   20.0088   19.3925   25.4471 C   0  0  2  0  0  0  0  0  0  0  0  0
   20.8009   19.9789   24.9716 H   0  0  0  0  0  0  0  0  0  0  0  0
   20.0375   19.6790   26.9573 C   0  0  0  0  0  0  0  0  0  0  0  0
   19.2691   19.1005   27.4856 H   0  0  0  0  0  0  0  0  0  0  0  0
   21.0142   19.4215   27.3856 H   0  0  0  0  0  0  0  0  0  0  0  0
   19.8601   20.7435   27.1544 H   0  0  0  0  0  0  0  0  0  0  0  0
   18.7003   19.8563   24.8678 N   0  3  0  0  0  0  0  0  0  0  0  0
   17.9102   19.3692   25.2996 H   0  0  0  0  0  0  0  0  0  0  0  0
   18.6641   19.6779   23.8597 H   0  0  0  0  0  0  0  0  0  0  0  0
   18.5603   20.8602   25.0151 H   0  0  0  0  0  0  0  0  0  0  0  0
  1  2  1  0  0  0  0
  1  3  1  0  0  0  0
  1  4  1  0  0  0  0
  1  5  1  0  0  0  0
  5  6  1  0  0  0  0
  5  7  1  0  0  0  0
  5  8  1  0  0  0  0
  8  9  1  0  0  0  0
  8 10  1  0  0  0  0
  8 11  1  0  0  0  0
 11 12  1  0  0  0  0
 11 13  1  0  0  0  0
 11 14  1  0  0  0  0
 14 15  1  0  0  0  0
 14 16  1  0  0  0  0
 14 17  1  0  0  0  0
 17 18  1  0  0  0  0
 17 19  1  0  0  0  0
 17 20  1  0  0  0  0
 20 21  1  0  0  0  0
 20 22  1  0  0  0  0
 22 23  1  0  0  0  0
 22 24  1  0  0  0  0
 22 25  1  0  0  0  0
 20 26  1  0  0  0  0
 26 27  1  0  0  0  0
 26 28  1  0  0  0  0
 26 29  1  0  0  0  0
M  END
> <VM2 Rank>
209

> <Conf_Id>
610

> <Probability>
0.00

> <Sum Probability>
100.00

> <Delta G>
7.120

> <G>
40.822

> <E>
2.728

> <-TS>
38.094

> <U+W>
-21.416

> <U>
29.728

> <W>
-51.144

> <W(PB)>
-53.597

> <W(SA)>
2.453

> <Valence>
7.448

> <Coulomb>
21.445

> <VdW>
0.835

> <VdW6>
-10.815

> <VdW12>
11.650

> <Bond>
0.282

> <Angle>
2.108

> <Pdih>
5.057

> <Idih>
0.000

> <Tether>
0.000

$$$$
VeraChem MOL file


 29 28  0  0  0  0  0  0  0  0999 V2000     
   20.1857   20.7439   20.0727 C   0  0  0  0  0  0  0  0  0  0  0  0
   20.7040   21.4444   20.7404 H   0  0  0  0  0  0  0  0  0  0  0  0
   20.7942   20.6295   19.1663 H   0  0  0  0  0  0  0  0  0  0  0  0
   19.2280   21.1943   19.7808 H   0  0  0  0  0  0  0  0  0  0  0  0
   19.9705   19.3789   20.7601 C   0  0  0  0  0  0  0  0  0  0  0  0
   20.9480   18.9407   21.0008 H   0  0  0  0  0  0  0  0  0  0  0  0
   19.4815   18.6915   20.0558 H   0  0  0  0  0  0  0  0  0  0  0  0
   19.1108   19.5146   22.0391 C   0  0  0  0  0  0  0  0  0  0  0  0
   19.6011   20.2122   22.7287 H   0  0  0  0  0  0  0  0  0  0  0  0
   18.1475   19.9678   21.7668 H   0  0  0  0  0  0  0  0  0  0  0  0
   18.8405   18.1538   22.7334 C   0  0  0  0  0  0  0  0  0  0  0  0
   18.5274   17.4330   21.9653 H   0  0  0  0  0  0  0  0  0  0  0  0
   17.9815   18.2356   23.4123 H   0  0  0  0  0  0  0  0  0  0  0  0
   20.0603   17.5721   23.4969 C   0  0  0  0  0  0  0  0  0  0  0  0
   20.0547   16.4820   23.3589 H   0  0  0  0  0  0  0  0  0  0  0  0
   21.0002   17.9172   23.0474 H   0  0  0  0  0  0  0  0  0  0  0  0
   20.0867   17.8435   25.0258 C   0  0  0  0  0  0  0  0  0  0  0  0
   20.9491   17.2992   25.4333 H   0  0  0  0  0  0  0  0  0  0  0  0
   19.2030   17.3993   25.5026 H   0  0  0  0  0  0  0  0  0  0  0  0
   20.2071   19.3314   25.4295 C   0  0  2  0  0  0  0  0  0  0  0  0
   20.8961   19.8230   24.7360 H   0  0  0  0  0  0  0  0  0  0  0  0
   20.7805   19.4584   26.8504 C   0  0  0  0  0  0  0  0  0  0  0  0
   21.7767   19.0028   26.9121 H   0  0  0  0  0  0  0  0  0  0  0  0
   20.8808   20.5128   27.1362 H   0  0  0  0  0  0  0  0  0  0  0  0
   20.1323   18.9648   27.5854 H   0  0  0  0  0  0  0  0  0  0  0  0
   18.8938   20.0594   25.3459 N   0  3  0  0  0  0  0  0  0  0  0  0
   18.4935   19.9853   24.4065 H   0  0  0  0  0  0  0  0  0  0  0  0
   19.0019   21.0542   25.5642 H   0  0  0  0  0  0  0  0  0  0  0  0
   18.2129   19.6727   26.0052 H   0  0  0  0  0  0  0  0  0  0  0  0
  1  2  1  0  0  0  0
  1  3  1  0  0  0  0
  1  4  1  0  0  0  0
  1  5  1  0  0  0  0
  5  6  1  0  0  0  0
  5  7  1  0  0  0  0
  5  8  1  0  0  0  0
  8  9  1  0  0  0  0
  8 10  1  0  0  0  0
  8 11  1  0  0  0  0
 11 12  1  0  0  0  0
 11 13  1  0  0  0  0
 11 14  1  0  0  0  0
 14 15  1  0  0  0  0
 14 16  1  0  0  0  0
 14 17  1  0  0  0  0
 17 18  1  0  0  0  0
 17 19  1  0  0  0  0
 17 20  1  0  0  0  0
 20 21  1  0  0  0  0
 20 22  1  0  0  0  0
 22 23  1  0  0  0  0
 22 24  1  0  0  0  0
 22 25  1  0  0  0  0
 20 26  1  0  0  0  0
 26 27  1  0  0  0  0
 26 28  1  0  0  0  0
 26 29  1  0  0  0  0
M  END
> <VM2 Rank>
210

> <Conf_Id>
1346

> <Probability>
0.00

> <Sum Probability>
100.00

> <Delta G>
7.139

> <G>
40.841

> <E>
2.743

> <-TS>
38.098

> <U+W>
-21.401

> <U>
30.662

> <W>
-52.064

> <W(PB)>
-54.500

> <W(SA)>
2.436

> <Valence>
8.199

> <Coulomb>
21.430

> <VdW>
1.034

> <VdW6>
-11.039

> <VdW12>
12.073

> <Bond>
0.331

> <Angle>
2.224

> <Pdih>
5.644

> <Idih>
0.000

> <Tether>
0.000

$$$$
VeraChem MOL file


 29 28  0  0  0  0  0  0  0  0999 V2000     
   18.5959   20.1048   20.7662 C   0  0  0  0  0  0  0  0  0  0  0  0
   18.1117   19.1246   20.8566 H   0  0  0  0  0  0  0  0  0  0  0  0
   18.2758   20.7332   21.6068 H   0  0  0  0  0  0  0  0  0  0  0  0
   18.2269   20.5686   19.8423 H   0  0  0  0  0  0  0  0  0  0  0  0
   20.1337   19.9696   20.7236 C   0  0  0  0  0  0  0  0  0  0  0  0
   20.5671   20.9525   20.4916 H   0  0  0  0  0  0  0  0  0  0  0  0
   20.4184   19.3087   19.8931 H   0  0  0  0  0  0  0  0  0  0  0  0
   20.7657   19.4508   22.0403 C   0  0  0  0  0  0  0  0  0  0  0  0
   21.8563   19.4593   21.9070 H   0  0  0  0  0  0  0  0  0  0  0  0
   20.5638   20.1595   22.8502 H   0  0  0  0  0  0  0  0  0  0  0  0
   20.3426   18.0093   22.4339 C   0  0  0  0  0  0  0  0  0  0  0  0
   21.1926   17.5014   22.9098 H   0  0  0  0  0  0  0  0  0  0  0  0
   20.1437   17.4379   21.5168 H   0  0  0  0  0  0  0  0  0  0  0  0
   19.1093   17.9095   23.3732 C   0  0  0  0  0  0  0  0  0  0  0  0
   18.3763   18.6926   23.1481 H   0  0  0  0  0  0  0  0  0  0  0  0
   18.5991   16.9606   23.1578 H   0  0  0  0  0  0  0  0  0  0  0  0
   19.4583   17.9138   24.8857 C   0  0  0  0  0  0  0  0  0  0  0  0
   20.1497   17.0855   25.0897 H   0  0  0  0  0  0  0  0  0  0  0  0
   18.5486   17.6963   25.4611 H   0  0  0  0  0  0  0  0  0  0  0  0
   20.0775   19.2289   25.4048 C   0  0  2  0  0  0  0  0  0  0  0  0
   20.9657   19.4519   24.8068 H   0  0  0  0  0  0  0  0  0  0  0  0
   20.5140   19.0737   26.8700 C   0  0  0  0  0  0  0  0  0  0  0  0
   19.6578   18.8477   27.5180 H   0  0  0  0  0  0  0  0  0  0  0  0
   21.2453   18.2625   26.9749 H   0  0  0  0  0  0  0  0  0  0  0  0
   20.9849   19.9950   27.2345 H   0  0  0  0  0  0  0  0  0  0  0  0
   19.1391   20.3955   25.2562 N   0  3  0  0  0  0  0  0  0  0  0  0
   18.8570   20.5221   24.2805 H   0  0  0  0  0  0  0  0  0  0  0  0
   19.5731   21.2680   25.5712 H   0  0  0  0  0  0  0  0  0  0  0  0
   18.2883   20.2596   25.8090 H   0  0  0  0  0  0  0  0  0  0  0  0
  1  2  1  0  0  0  0
  1  3  1  0  0  0  0
  1  4  1  0  0  0  0
  1  5  1  0  0  0  0
  5  6  1  0  0  0  0
  5  7  1  0  0  0  0
  5  8  1  0  0  0  0
  8  9  1  0  0  0  0
  8 10  1  0  0  0  0
  8 11  1  0  0  0  0
 11 12  1  0  0  0  0
 11 13  1  0  0  0  0
 11 14  1  0  0  0  0
 14 15  1  0  0  0  0
 14 16  1  0  0  0  0
 14 17  1  0  0  0  0
 17 18  1  0  0  0  0
 17 19  1  0  0  0  0
 17 20  1  0  0  0  0
 20 21  1  0  0  0  0
 20 22  1  0  0  0  0
 22 23  1  0  0  0  0
 22 24  1  0  0  0  0
 22 25  1  0  0  0  0
 20 26  1  0  0  0  0
 26 27  1  0  0  0  0
 26 28  1  0  0  0  0
 26 29  1  0  0  0  0
M  END
> <VM2 Rank>
211

> <Conf_Id>
972

> <Probability>
0.00

> <Sum Probability>
100.00

> <Delta G>
7.297

> <G>
40.999

> <E>
2.642

> <-TS>
38.358

> <U+W>
-21.503

> <U>
30.703

> <W>
-52.205

> <W(PB)>
-54.613

> <W(SA)>
2.408

> <Valence>
8.590

> <Coulomb>
21.433

> <VdW>
0.679

> <VdW6>
-11.711

> <VdW12>
12.390

> <Bond>
0.360

> <Angle>
2.440

> <Pdih>
5.790

> <Idih>
0.000

> <Tether>
0.000

$$$$
VeraChem MOL file


 29 28  0  0  0  0  0  0  0  0999 V2000     
   18.2473   19.3821   20.0628 C   0  0  0  0  0  0  0  0  0  0  0  0
   17.3584   19.3906   20.7070 H   0  0  0  0  0  0  0  0  0  0  0  0
   18.4537   20.4142   19.7507 H   0  0  0  0  0  0  0  0  0  0  0  0
   18.0063   18.8000   19.1639 H   0  0  0  0  0  0  0  0  0  0  0  0
   19.4595   18.7721   20.7978 C   0  0  0  0  0  0  0  0  0  0  0  0
   20.3225   18.7443   20.1178 H   0  0  0  0  0  0  0  0  0  0  0  0
   19.2351   17.7308   21.0683 H   0  0  0  0  0  0  0  0  0  0  0  0
   19.8210   19.5744   22.0669 C   0  0  0  0  0  0  0  0  0  0  0  0
   20.0482   20.6127   21.7881 H   0  0  0  0  0  0  0  0  0  0  0  0
   18.9493   19.6119   22.7296 H   0  0  0  0  0  0  0  0  0  0  0  0
   21.0372   18.9639   22.8046 C   0  0  0  0  0  0  0  0  0  0  0  0
   21.9007   19.0043   22.1261 H   0  0  0  0  0  0  0  0  0  0  0  0
   20.8750   17.8979   23.0112 H   0  0  0  0  0  0  0  0  0  0  0  0
   21.4031   19.7179   24.1086 C   0  0  0  0  0  0  0  0  0  0  0  0
   22.4938   19.8520   24.1143 H   0  0  0  0  0  0  0  0  0  0  0  0
   20.9958   20.7375   24.0959 H   0  0  0  0  0  0  0  0  0  0  0  0
   21.0309   18.9921   25.4345 C   0  0  0  0  0  0  0  0  0  0  0  0
   21.5059   19.5495   26.2524 H   0  0  0  0  0  0  0  0  0  0  0  0
   21.4992   17.9992   25.4559 H   0  0  0  0  0  0  0  0  0  0  0  0
   19.5283   18.8637   25.7922 C   0  0  2  0  0  0  0  0  0  0  0  0
   19.4810   18.6810   26.8702 H   0  0  0  0  0  0  0  0  0  0  0  0
   18.8507   17.6551   25.1217 C   0  0  0  0  0  0  0  0  0  0  0  0
   18.7732   17.7666   24.0369 H   0  0  0  0  0  0  0  0  0  0  0  0
   19.4071   16.7330   25.3302 H   0  0  0  0  0  0  0  0  0  0  0  0
   17.8353   17.5219   25.5144 H   0  0  0  0  0  0  0  0  0  0  0  0
   18.7578   20.1347   25.5648 N   0  3  0  0  0  0  0  0  0  0  0  0
   18.7680   20.3978   24.5769 H   0  0  0  0  0  0  0  0  0  0  0  0
   19.1588   20.9130   26.0961 H   0  0  0  0  0  0  0  0  0  0  0  0
   17.7802   20.0371   25.8537 H   0  0  0  0  0  0  0  0  0  0  0  0
  1  2  1  0  0  0  0
  1  3  1  0  0  0  0
  1  4  1  0  0  0  0
  1  5  1  0  0  0  0
  5  6  1  0  0  0  0
  5  7  1  0  0  0  0
  5  8  1  0  0  0  0
  8  9  1  0  0  0  0
  8 10  1  0  0  0  0
  8 11  1  0  0  0  0
 11 12  1  0  0  0  0
 11 13  1  0  0  0  0
 11 14  1  0  0  0  0
 14 15  1  0  0  0  0
 14 16  1  0  0  0  0
 14 17  1  0  0  0  0
 17 18  1  0  0  0  0
 17 19  1  0  0  0  0
 17 20  1  0  0  0  0
 20 21  1  0  0  0  0
 20 22  1  0  0  0  0
 22 23  1  0  0  0  0
 22 24  1  0  0  0  0
 22 25  1  0  0  0  0
 20 26  1  0  0  0  0
 26 27  1  0  0  0  0
 26 28  1  0  0  0  0
 26 29  1  0  0  0  0
M  END
> <VM2 Rank>
212

> <Conf_Id>
97

> <Probability>
0.00

> <Sum Probability>
100.00

> <Delta G>
7.407

> <G>
41.109

> <E>
2.873

> <-TS>
38.235

> <U+W>
-21.271

> <U>
31.280

> <W>
-52.551

> <W(PB)>
-54.969

> <W(SA)>
2.418

> <Valence>
9.217

> <Coulomb>
21.424

> <VdW>
0.639

> <VdW6>
-11.253

> <VdW12>
11.892

> <Bond>
0.349

> <Angle>
3.017

> <Pdih>
5.851

> <Idih>
0.000

> <Tether>
0.000

$$$$
VeraChem MOL file


 29 28  0  0  0  0  0  0  0  0999 V2000     
   19.0407   19.6608   19.7811 C   0  0  0  0  0  0  0  0  0  0  0  0
   18.6505   18.6440   19.9142 H   0  0  0  0  0  0  0  0  0  0  0  0
   18.3401   20.2014   19.1316 H   0  0  0  0  0  0  0  0  0  0  0  0
   20.0025   19.5944   19.2562 H   0  0  0  0  0  0  0  0  0  0  0  0
   19.1961   20.3897   21.1348 C   0  0  0  0  0  0  0  0  0  0  0  0
   18.2245   20.4235   21.6467 H   0  0  0  0  0  0  0  0  0  0  0  0
   19.4802   21.4342   20.9446 H   0  0  0  0  0  0  0  0  0  0  0  0
   20.2579   19.7451   22.0578 C   0  0  0  0  0  0  0  0  0  0  0  0
   21.2318   19.7516   21.5490 H   0  0  0  0  0  0  0  0  0  0  0  0
   20.3868   20.3781   22.9438 H   0  0  0  0  0  0  0  0  0  0  0  0
   19.9116   18.2913   22.4722 C   0  0  0  0  0  0  0  0  0  0  0  0
   20.0330   17.6475   21.5904 H   0  0  0  0  0  0  0  0  0  0  0  0
   18.8565   18.1992   22.7617 H   0  0  0  0  0  0  0  0  0  0  0  0
   20.8278   17.7461   23.5974 C   0  0  0  0  0  0  0  0  0  0  0  0
   21.0254   16.6857   23.3879 H   0  0  0  0  0  0  0  0  0  0  0  0
   21.8092   18.2390   23.5585 H   0  0  0  0  0  0  0  0  0  0  0  0
   20.2486   17.8319   25.0363 C   0  0  0  0  0  0  0  0  0  0  0  0
   20.9686   17.3382   25.7025 H   0  0  0  0  0  0  0  0  0  0  0  0
   19.3262   17.2400   25.1048 H   0  0  0  0  0  0  0  0  0  0  0  0
   19.9902   19.2623   25.5641 C   0  0  2  0  0  0  0  0  0  0  0  0
   20.8197   19.9023   25.2483 H   0  0  0  0  0  0  0  0  0  0  0  0
   19.9358   19.2664   27.1005 C   0  0  0  0  0  0  0  0  0  0  0  0
   19.7677   20.2816   27.4808 H   0  0  0  0  0  0  0  0  0  0  0  0
   19.1268   18.6240   27.4706 H   0  0  0  0  0  0  0  0  0  0  0  0
   20.8806   18.9059   27.5260 H   0  0  0  0  0  0  0  0  0  0  0  0
   18.7274   19.8624   25.0098 N   0  3  0  0  0  0  0  0  0  0  0  0
   17.9037   19.3310   25.3051 H   0  0  0  0  0  0  0  0  0  0  0  0
   18.7459   19.8660   23.9854 H   0  0  0  0  0  0  0  0  0  0  0  0
   18.6005   20.8281   25.3267 H   0  0  0  0  0  0  0  0  0  0  0  0
  1  2  1  0  0  0  0
  1  3  1  0  0  0  0
  1  4  1  0  0  0  0
  1  5  1  0  0  0  0
  5  6  1  0  0  0  0
  5  7  1  0  0  0  0
  5  8  1  0  0  0  0
  8  9  1  0  0  0  0
  8 10  1  0  0  0  0
  8 11  1  0  0  0  0
 11 12  1  0  0  0  0
 11 13  1  0  0  0  0
 11 14  1  0  0  0  0
 14 15  1  0  0  0  0
 14 16  1  0  0  0  0
 14 17  1  0  0  0  0
 17 18  1  0  0  0  0
 17 19  1  0  0  0  0
 17 20  1  0  0  0  0
 20 21  1  0  0  0  0
 20 22  1  0  0  0  0
 22 23  1  0  0  0  0
 22 24  1  0  0  0  0
 22 25  1  0  0  0  0
 20 26  1  0  0  0  0
 26 27  1  0  0  0  0
 26 28  1  0  0  0  0
 26 29  1  0  0  0  0
M  END
> <VM2 Rank>
213

> <Conf_Id>
549

> <Probability>
0.00

> <Sum Probability>
100.00

> <Delta G>
7.689

> <G>
41.391

> <E>
3.120

> <-TS>
38.271

> <U+W>
-21.025

> <U>
30.361

> <W>
-51.386

> <W(PB)>
-53.825

> <W(SA)>
2.439

> <Valence>
7.956

> <Coulomb>
21.427

> <VdW>
0.978

> <VdW6>
-11.470

> <VdW12>
12.448

> <Bond>
0.321

> <Angle>
2.290

> <Pdih>
5.345

> <Idih>
0.000

> <Tether>
0.000

$$$$
VeraChem MOL file


 29 28  0  0  0  0  0  0  0  0999 V2000     
   19.7874   18.3273   20.2615 C   0  0  0  0  0  0  0  0  0  0  0  0
   19.6147   18.0560   19.2120 H   0  0  0  0  0  0  0  0  0  0  0  0
   20.8680   18.4631   20.3871 H   0  0  0  0  0  0  0  0  0  0  0  0
   19.4629   17.4844   20.8852 H   0  0  0  0  0  0  0  0  0  0  0  0
   19.0167   19.6166   20.6176 C   0  0  0  0  0  0  0  0  0  0  0  0
   17.9840   19.5168   20.2553 H   0  0  0  0  0  0  0  0  0  0  0  0
   19.4496   20.4650   20.0695 H   0  0  0  0  0  0  0  0  0  0  0  0
   18.9702   19.9403   22.1326 C   0  0  0  0  0  0  0  0  0  0  0  0
   18.3382   20.8311   22.2517 H   0  0  0  0  0  0  0  0  0  0  0  0
   18.4465   19.1377   22.6648 H   0  0  0  0  0  0  0  0  0  0  0  0
   20.3484   20.2447   22.7837 C   0  0  0  0  0  0  0  0  0  0  0  0
   20.2145   20.9851   23.5819 H   0  0  0  0  0  0  0  0  0  0  0  0
   20.9887   20.7475   22.0459 H   0  0  0  0  0  0  0  0  0  0  0  0
   21.1141   19.0234   23.3647 C   0  0  0  0  0  0  0  0  0  0  0  0
   21.4121   18.3546   22.5497 H   0  0  0  0  0  0  0  0  0  0  0  0
   22.0570   19.3876   23.7953 H   0  0  0  0  0  0  0  0  0  0  0  0
   20.3821   18.1769   24.4432 C   0  0  0  0  0  0  0  0  0  0  0  0
   21.0672   17.3680   24.7300 H   0  0  0  0  0  0  0  0  0  0  0  0
   19.5047   17.6749   24.0172 H   0  0  0  0  0  0  0  0  0  0  0  0
   19.9835   18.9559   25.7186 C   0  0  2  0  0  0  0  0  0  0  0  0
   20.7943   19.6479   25.9661 H   0  0  0  0  0  0  0  0  0  0  0  0
   19.7942   17.9915   26.9010 C   0  0  0  0  0  0  0  0  0  0  0  0
   19.5266   18.5413   27.8119 H   0  0  0  0  0  0  0  0  0  0  0  0
   19.0002   17.2627   26.6953 H   0  0  0  0  0  0  0  0  0  0  0  0
   20.7198   17.4399   27.1076 H   0  0  0  0  0  0  0  0  0  0  0  0
   18.7394   19.7793   25.5311 N   0  3  0  0  0  0  0  0  0  0  0  0
   18.5424   20.3542   26.3555 H   0  0  0  0  0  0  0  0  0  0  0  0
   17.9227   19.1841   25.3695 H   0  0  0  0  0  0  0  0  0  0  0  0
   18.8301   20.4045   24.7261 H   0  0  0  0  0  0  0  0  0  0  0  0
  1  2  1  0  0  0  0
  1  3  1  0  0  0  0
  1  4  1  0  0  0  0
  1  5  1  0  0  0  0
  5  6  1  0  0  0  0
  5  7  1  0  0  0  0
  5  8  1  0  0  0  0
  8  9  1  0  0  0  0
  8 10  1  0  0  0  0
  8 11  1  0  0  0  0
 11 12  1  0  0  0  0
 11 13  1  0  0  0  0
 11 14  1  0  0  0  0
 14 15  1  0  0  0  0
 14 16  1  0  0  0  0
 14 17  1  0  0  0  0
 17 18  1  0  0  0  0
 17 19  1  0  0  0  0
 17 20  1  0  0  0  0
 20 21  1  0  0  0  0
 20 22  1  0  0  0  0
 22 23  1  0  0  0  0
 22 24  1  0  0  0  0
 22 25  1  0  0  0  0
 20 26  1  0  0  0  0
 26 27  1  0  0  0  0
 26 28  1  0  0  0  0
 26 29  1  0  0  0  0
M  END
> <VM2 Rank>
214

> <Conf_Id>
1018

> <Probability>
0.00

> <Sum Probability>
100.00

> <Delta G>
7.736

> <G>
41.438

> <E>
3.267

> <-TS>
38.171

> <U+W>
-20.878

> <U>
31.242

> <W>
-52.120

> <W(PB)>
-54.504

> <W(SA)>
2.384

> <Valence>
8.665

> <Coulomb>
21.669

> <VdW>
0.908

> <VdW6>
-12.026

> <VdW12>
12.934

> <Bond>
0.415

> <Angle>
3.382

> <Pdih>
4.867

> <Idih>
0.000

> <Tether>
0.000

$$$$
VeraChem MOL file


 29 28  0  0  0  0  0  0  0  0999 V2000     
   18.1742   19.3269   20.1250 C   0  0  0  0  0  0  0  0  0  0  0  0
   17.9071   20.0280   19.3236 H   0  0  0  0  0  0  0  0  0  0  0  0
   18.3691   18.3489   19.6658 H   0  0  0  0  0  0  0  0  0  0  0  0
   17.3051   19.2262   20.7881 H   0  0  0  0  0  0  0  0  0  0  0  0
   19.4095   19.8313   20.9004 C   0  0  0  0  0  0  0  0  0  0  0  0
   19.1957   20.8249   21.3184 H   0  0  0  0  0  0  0  0  0  0  0  0
   20.2512   19.9553   20.2046 H   0  0  0  0  0  0  0  0  0  0  0  0
   19.8087   18.8596   22.0324 C   0  0  0  0  0  0  0  0  0  0  0  0
   18.9555   18.7148   22.7038 H   0  0  0  0  0  0  0  0  0  0  0  0
   20.0310   17.8731   21.6023 H   0  0  0  0  0  0  0  0  0  0  0  0
   21.0473   19.3638   22.8125 C   0  0  0  0  0  0  0  0  0  0  0  0
   20.9108   20.4036   23.1378 H   0  0  0  0  0  0  0  0  0  0  0  0
   21.8981   19.3845   22.1170 H   0  0  0  0  0  0  0  0  0  0  0  0
   21.4229   18.4638   24.0189 C   0  0  0  0  0  0  0  0  0  0  0  0
   21.0138   17.4527   23.8926 H   0  0  0  0  0  0  0  0  0  0  0  0
   22.5136   18.3309   24.0043 H   0  0  0  0  0  0  0  0  0  0  0  0
   21.0549   19.0387   25.4177 C   0  0  0  0  0  0  0  0  0  0  0  0
   21.5231   20.0245   25.5371 H   0  0  0  0  0  0  0  0  0  0  0  0
   21.5266   18.4012   26.1771 H   0  0  0  0  0  0  0  0  0  0  0  0
   19.5519   19.1515   25.7741 C   0  0  2  0  0  0  0  0  0  0  0  0
   19.4971   19.4700   26.8197 H   0  0  0  0  0  0  0  0  0  0  0  0
   18.8262   17.7980   25.6769 C   0  0  0  0  0  0  0  0  0  0  0  0
   18.7771   17.4305   24.6462 H   0  0  0  0  0  0  0  0  0  0  0  0
   19.3374   17.0408   26.2843 H   0  0  0  0  0  0  0  0  0  0  0  0
   17.7990   17.8853   26.0516 H   0  0  0  0  0  0  0  0  0  0  0  0
   18.8404   20.2225   24.9961 N   0  3  0  0  0  0  0  0  0  0  0  0
   18.9038   20.0447   23.9904 H   0  0  0  0  0  0  0  0  0  0  0  0
   19.2499   21.1445   25.1727 H   0  0  0  0  0  0  0  0  0  0  0  0
   17.8490   20.2736   25.2483 H   0  0  0  0  0  0  0  0  0  0  0  0
  1  2  1  0  0  0  0
  1  3  1  0  0  0  0
  1  4  1  0  0  0  0
  1  5  1  0  0  0  0
  5  6  1  0  0  0  0
  5  7  1  0  0  0  0
  5  8  1  0  0  0  0
  8  9  1  0  0  0  0
  8 10  1  0  0  0  0
  8 11  1  0  0  0  0
 11 12  1  0  0  0  0
 11 13  1  0  0  0  0
 11 14  1  0  0  0  0
 14 15  1  0  0  0  0
 14 16  1  0  0  0  0
 14 17  1  0  0  0  0
 17 18  1  0  0  0  0
 17 19  1  0  0  0  0
 17 20  1  0  0  0  0
 20 21  1  0  0  0  0
 20 22  1  0  0  0  0
 22 23  1  0  0  0  0
 22 24  1  0  0  0  0
 22 25  1  0  0  0  0
 20 26  1  0  0  0  0
 26 27  1  0  0  0  0
 26 28  1  0  0  0  0
 26 29  1  0  0  0  0
M  END
> <VM2 Rank>
215

> <Conf_Id>
954

> <Probability>
0.00

> <Sum Probability>
100.00

> <Delta G>
7.849

> <G>
41.551

> <E>
3.005

> <-TS>
38.546

> <U+W>
-21.140

> <U>
30.268

> <W>
-51.408

> <W(PB)>
-53.817

> <W(SA)>
2.410

> <Valence>
8.045

> <Coulomb>
21.611

> <VdW>
0.612

> <VdW6>
-11.609

> <VdW12>
12.221

> <Bond>
0.344

> <Angle>
2.670

> <Pdih>
5.031

> <Idih>
0.000

> <Tether>
0.000

$$$$
VeraChem MOL file


 29 28  0  0  0  0  0  0  0  0999 V2000     
   19.9539   20.3235   20.0304 C   0  0  0  0  0  0  0  0  0  0  0  0
   20.6598   20.4268   19.1962 H   0  0  0  0  0  0  0  0  0  0  0  0
   18.9982   20.7613   19.7141 H   0  0  0  0  0  0  0  0  0  0  0  0
   20.3360   20.9195   20.8667 H   0  0  0  0  0  0  0  0  0  0  0  0
   19.7782   18.8347   20.4102 C   0  0  0  0  0  0  0  0  0  0  0  0
   20.7527   18.3804   20.6375 H   0  0  0  0  0  0  0  0  0  0  0  0
   19.3958   18.3021   19.5281 H   0  0  0  0  0  0  0  0  0  0  0  0
   18.7927   18.6174   21.5872 C   0  0  0  0  0  0  0  0  0  0  0  0
   18.0711   19.4444   21.6367 H   0  0  0  0  0  0  0  0  0  0  0  0
   18.1972   17.7192   21.3725 H   0  0  0  0  0  0  0  0  0  0  0  0
   19.4631   18.4128   22.9704 C   0  0  0  0  0  0  0  0  0  0  0  0
   20.1010   17.5189   22.9387 H   0  0  0  0  0  0  0  0  0  0  0  0
   18.6638   18.2026   23.6895 H   0  0  0  0  0  0  0  0  0  0  0  0
   20.2933   19.6239   23.4602 C   0  0  0  0  0  0  0  0  0  0  0  0
   21.0731   19.8386   22.7192 H   0  0  0  0  0  0  0  0  0  0  0  0
   19.6575   20.5184   23.4978 H   0  0  0  0  0  0  0  0  0  0  0  0
   21.0120   19.4202   24.8246 C   0  0  0  0  0  0  0  0  0  0  0  0
   21.6015   20.3258   25.0187 H   0  0  0  0  0  0  0  0  0  0  0  0
   21.7497   18.6119   24.7343 H   0  0  0  0  0  0  0  0  0  0  0  0
   20.1254   19.1776   26.0739 C   0  0  2  0  0  0  0  0  0  0  0  0
   20.6894   19.5500   26.9347 H   0  0  0  0  0  0  0  0  0  0  0  0
   19.8737   17.6814   26.3388 C   0  0  0  0  0  0  0  0  0  0  0  0
   19.3327   17.5468   27.2834 H   0  0  0  0  0  0  0  0  0  0  0  0
   19.2852   17.2073   25.5479 H   0  0  0  0  0  0  0  0  0  0  0  0
   20.8232   17.1387   26.4251 H   0  0  0  0  0  0  0  0  0  0  0  0
   18.8436   19.9647   26.0584 N   0  3  0  0  0  0  0  0  0  0  0  0
   19.0246   20.9692   25.9757 H   0  0  0  0  0  0  0  0  0  0  0  0
   18.3031   19.8191   26.9159 H   0  0  0  0  0  0  0  0  0  0  0  0
   18.2544   19.6917   25.2679 H   0  0  0  0  0  0  0  0  0  0  0  0
  1  2  1  0  0  0  0
  1  3  1  0  0  0  0
  1  4  1  0  0  0  0
  1  5  1  0  0  0  0
  5  6  1  0  0  0  0
  5  7  1  0  0  0  0
  5  8  1  0  0  0  0
  8  9  1  0  0  0  0
  8 10  1  0  0  0  0
  8 11  1  0  0  0  0
 11 12  1  0  0  0  0
 11 13  1  0  0  0  0
 11 14  1  0  0  0  0
 14 15  1  0  0  0  0
 14 16  1  0  0  0  0
 14 17  1  0  0  0  0
 17 18  1  0  0  0  0
 17 19  1  0  0  0  0
 17 20  1  0  0  0  0
 20 21  1  0  0  0  0
 20 22  1  0  0  0  0
 22 23  1  0  0  0  0
 22 24  1  0  0  0  0
 22 25  1  0  0  0  0
 20 26  1  0  0  0  0
 26 27  1  0  0  0  0
 26 28  1  0  0  0  0
 26 29  1  0  0  0  0
M  END
> <VM2 Rank>
216

> <Conf_Id>
105

> <Probability>
0.00

> <Sum Probability>
100.00

> <Delta G>
7.858

> <G>
41.560

> <E>
3.396

> <-TS>
38.164

> <U+W>
-20.748

> <U>
31.582

> <W>
-52.331

> <W(PB)>
-54.756

> <W(SA)>
2.425

> <Valence>
9.578

> <Coulomb>
20.656

> <VdW>
1.349

> <VdW6>
-11.327

> <VdW12>
12.676

> <Bond>
0.393

> <Angle>
3.220

> <Pdih>
5.965

> <Idih>
0.000

> <Tether>
0.000

$$$$
VeraChem MOL file


 29 28  0  0  0  0  0  0  0  0999 V2000     
   18.7642   18.0469   20.6758 C   0  0  0  0  0  0  0  0  0  0  0  0
   18.4270   17.7687   19.6689 H   0  0  0  0  0  0  0  0  0  0  0  0
   19.5813   17.3679   20.9486 H   0  0  0  0  0  0  0  0  0  0  0  0
   17.9286   17.8767   21.3669 H   0  0  0  0  0  0  0  0  0  0  0  0
   19.2171   19.5243   20.7040 C   0  0  0  0  0  0  0  0  0  0  0  0
   18.3977   20.1515   20.3259 H   0  0  0  0  0  0  0  0  0  0  0  0
   20.0580   19.6673   20.0112 H   0  0  0  0  0  0  0  0  0  0  0  0
   19.6111   20.0200   22.1160 C   0  0  0  0  0  0  0  0  0  0  0  0
   19.7787   21.1048   22.0659 H   0  0  0  0  0  0  0  0  0  0  0  0
   18.7667   19.8725   22.7984 H   0  0  0  0  0  0  0  0  0  0  0  0
   20.8911   19.3424   22.6694 C   0  0  0  0  0  0  0  0  0  0  0  0
   21.7055   19.5242   21.9545 H   0  0  0  0  0  0  0  0  0  0  0  0
   20.7786   18.2524   22.7162 H   0  0  0  0  0  0  0  0  0  0  0  0
   21.3250   19.8927   24.0525 C   0  0  0  0  0  0  0  0  0  0  0  0
   22.4100   20.0619   24.0114 H   0  0  0  0  0  0  0  0  0  0  0  0
   20.8937   20.8868   24.2293 H   0  0  0  0  0  0  0  0  0  0  0  0
   21.0613   18.9546   25.2664 C   0  0  0  0  0  0  0  0  0  0  0  0
   21.5723   19.3956   26.1323 H   0  0  0  0  0  0  0  0  0  0  0  0
   21.5586   17.9895   25.1024 H   0  0  0  0  0  0  0  0  0  0  0  0
   19.5895   18.7142   25.6884 C   0  0  2  0  0  0  0  0  0  0  0  0
   19.6160   18.3751   26.7285 H   0  0  0  0  0  0  0  0  0  0  0  0
   18.9111   17.5892   24.8866 C   0  0  0  0  0  0  0  0  0  0  0  0
   18.7693   17.8527   23.8355 H   0  0  0  0  0  0  0  0  0  0  0  0
   19.5062   16.6687   24.9292 H   0  0  0  0  0  0  0  0  0  0  0  0
   17.9242   17.3624   25.3081 H   0  0  0  0  0  0  0  0  0  0  0  0
   18.7656   19.9718   25.6950 N   0  3  0  0  0  0  0  0  0  0  0  0
   19.1732   20.6805   26.3118 H   0  0  0  0  0  0  0  0  0  0  0  0
   17.8112   19.7933   26.0206 H   0  0  0  0  0  0  0  0  0  0  0  0
   18.7070   20.3757   24.7574 H   0  0  0  0  0  0  0  0  0  0  0  0
  1  2  1  0  0  0  0
  1  3  1  0  0  0  0
  1  4  1  0  0  0  0
  1  5  1  0  0  0  0
  5  6  1  0  0  0  0
  5  7  1  0  0  0  0
  5  8  1  0  0  0  0
  8  9  1  0  0  0  0
  8 10  1  0  0  0  0
  8 11  1  0  0  0  0
 11 12  1  0  0  0  0
 11 13  1  0  0  0  0
 11 14  1  0  0  0  0
 14 15  1  0  0  0  0
 14 16  1  0  0  0  0
 14 17  1  0  0  0  0
 17 18  1  0  0  0  0
 17 19  1  0  0  0  0
 17 20  1  0  0  0  0
 20 21  1  0  0  0  0
 20 22  1  0  0  0  0
 22 23  1  0  0  0  0
 22 24  1  0  0  0  0
 22 25  1  0  0  0  0
 20 26  1  0  0  0  0
 26 27  1  0  0  0  0
 26 28  1  0  0  0  0
 26 29  1  0  0  0  0
M  END
> <VM2 Rank>
217

> <Conf_Id>
682

> <Probability>
0.00

> <Sum Probability>
100.00

> <Delta G>
8.133

> <G>
41.835

> <E>
3.358

> <-TS>
38.477

> <U+W>
-20.787

> <U>
31.790

> <W>
-52.577

> <W(PB)>
-54.949

> <W(SA)>
2.373

> <Valence>
9.763

> <Coulomb>
21.416

> <VdW>
0.611

> <VdW6>
-12.189

> <VdW12>
12.800

> <Bond>
0.394

> <Angle>
3.287

> <Pdih>
6.083

> <Idih>
0.000

> <Tether>
0.000

$$$$
VeraChem MOL file


 29 28  0  0  0  0  0  0  0  0999 V2000     
   18.0961   19.8650   21.1149 C   0  0  0  0  0  0  0  0  0  0  0  0
   17.0386   19.5730   21.0772 H   0  0  0  0  0  0  0  0  0  0  0  0
   18.1901   20.6702   21.8522 H   0  0  0  0  0  0  0  0  0  0  0  0
   18.3637   20.2726   20.1314 H   0  0  0  0  0  0  0  0  0  0  0  0
   18.9807   18.6464   21.4661 C   0  0  0  0  0  0  0  0  0  0  0  0
   18.7763   17.8511   20.7357 H   0  0  0  0  0  0  0  0  0  0  0  0
   18.6843   18.2387   22.4380 H   0  0  0  0  0  0  0  0  0  0  0  0
   20.4994   18.9567   21.4336 C   0  0  0  0  0  0  0  0  0  0  0  0
   21.0660   18.0170   21.4886 H   0  0  0  0  0  0  0  0  0  0  0  0
   20.7355   19.3814   20.4482 H   0  0  0  0  0  0  0  0  0  0  0  0
   21.0117   19.9342   22.5273 C   0  0  0  0  0  0  0  0  0  0  0  0
   20.2499   20.6717   22.7940 H   0  0  0  0  0  0  0  0  0  0  0  0
   21.8214   20.5272   22.0799 H   0  0  0  0  0  0  0  0  0  0  0  0
   21.6079   19.2517   23.7895 C   0  0  0  0  0  0  0  0  0  0  0  0
   22.4664   18.6462   23.4673 H   0  0  0  0  0  0  0  0  0  0  0  0
   22.0286   20.0242   24.4479 H   0  0  0  0  0  0  0  0  0  0  0  0
   20.6673   18.3398   24.6232 C   0  0  0  0  0  0  0  0  0  0  0  0
   21.3091   17.7332   25.2759 H   0  0  0  0  0  0  0  0  0  0  0  0
   20.1501   17.6184   23.9815 H   0  0  0  0  0  0  0  0  0  0  0  0
   19.6644   19.0905   25.5315 C   0  0  2  0  0  0  0  0  0  0  0  0
   20.2247   19.8174   26.1274 H   0  0  0  0  0  0  0  0  0  0  0  0
   18.9825   18.1053   26.4946 C   0  0  0  0  0  0  0  0  0  0  0  0
   18.2969   18.6328   27.1692 H   0  0  0  0  0  0  0  0  0  0  0  0
   18.4080   17.3480   25.9465 H   0  0  0  0  0  0  0  0  0  0  0  0
   19.7249   17.5879   27.1150 H   0  0  0  0  0  0  0  0  0  0  0  0
   18.6260   19.8665   24.7731 N   0  3  0  0  0  0  0  0  0  0  0  0
   18.0014   20.3729   25.4076 H   0  0  0  0  0  0  0  0  0  0  0  0
   18.0491   19.2499   24.1955 H   0  0  0  0  0  0  0  0  0  0  0  0
   19.0632   20.5531   24.1545 H   0  0  0  0  0  0  0  0  0  0  0  0
  1  2  1  0  0  0  0
  1  3  1  0  0  0  0
  1  4  1  0  0  0  0
  1  5  1  0  0  0  0
  5  6  1  0  0  0  0
  5  7  1  0  0  0  0
  5  8  1  0  0  0  0
  8  9  1  0  0  0  0
  8 10  1  0  0  0  0
  8 11  1  0  0  0  0
 11 12  1  0  0  0  0
 11 13  1  0  0  0  0
 11 14  1  0  0  0  0
 14 15  1  0  0  0  0
 14 16  1  0  0  0  0
 14 17  1  0  0  0  0
 17 18  1  0  0  0  0
 17 19  1  0  0  0  0
 17 20  1  0  0  0  0
 20 21  1  0  0  0  0
 20 22  1  0  0  0  0
 22 23  1  0  0  0  0
 22 24  1  0  0  0  0
 22 25  1  0  0  0  0
 20 26  1  0  0  0  0
 26 27  1  0  0  0  0
 26 28  1  0  0  0  0
 26 29  1  0  0  0  0
M  END
> <VM2 Rank>
218

> <Conf_Id>
982

> <Probability>
0.00

> <Sum Probability>
100.00

> <Delta G>
9.172

> <G>
42.874

> <E>
4.509

> <-TS>
38.365

> <U+W>
-19.635

> <U>
31.754

> <W>
-51.390

> <W(PB)>
-53.731

> <W(SA)>
2.341

> <Valence>
9.082

> <Coulomb>
22.210

> <VdW>
0.463

> <VdW6>
-12.280

> <VdW12>
12.742

> <Bond>
0.434

> <Angle>
3.629

> <Pdih>
5.018

> <Idih>
0.000

> <Tether>
0.000

$$$$
VeraChem MOL file


 29 28  0  0  0  0  0  0  0  0999 V2000     
   20.7530   19.6642   20.3665 C   0  0  0  0  0  0  0  0  0  0  0  0
   20.9059   18.5824   20.4669 H   0  0  0  0  0  0  0  0  0  0  0  0
   20.9952   19.9368   19.3312 H   0  0  0  0  0  0  0  0  0  0  0  0
   21.4653   20.1789   21.0242 H   0  0  0  0  0  0  0  0  0  0  0  0
   19.2987   20.0606   20.7034 C   0  0  0  0  0  0  0  0  0  0  0  0
   18.6091   19.5157   20.0437 H   0  0  0  0  0  0  0  0  0  0  0  0
   19.1615   21.1264   20.4735 H   0  0  0  0  0  0  0  0  0  0  0  0
   18.9046   19.8186   22.1825 C   0  0  0  0  0  0  0  0  0  0  0  0
   19.5477   20.4255   22.8329 H   0  0  0  0  0  0  0  0  0  0  0  0
   17.8831   20.1999   22.3183 H   0  0  0  0  0  0  0  0  0  0  0  0
   18.9330   18.3258   22.6120 C   0  0  0  0  0  0  0  0  0  0  0  0
   18.7373   17.7016   21.7291 H   0  0  0  0  0  0  0  0  0  0  0  0
   18.1009   18.1133   23.2964 H   0  0  0  0  0  0  0  0  0  0  0  0
   20.2664   17.8741   23.2662 C   0  0  0  0  0  0  0  0  0  0  0  0
   20.4620   16.8400   22.9509 H   0  0  0  0  0  0  0  0  0  0  0  0
   21.1069   18.4630   22.8776 H   0  0  0  0  0  0  0  0  0  0  0  0
   20.2924   17.8978   24.8189 C   0  0  0  0  0  0  0  0  0  0  0  0
   21.2427   17.4447   25.1314 H   0  0  0  0  0  0  0  0  0  0  0  0
   19.5055   17.2449   25.2193 H   0  0  0  0  0  0  0  0  0  0  0  0
   20.1853   19.3017   25.4579 C   0  0  2  0  0  0  0  0  0  0  0  0
   20.7979   19.9946   24.8731 H   0  0  0  0  0  0  0  0  0  0  0  0
   20.7233   19.2792   26.8979 C   0  0  0  0  0  0  0  0  0  0  0  0
   20.1502   18.5845   27.5247 H   0  0  0  0  0  0  0  0  0  0  0  0
   21.7755   18.9689   26.9172 H   0  0  0  0  0  0  0  0  0  0  0  0
   20.6641   20.2768   27.3505 H   0  0  0  0  0  0  0  0  0  0  0  0
   18.7794   19.8340   25.4486 N   0  3  0  0  0  0  0  0  0  0  0  0
   18.4027   19.8481   24.4967 H   0  0  0  0  0  0  0  0  0  0  0  0
   18.7365   20.7878   25.8195 H   0  0  0  0  0  0  0  0  0  0  0  0
   18.1594   19.2535   26.0200 H   0  0  0  0  0  0  0  0  0  0  0  0
  1  2  1  0  0  0  0
  1  3  1  0  0  0  0
  1  4  1  0  0  0  0
  1  5  1  0  0  0  0
  5  6  1  0  0  0  0
  5  7  1  0  0  0  0
  5  8  1  0  0  0  0
  8  9  1  0  0  0  0
  8 10  1  0  0  0  0
  8 11  1  0  0  0  0
 11 12  1  0  0  0  0
 11 13  1  0  0  0  0
 11 14  1  0  0  0  0
 14 15  1  0  0  0  0
 14 16  1  0  0  0  0
 14 17  1  0  0  0  0
 17 18  1  0  0  0  0
 17 19  1  0  0  0  0
 17 20  1  0  0  0  0
 20 21  1  0  0  0  0
 20 22  1  0  0  0  0
 22 23  1  0  0  0  0
 22 24  1  0  0  0  0
 22 25  1  0  0  0  0
 20 26  1  0  0  0  0
 26 27  1  0  0  0  0
 26 28  1  0  0  0  0
 26 29  1  0  0  0  0
M  END
> <VM2 Rank>
219

> <Conf_Id>
700

> <Probability>
0.00

> <Sum Probability>
100.00

> <Delta G>
9.373

> <G>
43.075

> <E>
4.609

> <-TS>
38.467

> <U+W>
-19.536

> <U>
32.302

> <W>
-51.838

> <W(PB)>
-54.236

> <W(SA)>
2.398

> <Valence>
9.851

> <Coulomb>
21.477

> <VdW>
0.974

> <VdW6>
-12.184

> <VdW12>
13.159

> <Bond>
0.376

> <Angle>
2.508

> <Pdih>
6.967

> <Idih>
0.000

> <Tether>
0.000

$$$$
