@<TRIPOS>MOLECULE
guest-s22_vm2.mol2 : vm2 ligand conformer 1
          20          19           1
SMALL
USER_CHARGES
 
@<TRIPOS>ATOM
       1    C1      20.445625   18.066084   18.739888 C.2        1 MOL1        -0.2535
       2    H1      20.583810   17.288434   19.488027 H          1 MOL1         0.0845
       3    H2      20.659905   17.797452   17.706877 H          1 MOL1         0.0845
       4    C2      20.033100   19.299508   19.053580 C.2        1 MOL1        -0.1324
       5    H3      19.913216   20.036138   18.259456 H          1 MOL1         0.0833
       6    C3      19.697197   19.819653   20.441251 C.3        1 MOL1        -0.1813
       7    H4      18.664267   20.192716   20.437720 H          1 MOL1         0.0753
       8    H5      20.327074   20.694219   20.652259 H          1 MOL1         0.0753
       9    C4      19.860464   18.789685   21.583394 C.3        1 MOL1        -0.1855
      10    H6      19.216747   17.920854   21.388850 H          1 MOL1         0.0755
      11    H7      20.897585   18.427789   21.605724 H          1 MOL1         0.0755
      12    C5      19.500207   19.396536   22.957063 C.3        1 MOL1        -0.1855
      13    H8      18.463492   19.760650   22.941228 H          1 MOL1         0.0755
      14    H9      20.140900   20.266526   23.157651 H          1 MOL1         0.0755
      15    C6      19.662884   18.367111   24.102445 C.3        1 MOL1        -0.1958
      16    H10     19.019138   17.497364   23.924306 H          1 MOL1         0.0753
      17    H11     20.696634   18.003091   24.140586 H          1 MOL1         0.0753
      18    C7      19.312973   18.942978   25.469897 C.2        1 MOL1         0.6174
      19    O1      20.197237   19.474981   26.111535 O.co2      1 MOL1        -0.6695
      20    O2      18.161312   18.861463   25.848948 O.co2      1 MOL1        -0.6695
@<TRIPOS>BOND
    1     1     2    1
    2     1     3    1
    3     1     4    2
    4     4     5    1
    5     4     6    1
    6     6     7    1
    7     6     8    1
    8     6     9    1
    9     9    10    1
   10     9    11    1
   11     9    12    1
   12    12    13    1
   13    12    14    1
   14    12    15    1
   15    15    16    1
   16    15    17    1
   17    15    18    1
   18    18    19    1
   19    18    20    2
@<TRIPOS>SUBSTRUCTURE
       1 MOL1            1 RESIDUE      1      MOL     
@<SCITEGIC>MOL_PROPERTY
VM2 Rank
SciTegic.value.IntegerValue
1

@<SCITEGIC>MOL_PROPERTY
Conf_Id
SciTegic.value.IntegerValue
423

@<SCITEGIC>MOL_PROPERTY
Probability
SciTegic.value.DoubleValue
13.68

@<SCITEGIC>MOL_PROPERTY
Sum Probability
SciTegic.value.DoubleValue
13.68

@<SCITEGIC>MOL_PROPERTY
Delta G
SciTegic.value.DoubleValue
0.000

@<SCITEGIC>MOL_PROPERTY
G
SciTegic.value.DoubleValue
-21.890

@<SCITEGIC>MOL_PROPERTY
E
SciTegic.value.DoubleValue
-37.139

@<SCITEGIC>MOL_PROPERTY
-TS
SciTegic.value.DoubleValue
15.249

@<SCITEGIC>MOL_PROPERTY
U+W
SciTegic.value.DoubleValue
-53.235

@<SCITEGIC>MOL_PROPERTY
U
SciTegic.value.DoubleValue
6.572

@<SCITEGIC>MOL_PROPERTY
W
SciTegic.value.DoubleValue
-59.803

@<SCITEGIC>MOL_PROPERTY
W(PB)
SciTegic.value.DoubleValue
-62.038

@<SCITEGIC>MOL_PROPERTY
W(SA)
SciTegic.value.DoubleValue
2.234

@<SCITEGIC>MOL_PROPERTY
Valence
SciTegic.value.DoubleValue
7.989

@<SCITEGIC>MOL_PROPERTY
Coulomb
SciTegic.value.DoubleValue
-2.698

@<SCITEGIC>MOL_PROPERTY
VdW
SciTegic.value.DoubleValue
1.281

@<SCITEGIC>MOL_PROPERTY
VdW6
SciTegic.value.DoubleValue
-6.467

@<SCITEGIC>MOL_PROPERTY
VdW12
SciTegic.value.DoubleValue
7.748

@<SCITEGIC>MOL_PROPERTY
Bond
SciTegic.value.DoubleValue
0.136

@<SCITEGIC>MOL_PROPERTY
Angle
SciTegic.value.DoubleValue
2.854

@<SCITEGIC>MOL_PROPERTY
Pdih
SciTegic.value.DoubleValue
4.998

@<SCITEGIC>MOL_PROPERTY
Idih
SciTegic.value.DoubleValue
0.001

@<SCITEGIC>MOL_PROPERTY
Tether
SciTegic.value.DoubleValue
0.000

@<TRIPOS>MOLECULE
guest-s22_vm2.mol2 : vm2 ligand conformer 2
          20          19           1
SMALL
USER_CHARGES
 
@<TRIPOS>ATOM
       1    C1      19.735424   18.451842   18.241269 C.2        1 MOL1        -0.2535
       2    H1      20.219353   18.046316   17.354344 H          1 MOL1         0.0845
       3    H2      18.652562   18.359202   18.307741 H          1 MOL1         0.0845
       4    C2      20.446257   19.037172   19.208612 C.2        1 MOL1        -0.1324
       5    H3      21.529582   19.119117   19.122868 H          1 MOL1         0.0833
       6    C3      19.844600   19.623335   20.466405 C.3        1 MOL1        -0.1813
       7    H4      18.757511   19.733156   20.352463 H          1 MOL1         0.0753
       8    H5      20.248383   20.631200   20.631664 H          1 MOL1         0.0753
       9    C4      20.145852   18.737354   21.693246 C.3        1 MOL1        -0.1855
      10    H6      19.743533   17.729406   21.521177 H          1 MOL1         0.0755
      11    H7      21.233269   18.631416   21.809458 H          1 MOL1         0.0755
      12    C5      19.540969   19.323308   22.987576 C.3        1 MOL1        -0.1855
      13    H8      18.453032   19.428428   22.873675 H          1 MOL1         0.0755
      14    H9      19.942423   20.331449   23.161064 H          1 MOL1         0.0755
      15    C6      19.842498   18.433917   24.218853 C.3        1 MOL1        -0.1958
      16    H10     19.436172   17.426695   24.067140 H          1 MOL1         0.0753
      17    H11     20.925677   18.329613   24.354683 H          1 MOL1         0.0753
      18    C7      19.254947   18.991953   25.510119 C.2        1 MOL1         0.6174
      19    O1      19.934089   19.757445   26.165434 O.co2      1 MOL1        -0.6695
      20    O2      18.126364   18.661674   25.816486 O.co2      1 MOL1        -0.6695
@<TRIPOS>BOND
    1     1     2    1
    2     1     3    1
    3     1     4    2
    4     4     5    1
    5     4     6    1
    6     6     7    1
    7     6     8    1
    8     6     9    1
    9     9    10    1
   10     9    11    1
   11     9    12    1
   12    12    13    1
   13    12    14    1
   14    12    15    1
   15    15    16    1
   16    15    17    1
   17    15    18    1
   18    18    19    1
   19    18    20    2
@<TRIPOS>SUBSTRUCTURE
       1 MOL1            1 RESIDUE      1      MOL     
@<SCITEGIC>MOL_PROPERTY
VM2 Rank
SciTegic.value.IntegerValue
2

@<SCITEGIC>MOL_PROPERTY
Conf_Id
SciTegic.value.IntegerValue
514

@<SCITEGIC>MOL_PROPERTY
Probability
SciTegic.value.DoubleValue
13.51

@<SCITEGIC>MOL_PROPERTY
Sum Probability
SciTegic.value.DoubleValue
27.19

@<SCITEGIC>MOL_PROPERTY
Delta G
SciTegic.value.DoubleValue
0.007

@<SCITEGIC>MOL_PROPERTY
G
SciTegic.value.DoubleValue
-21.882

@<SCITEGIC>MOL_PROPERTY
E
SciTegic.value.DoubleValue
-36.774

@<SCITEGIC>MOL_PROPERTY
-TS
SciTegic.value.DoubleValue
14.892

@<SCITEGIC>MOL_PROPERTY
U+W
SciTegic.value.DoubleValue
-52.870

@<SCITEGIC>MOL_PROPERTY
U
SciTegic.value.DoubleValue
6.632

@<SCITEGIC>MOL_PROPERTY
W
SciTegic.value.DoubleValue
-59.503

@<SCITEGIC>MOL_PROPERTY
W(PB)
SciTegic.value.DoubleValue
-61.758

@<SCITEGIC>MOL_PROPERTY
W(SA)
SciTegic.value.DoubleValue
2.255

@<SCITEGIC>MOL_PROPERTY
Valence
SciTegic.value.DoubleValue
9.076

@<SCITEGIC>MOL_PROPERTY
Coulomb
SciTegic.value.DoubleValue
-3.008

@<SCITEGIC>MOL_PROPERTY
VdW
SciTegic.value.DoubleValue
0.564

@<SCITEGIC>MOL_PROPERTY
VdW6
SciTegic.value.DoubleValue
-5.773

@<SCITEGIC>MOL_PROPERTY
VdW12
SciTegic.value.DoubleValue
6.337

@<SCITEGIC>MOL_PROPERTY
Bond
SciTegic.value.DoubleValue
0.084

@<SCITEGIC>MOL_PROPERTY
Angle
SciTegic.value.DoubleValue
2.239

@<SCITEGIC>MOL_PROPERTY
Pdih
SciTegic.value.DoubleValue
6.752

@<SCITEGIC>MOL_PROPERTY
Idih
SciTegic.value.DoubleValue
0.001

@<SCITEGIC>MOL_PROPERTY
Tether
SciTegic.value.DoubleValue
0.000

@<TRIPOS>MOLECULE
guest-s22_vm2.mol2 : vm2 ligand conformer 3
          20          19           1
SMALL
USER_CHARGES
 
@<TRIPOS>ATOM
       1    C1      19.835748   18.356819   18.256878 C.2        1 MOL1        -0.2535
       2    H1      19.774684   17.293668   18.483976 H          1 MOL1         0.0845
       3    H2      19.562586   18.670620   17.250803 H          1 MOL1         0.0845
       4    C2      20.227657   19.244807   19.174229 C.2        1 MOL1        -0.1324
       5    H3      20.281210   20.304755   18.926636 H          1 MOL1         0.0833
       6    C3      20.622615   18.883965   20.588947 C.3        1 MOL1        -0.1813
       7    H4      21.574067   19.371439   20.840446 H          1 MOL1         0.0753
       8    H5      20.790290   17.801516   20.672577 H          1 MOL1         0.0753
       9    C4      19.537443   19.315366   21.597489 C.3        1 MOL1        -0.1855
      10    H6      19.373219   20.398738   21.516623 H          1 MOL1         0.0755
      11    H7      18.586960   18.828281   21.339113 H          1 MOL1         0.0755
      12    C5      19.926349   18.957020   23.048303 C.3        1 MOL1        -0.1855
      13    H8      20.876894   19.443365   23.308195 H          1 MOL1         0.0755
      14    H9      20.089265   17.873424   23.131412 H          1 MOL1         0.0755
      15    C6      18.837165   19.389362   24.060601 C.3        1 MOL1        -0.1958
      16    H10     18.671749   20.471743   23.999839 H          1 MOL1         0.0753
      17    H11     17.884113   18.901762   23.822790 H          1 MOL1         0.0753
      18    C7      19.198299   19.045742   25.501260 C.2        1 MOL1         0.6174
      19    O1      19.821403   19.864876   26.147332 O.co2      1 MOL1        -0.6695
      20    O2      18.864324   17.960044   25.932960 O.co2      1 MOL1        -0.6695
@<TRIPOS>BOND
    1     1     2    1
    2     1     3    1
    3     1     4    2
    4     4     5    1
    5     4     6    1
    6     6     7    1
    7     6     8    1
    8     6     9    1
    9     9    10    1
   10     9    11    1
   11     9    12    1
   12    12    13    1
   13    12    14    1
   14    12    15    1
   15    15    16    1
   16    15    17    1
   17    15    18    1
   18    18    19    1
   19    18    20    2
@<TRIPOS>SUBSTRUCTURE
       1 MOL1            1 RESIDUE      1      MOL     
@<SCITEGIC>MOL_PROPERTY
VM2 Rank
SciTegic.value.IntegerValue
3

@<SCITEGIC>MOL_PROPERTY
Conf_Id
SciTegic.value.IntegerValue
74

@<SCITEGIC>MOL_PROPERTY
Probability
SciTegic.value.DoubleValue
12.21

@<SCITEGIC>MOL_PROPERTY
Sum Probability
SciTegic.value.DoubleValue
39.39

@<SCITEGIC>MOL_PROPERTY
Delta G
SciTegic.value.DoubleValue
0.068

@<SCITEGIC>MOL_PROPERTY
G
SciTegic.value.DoubleValue
-21.822

@<SCITEGIC>MOL_PROPERTY
E
SciTegic.value.DoubleValue
-36.714

@<SCITEGIC>MOL_PROPERTY
-TS
SciTegic.value.DoubleValue
14.893

@<SCITEGIC>MOL_PROPERTY
U+W
SciTegic.value.DoubleValue
-52.811

@<SCITEGIC>MOL_PROPERTY
U
SciTegic.value.DoubleValue
6.633

@<SCITEGIC>MOL_PROPERTY
W
SciTegic.value.DoubleValue
-59.443

@<SCITEGIC>MOL_PROPERTY
W(PB)
SciTegic.value.DoubleValue
-61.703

@<SCITEGIC>MOL_PROPERTY
W(SA)
SciTegic.value.DoubleValue
2.259

@<SCITEGIC>MOL_PROPERTY
Valence
SciTegic.value.DoubleValue
9.076

@<SCITEGIC>MOL_PROPERTY
Coulomb
SciTegic.value.DoubleValue
-3.007

@<SCITEGIC>MOL_PROPERTY
VdW
SciTegic.value.DoubleValue
0.564

@<SCITEGIC>MOL_PROPERTY
VdW6
SciTegic.value.DoubleValue
-5.773

@<SCITEGIC>MOL_PROPERTY
VdW12
SciTegic.value.DoubleValue
6.337

@<SCITEGIC>MOL_PROPERTY
Bond
SciTegic.value.DoubleValue
0.084

@<SCITEGIC>MOL_PROPERTY
Angle
SciTegic.value.DoubleValue
2.239

@<SCITEGIC>MOL_PROPERTY
Pdih
SciTegic.value.DoubleValue
6.752

@<SCITEGIC>MOL_PROPERTY
Idih
SciTegic.value.DoubleValue
0.001

@<SCITEGIC>MOL_PROPERTY
Tether
SciTegic.value.DoubleValue
0.000

@<TRIPOS>MOLECULE
guest-s22_vm2.mol2 : vm2 ligand conformer 4
          20          19           1
SMALL
USER_CHARGES
 
@<TRIPOS>ATOM
       1    C1      19.231054   18.403728   18.728491 C.2        1 MOL1        -0.2535
       2    H1      20.063386   17.837207   18.314024 H          1 MOL1         0.0845
       3    H2      18.250728   18.255556   18.278822 H          1 MOL1         0.0845
       4    C2      19.401268   19.246323   19.750614 C.2        1 MOL1        -0.1324
       5    H3      18.555037   19.805890   20.148192 H          1 MOL1         0.0833
       6    C3      20.733338   19.507560   20.420790 C.3        1 MOL1        -0.1813
       7    H4      20.863368   20.585236   20.587427 H          1 MOL1         0.0753
       8    H5      21.550022   19.198993   19.754181 H          1 MOL1         0.0753
       9    C4      20.875739   18.751559   21.761028 C.3        1 MOL1        -0.1855
      10    H6      20.729057   17.676053   21.590508 H          1 MOL1         0.0755
      11    H7      21.903639   18.874330   22.128761 H          1 MOL1         0.0755
      12    C5      19.887819   19.250382   22.840486 C.3        1 MOL1        -0.1855
      13    H8      18.853977   19.097226   22.502257 H          1 MOL1         0.0755
      14    H9      20.017915   20.331008   22.991084 H          1 MOL1         0.0755
      15    C6      20.091736   18.517819   24.189497 C.3        1 MOL1        -0.1958
      16    H10     19.953314   17.437905   24.058226 H          1 MOL1         0.0753
      17    H11     21.114473   18.671991   24.553880 H          1 MOL1         0.0753
      18    C7      19.127611   18.991016   25.271439 C.2        1 MOL1         0.6174
      19    O1      19.462286   19.929346   25.967306 O.co2      1 MOL1        -0.6695
      20    O2      18.060150   18.420266   25.378349 O.co2      1 MOL1        -0.6695
@<TRIPOS>BOND
    1     1     2    1
    2     1     3    1
    3     1     4    2
    4     4     5    1
    5     4     6    1
    6     6     7    1
    7     6     8    1
    8     6     9    1
    9     9    10    1
   10     9    11    1
   11     9    12    1
   12    12    13    1
   13    12    14    1
   14    12    15    1
   15    15    16    1
   16    15    17    1
   17    15    18    1
   18    18    19    1
   19    18    20    2
@<TRIPOS>SUBSTRUCTURE
       1 MOL1            1 RESIDUE      1      MOL     
@<SCITEGIC>MOL_PROPERTY
VM2 Rank
SciTegic.value.IntegerValue
4

@<SCITEGIC>MOL_PROPERTY
Conf_Id
SciTegic.value.IntegerValue
692

@<SCITEGIC>MOL_PROPERTY
Probability
SciTegic.value.DoubleValue
4.88

@<SCITEGIC>MOL_PROPERTY
Sum Probability
SciTegic.value.DoubleValue
44.28

@<SCITEGIC>MOL_PROPERTY
Delta G
SciTegic.value.DoubleValue
0.614

@<SCITEGIC>MOL_PROPERTY
G
SciTegic.value.DoubleValue
-21.276

@<SCITEGIC>MOL_PROPERTY
E
SciTegic.value.DoubleValue
-36.308

@<SCITEGIC>MOL_PROPERTY
-TS
SciTegic.value.DoubleValue
15.032

@<SCITEGIC>MOL_PROPERTY
U+W
SciTegic.value.DoubleValue
-52.404

@<SCITEGIC>MOL_PROPERTY
U
SciTegic.value.DoubleValue
7.828

@<SCITEGIC>MOL_PROPERTY
W
SciTegic.value.DoubleValue
-60.232

@<SCITEGIC>MOL_PROPERTY
W(PB)
SciTegic.value.DoubleValue
-62.486

@<SCITEGIC>MOL_PROPERTY
W(SA)
SciTegic.value.DoubleValue
2.254

@<SCITEGIC>MOL_PROPERTY
Valence
SciTegic.value.DoubleValue
9.301

@<SCITEGIC>MOL_PROPERTY
Coulomb
SciTegic.value.DoubleValue
-2.080

@<SCITEGIC>MOL_PROPERTY
VdW
SciTegic.value.DoubleValue
0.608

@<SCITEGIC>MOL_PROPERTY
VdW6
SciTegic.value.DoubleValue
-6.341

@<SCITEGIC>MOL_PROPERTY
VdW12
SciTegic.value.DoubleValue
6.949

@<SCITEGIC>MOL_PROPERTY
Bond
SciTegic.value.DoubleValue
0.103

@<SCITEGIC>MOL_PROPERTY
Angle
SciTegic.value.DoubleValue
2.334

@<SCITEGIC>MOL_PROPERTY
Pdih
SciTegic.value.DoubleValue
6.862

@<SCITEGIC>MOL_PROPERTY
Idih
SciTegic.value.DoubleValue
0.001

@<SCITEGIC>MOL_PROPERTY
Tether
SciTegic.value.DoubleValue
0.000

@<TRIPOS>MOLECULE
guest-s22_vm2.mol2 : vm2 ligand conformer 5
          20          19           1
SMALL
USER_CHARGES
 
@<TRIPOS>ATOM
       1    C1      21.242821   19.010421   18.987970 C.2        1 MOL1        -0.2535
       2    H1      20.977229   18.112803   18.431870 H          1 MOL1         0.0845
       3    H2      22.218175   19.451949   18.790649 H          1 MOL1         0.0845
       4    C2      20.408805   19.550084   19.880640 C.2        1 MOL1        -0.1324
       5    H3      20.693330   20.450645   20.424079 H          1 MOL1         0.0833
       6    C3      19.037105   18.996042   20.201995 C.3        1 MOL1        -0.1813
       7    H4      18.702362   18.340268   19.386850 H          1 MOL1         0.0753
       8    H5      18.306721   19.814276   20.257619 H          1 MOL1         0.0753
       9    C4      19.021777   18.192510   21.521901 C.3        1 MOL1        -0.1855
      10    H6      18.040991   17.709670   21.630545 H          1 MOL1         0.0755
      11    H7      19.765253   17.385385   21.466219 H          1 MOL1         0.0755
      12    C5      19.294827   19.071548   22.763989 C.3        1 MOL1        -0.1855
      13    H8      18.566563   19.893376   22.803855 H          1 MOL1         0.0755
      14    H9      20.290064   19.530168   22.687475 H          1 MOL1         0.0755
      15    C6      19.215149   18.253511   24.076438 C.3        1 MOL1        -0.1958
      16    H10     18.222217   17.799949   24.180842 H          1 MOL1         0.0753
      17    H11     19.945233   17.435455   24.057211 H          1 MOL1         0.0753
      18    C7      19.482384   19.098009   25.317186 C.2        1 MOL1         0.6174
      19    O1      20.628338   19.194317   25.709837 O.co2      1 MOL1        -0.6695
      20    O2      18.539794   19.651557   25.848043 O.co2      1 MOL1        -0.6695
@<TRIPOS>BOND
    1     1     2    1
    2     1     3    1
    3     1     4    2
    4     4     5    1
    5     4     6    1
    6     6     7    1
    7     6     8    1
    8     6     9    1
    9     9    10    1
   10     9    11    1
   11     9    12    1
   12    12    13    1
   13    12    14    1
   14    12    15    1
   15    15    16    1
   16    15    17    1
   17    15    18    1
   18    18    19    1
   19    18    20    2
@<TRIPOS>SUBSTRUCTURE
       1 MOL1            1 RESIDUE      1      MOL     
@<SCITEGIC>MOL_PROPERTY
VM2 Rank
SciTegic.value.IntegerValue
5

@<SCITEGIC>MOL_PROPERTY
Conf_Id
SciTegic.value.IntegerValue
132

@<SCITEGIC>MOL_PROPERTY
Probability
SciTegic.value.DoubleValue
4.69

@<SCITEGIC>MOL_PROPERTY
Sum Probability
SciTegic.value.DoubleValue
48.97

@<SCITEGIC>MOL_PROPERTY
Delta G
SciTegic.value.DoubleValue
0.638

@<SCITEGIC>MOL_PROPERTY
G
SciTegic.value.DoubleValue
-21.252

@<SCITEGIC>MOL_PROPERTY
E
SciTegic.value.DoubleValue
-36.284

@<SCITEGIC>MOL_PROPERTY
-TS
SciTegic.value.DoubleValue
15.032

@<SCITEGIC>MOL_PROPERTY
U+W
SciTegic.value.DoubleValue
-52.381

@<SCITEGIC>MOL_PROPERTY
U
SciTegic.value.DoubleValue
7.828

@<SCITEGIC>MOL_PROPERTY
W
SciTegic.value.DoubleValue
-60.209

@<SCITEGIC>MOL_PROPERTY
W(PB)
SciTegic.value.DoubleValue
-62.451

@<SCITEGIC>MOL_PROPERTY
W(SA)
SciTegic.value.DoubleValue
2.242

@<SCITEGIC>MOL_PROPERTY
Valence
SciTegic.value.DoubleValue
9.300

@<SCITEGIC>MOL_PROPERTY
Coulomb
SciTegic.value.DoubleValue
-2.080

@<SCITEGIC>MOL_PROPERTY
VdW
SciTegic.value.DoubleValue
0.608

@<SCITEGIC>MOL_PROPERTY
VdW6
SciTegic.value.DoubleValue
-6.341

@<SCITEGIC>MOL_PROPERTY
VdW12
SciTegic.value.DoubleValue
6.949

@<SCITEGIC>MOL_PROPERTY
Bond
SciTegic.value.DoubleValue
0.103

@<SCITEGIC>MOL_PROPERTY
Angle
SciTegic.value.DoubleValue
2.334

@<SCITEGIC>MOL_PROPERTY
Pdih
SciTegic.value.DoubleValue
6.862

@<SCITEGIC>MOL_PROPERTY
Idih
SciTegic.value.DoubleValue
0.001

@<SCITEGIC>MOL_PROPERTY
Tether
SciTegic.value.DoubleValue
0.000

@<TRIPOS>MOLECULE
guest-s22_vm2.mol2 : vm2 ligand conformer 6
          20          19           1
SMALL
USER_CHARGES
 
@<TRIPOS>ATOM
       1    C1      19.721908   18.916067   18.306272 C.2        1 MOL1        -0.2535
       2    H1      20.215724   18.821066   17.340674 H          1 MOL1         0.0845
       3    H2      18.743481   19.393508   18.323795 H          1 MOL1         0.0845
       4    C2      20.298422   18.465481   19.423535 C.2        1 MOL1        -0.1324
       5    H3      21.278900   17.991392   19.384367 H          1 MOL1         0.0833
       6    C3      19.674224   18.561503   20.797900 C.3        1 MOL1        -0.1813
       7    H4      19.736743   17.583076   21.290670 H          1 MOL1         0.0753
       8    H5      18.606945   18.807344   20.713785 H          1 MOL1         0.0753
       9    C4      20.383177   19.633775   21.655471 C.3        1 MOL1        -0.1855
      10    H6      21.437298   19.357623   21.795334 H          1 MOL1         0.0755
      11    H7      20.382166   20.584440   21.104495 H          1 MOL1         0.0755
      12    C5      19.717301   19.861486   23.033490 C.3        1 MOL1        -0.1855
      13    H8      18.666333   20.150677   22.894836 H          1 MOL1         0.0755
      14    H9      20.209971   20.710948   23.526629 H          1 MOL1         0.0755
      15    C6      19.795781   18.628067   23.970232 C.3        1 MOL1        -0.1958
      16    H10     19.235726   17.785929   23.548470 H          1 MOL1         0.0753
      17    H11     20.837162   18.303539   24.082438 H          1 MOL1         0.0753
      18    C7      19.235318   18.907472   25.360118 C.2        1 MOL1         0.6174
      19    O1      19.994884   19.325892   26.211422 O.co2      1 MOL1        -0.6695
      20    O2      18.049984   18.718257   25.549560 O.co2      1 MOL1        -0.6695
@<TRIPOS>BOND
    1     1     2    1
    2     1     3    1
    3     1     4    2
    4     4     5    1
    5     4     6    1
    6     6     7    1
    7     6     8    1
    8     6     9    1
    9     9    10    1
   10     9    11    1
   11     9    12    1
   12    12    13    1
   13    12    14    1
   14    12    15    1
   15    15    16    1
   16    15    17    1
   17    15    18    1
   18    18    19    1
   19    18    20    2
@<TRIPOS>SUBSTRUCTURE
       1 MOL1            1 RESIDUE      1      MOL     
@<SCITEGIC>MOL_PROPERTY
VM2 Rank
SciTegic.value.IntegerValue
6

@<SCITEGIC>MOL_PROPERTY
Conf_Id
SciTegic.value.IntegerValue
182

@<SCITEGIC>MOL_PROPERTY
Probability
SciTegic.value.DoubleValue
3.98

@<SCITEGIC>MOL_PROPERTY
Sum Probability
SciTegic.value.DoubleValue
52.95

@<SCITEGIC>MOL_PROPERTY
Delta G
SciTegic.value.DoubleValue
0.736

@<SCITEGIC>MOL_PROPERTY
G
SciTegic.value.DoubleValue
-21.153

@<SCITEGIC>MOL_PROPERTY
E
SciTegic.value.DoubleValue
-36.159

@<SCITEGIC>MOL_PROPERTY
-TS
SciTegic.value.DoubleValue
15.006

@<SCITEGIC>MOL_PROPERTY
U+W
SciTegic.value.DoubleValue
-52.256

@<SCITEGIC>MOL_PROPERTY
U
SciTegic.value.DoubleValue
7.491

@<SCITEGIC>MOL_PROPERTY
W
SciTegic.value.DoubleValue
-59.747

@<SCITEGIC>MOL_PROPERTY
W(PB)
SciTegic.value.DoubleValue
-61.973

@<SCITEGIC>MOL_PROPERTY
W(SA)
SciTegic.value.DoubleValue
2.226

@<SCITEGIC>MOL_PROPERTY
Valence
SciTegic.value.DoubleValue
9.604

@<SCITEGIC>MOL_PROPERTY
Coulomb
SciTegic.value.DoubleValue
-2.799

@<SCITEGIC>MOL_PROPERTY
VdW
SciTegic.value.DoubleValue
0.686

@<SCITEGIC>MOL_PROPERTY
VdW6
SciTegic.value.DoubleValue
-6.435

@<SCITEGIC>MOL_PROPERTY
VdW12
SciTegic.value.DoubleValue
7.121

@<SCITEGIC>MOL_PROPERTY
Bond
SciTegic.value.DoubleValue
0.124

@<SCITEGIC>MOL_PROPERTY
Angle
SciTegic.value.DoubleValue
2.493

@<SCITEGIC>MOL_PROPERTY
Pdih
SciTegic.value.DoubleValue
6.986

@<SCITEGIC>MOL_PROPERTY
Idih
SciTegic.value.DoubleValue
0.001

@<SCITEGIC>MOL_PROPERTY
Tether
SciTegic.value.DoubleValue
0.000

@<TRIPOS>MOLECULE
guest-s22_vm2.mol2 : vm2 ligand conformer 7
          20          19           1
SMALL
USER_CHARGES
 
@<TRIPOS>ATOM
       1    C1      18.639340   19.560633   19.394303 C.2        1 MOL1        -0.2535
       2    H1      18.704086   20.614688   19.659247 H          1 MOL1         0.0845
       3    H2      17.730732   19.223388   18.898520 H          1 MOL1         0.0845
       4    C2      19.632169   18.710375   19.668828 C.2        1 MOL1        -0.1324
       5    H3      19.546358   17.658546   19.397378 H          1 MOL1         0.0833
       6    C3      20.922696   19.104590   20.355204 C.3        1 MOL1        -0.1813
       7    H4      21.014163   20.197985   20.408083 H          1 MOL1         0.0753
       8    H5      21.771097   18.751680   19.753943 H          1 MOL1         0.0753
       9    C4      21.036382   18.508077   21.776185 C.3        1 MOL1        -0.1855
      10    H6      20.944080   17.414567   21.723273 H          1 MOL1         0.0755
      11    H7      22.039434   18.720402   22.170755 H          1 MOL1         0.0755
      12    C5      19.977303   19.076652   22.748119 C.3        1 MOL1        -0.1855
      13    H8      18.968525   18.847308   22.377989 H          1 MOL1         0.0755
      14    H9      20.060252   20.171612   22.786454 H          1 MOL1         0.0755
      15    C6      20.137540   18.500349   24.176481 C.3        1 MOL1        -0.1958
      16    H10     20.044522   17.407865   24.156208 H          1 MOL1         0.0753
      17    H11     21.134103   18.734027   24.569853 H          1 MOL1         0.0753
      18    C7      19.103221   19.046219   25.154388 C.2        1 MOL1         0.6174
      19    O1      19.363157   20.072997   25.750130 O.co2      1 MOL1        -0.6695
      20    O2      18.059192   18.438107   25.284363 O.co2      1 MOL1        -0.6695
@<TRIPOS>BOND
    1     1     2    1
    2     1     3    1
    3     1     4    2
    4     4     5    1
    5     4     6    1
    6     6     7    1
    7     6     8    1
    8     6     9    1
    9     9    10    1
   10     9    11    1
   11     9    12    1
   12    12    13    1
   13    12    14    1
   14    12    15    1
   15    15    16    1
   16    15    17    1
   17    15    18    1
   18    18    19    1
   19    18    20    2
@<TRIPOS>SUBSTRUCTURE
       1 MOL1            1 RESIDUE      1      MOL     
@<SCITEGIC>MOL_PROPERTY
VM2 Rank
SciTegic.value.IntegerValue
7

@<SCITEGIC>MOL_PROPERTY
Conf_Id
SciTegic.value.IntegerValue
679

@<SCITEGIC>MOL_PROPERTY
Probability
SciTegic.value.DoubleValue
3.88

@<SCITEGIC>MOL_PROPERTY
Sum Probability
SciTegic.value.DoubleValue
56.83

@<SCITEGIC>MOL_PROPERTY
Delta G
SciTegic.value.DoubleValue
0.751

@<SCITEGIC>MOL_PROPERTY
G
SciTegic.value.DoubleValue
-21.139

@<SCITEGIC>MOL_PROPERTY
E
SciTegic.value.DoubleValue
-36.251

@<SCITEGIC>MOL_PROPERTY
-TS
SciTegic.value.DoubleValue
15.112

@<SCITEGIC>MOL_PROPERTY
U+W
SciTegic.value.DoubleValue
-52.347

@<SCITEGIC>MOL_PROPERTY
U
SciTegic.value.DoubleValue
8.428

@<SCITEGIC>MOL_PROPERTY
W
SciTegic.value.DoubleValue
-60.775

@<SCITEGIC>MOL_PROPERTY
W(PB)
SciTegic.value.DoubleValue
-62.983

@<SCITEGIC>MOL_PROPERTY
W(SA)
SciTegic.value.DoubleValue
2.208

@<SCITEGIC>MOL_PROPERTY
Valence
SciTegic.value.DoubleValue
9.231

@<SCITEGIC>MOL_PROPERTY
Coulomb
SciTegic.value.DoubleValue
-1.304

@<SCITEGIC>MOL_PROPERTY
VdW
SciTegic.value.DoubleValue
0.502

@<SCITEGIC>MOL_PROPERTY
VdW6
SciTegic.value.DoubleValue
-6.515

@<SCITEGIC>MOL_PROPERTY
VdW12
SciTegic.value.DoubleValue
7.017

@<SCITEGIC>MOL_PROPERTY
Bond
SciTegic.value.DoubleValue
0.103

@<SCITEGIC>MOL_PROPERTY
Angle
SciTegic.value.DoubleValue
2.328

@<SCITEGIC>MOL_PROPERTY
Pdih
SciTegic.value.DoubleValue
6.799

@<SCITEGIC>MOL_PROPERTY
Idih
SciTegic.value.DoubleValue
0.000

@<SCITEGIC>MOL_PROPERTY
Tether
SciTegic.value.DoubleValue
0.000

@<TRIPOS>MOLECULE
guest-s22_vm2.mol2 : vm2 ligand conformer 8
          20          19           1
SMALL
USER_CHARGES
 
@<TRIPOS>ATOM
       1    C1      20.396485   17.503599   19.623038 C.2        1 MOL1        -0.2535
       2    H1      21.411926   17.444934   20.011440 H          1 MOL1         0.0845
       3    H2      19.972368   16.599153   19.190365 H          1 MOL1         0.0845
       4    C2      19.693768   18.638189   19.676914 C.2        1 MOL1        -0.1324
       5    H3      18.677799   18.675035   19.284688 H          1 MOL1         0.0833
       6    C3      20.214948   19.933085   20.263082 C.3        1 MOL1        -0.1813
       7    H4      20.072119   20.740573   19.532735 H          1 MOL1         0.0753
       8    H5      21.296314   19.867625   20.444845 H          1 MOL1         0.0753
       9    C4      19.493410   20.314403   21.575302 C.3        1 MOL1        -0.1855
      10    H6      19.821411   21.317030   21.881955 H          1 MOL1         0.0755
      11    H7      18.411802   20.379091   21.393572 H          1 MOL1         0.0755
      12    C5      19.773078   19.315690   22.721574 C.3        1 MOL1        -0.1855
      13    H8      20.856178   19.239737   22.890133 H          1 MOL1         0.0755
      14    H9      19.424771   18.313095   22.437471 H          1 MOL1         0.0755
      15    C6      19.078125   19.740621   24.038576 C.3        1 MOL1        -0.1958
      16    H10     19.426132   20.733576   24.347473 H          1 MOL1         0.0753
      17    H11     17.993845   19.808605   23.889244 H          1 MOL1         0.0753
      18    C7      19.338914   18.770327   25.185141 C.2        1 MOL1         0.6174
      19    O1      20.323053   18.949289   25.875206 O.co2      1 MOL1        -0.6695
      20    O2      18.559219   17.852797   25.349168 O.co2      1 MOL1        -0.6695
@<TRIPOS>BOND
    1     1     2    1
    2     1     3    1
    3     1     4    2
    4     4     5    1
    5     4     6    1
    6     6     7    1
    7     6     8    1
    8     6     9    1
    9     9    10    1
   10     9    11    1
   11     9    12    1
   12    12    13    1
   13    12    14    1
   14    12    15    1
   15    15    16    1
   16    15    17    1
   17    15    18    1
   18    18    19    1
   19    18    20    2
@<TRIPOS>SUBSTRUCTURE
       1 MOL1            1 RESIDUE      1      MOL     
@<SCITEGIC>MOL_PROPERTY
VM2 Rank
SciTegic.value.IntegerValue
8

@<SCITEGIC>MOL_PROPERTY
Conf_Id
SciTegic.value.IntegerValue
541

@<SCITEGIC>MOL_PROPERTY
Probability
SciTegic.value.DoubleValue
3.82

@<SCITEGIC>MOL_PROPERTY
Sum Probability
SciTegic.value.DoubleValue
60.65

@<SCITEGIC>MOL_PROPERTY
Delta G
SciTegic.value.DoubleValue
0.760

@<SCITEGIC>MOL_PROPERTY
G
SciTegic.value.DoubleValue
-21.129

@<SCITEGIC>MOL_PROPERTY
E
SciTegic.value.DoubleValue
-36.241

@<SCITEGIC>MOL_PROPERTY
-TS
SciTegic.value.DoubleValue
15.112

@<SCITEGIC>MOL_PROPERTY
U+W
SciTegic.value.DoubleValue
-52.338

@<SCITEGIC>MOL_PROPERTY
U
SciTegic.value.DoubleValue
8.428

@<SCITEGIC>MOL_PROPERTY
W
SciTegic.value.DoubleValue
-60.766

@<SCITEGIC>MOL_PROPERTY
W(PB)
SciTegic.value.DoubleValue
-62.975

@<SCITEGIC>MOL_PROPERTY
W(SA)
SciTegic.value.DoubleValue
2.209

@<SCITEGIC>MOL_PROPERTY
Valence
SciTegic.value.DoubleValue
9.230

@<SCITEGIC>MOL_PROPERTY
Coulomb
SciTegic.value.DoubleValue
-1.303

@<SCITEGIC>MOL_PROPERTY
VdW
SciTegic.value.DoubleValue
0.501

@<SCITEGIC>MOL_PROPERTY
VdW6
SciTegic.value.DoubleValue
-6.515

@<SCITEGIC>MOL_PROPERTY
VdW12
SciTegic.value.DoubleValue
7.017

@<SCITEGIC>MOL_PROPERTY
Bond
SciTegic.value.DoubleValue
0.103

@<SCITEGIC>MOL_PROPERTY
Angle
SciTegic.value.DoubleValue
2.328

@<SCITEGIC>MOL_PROPERTY
Pdih
SciTegic.value.DoubleValue
6.799

@<SCITEGIC>MOL_PROPERTY
Idih
SciTegic.value.DoubleValue
0.000

@<SCITEGIC>MOL_PROPERTY
Tether
SciTegic.value.DoubleValue
0.000

@<TRIPOS>MOLECULE
guest-s22_vm2.mol2 : vm2 ligand conformer 9
          20          19           1
SMALL
USER_CHARGES
 
@<TRIPOS>ATOM
       1    C1      19.831119   18.536247   18.333303 C.2        1 MOL1        -0.2535
       2    H1      20.235422   18.751188   17.345579 H          1 MOL1         0.0845
       3    H2      19.254039   17.620310   18.449988 H          1 MOL1         0.0845
       4    C2      20.039155   19.365254   19.359530 C.2        1 MOL1        -0.1324
       5    H3      20.620377   20.276745   19.221715 H          1 MOL1         0.0833
       6    C3      19.509360   19.133966   20.757223 C.3        1 MOL1        -0.1813
       7    H4      18.738360   18.351639   20.746333 H          1 MOL1         0.0753
       8    H5      19.025550   20.051528   21.115075 H          1 MOL1         0.0753
       9    C4      20.645762   18.723032   21.720310 C.3        1 MOL1        -0.1855
      10    H6      21.169253   17.853758   21.298812 H          1 MOL1         0.0755
      11    H7      21.387405   19.531130   21.783042 H          1 MOL1         0.0755
      12    C5      20.150216   18.359676   23.140377 C.3        1 MOL1        -0.1855
      13    H8      20.999078   17.973363   23.721486 H          1 MOL1         0.0755
      14    H9      19.418188   17.542404   23.080438 H          1 MOL1         0.0755
      15    C6      19.527905   19.557361   23.904088 C.3        1 MOL1        -0.1958
      16    H10     20.234078   20.395712   23.933534 H          1 MOL1         0.0753
      17    H11     18.623121   19.911157   23.397199 H          1 MOL1         0.0753
      18    C7      19.148631   19.208128   25.338715 C.2        1 MOL1         0.6174
      19    O1      19.981756   19.371325   26.208200 O.co2      1 MOL1        -0.6695
      20    O2      18.037098   18.763010   25.546254 O.co2      1 MOL1        -0.6695
@<TRIPOS>BOND
    1     1     2    1
    2     1     3    1
    3     1     4    2
    4     4     5    1
    5     4     6    1
    6     6     7    1
    7     6     8    1
    8     6     9    1
    9     9    10    1
   10     9    11    1
   11     9    12    1
   12    12    13    1
   13    12    14    1
   14    12    15    1
   15    15    16    1
   16    15    17    1
   17    15    18    1
   18    18    19    1
   19    18    20    2
@<TRIPOS>SUBSTRUCTURE
       1 MOL1            1 RESIDUE      1      MOL     
@<SCITEGIC>MOL_PROPERTY
VM2 Rank
SciTegic.value.IntegerValue
9

@<SCITEGIC>MOL_PROPERTY
Conf_Id
SciTegic.value.IntegerValue
628

@<SCITEGIC>MOL_PROPERTY
Probability
SciTegic.value.DoubleValue
3.76

@<SCITEGIC>MOL_PROPERTY
Sum Probability
SciTegic.value.DoubleValue
64.41

@<SCITEGIC>MOL_PROPERTY
Delta G
SciTegic.value.DoubleValue
0.770

@<SCITEGIC>MOL_PROPERTY
G
SciTegic.value.DoubleValue
-21.119

@<SCITEGIC>MOL_PROPERTY
E
SciTegic.value.DoubleValue
-36.125

@<SCITEGIC>MOL_PROPERTY
-TS
SciTegic.value.DoubleValue
15.006

@<SCITEGIC>MOL_PROPERTY
U+W
SciTegic.value.DoubleValue
-52.222

@<SCITEGIC>MOL_PROPERTY
U
SciTegic.value.DoubleValue
7.491

@<SCITEGIC>MOL_PROPERTY
W
SciTegic.value.DoubleValue
-59.713

@<SCITEGIC>MOL_PROPERTY
W(PB)
SciTegic.value.DoubleValue
-61.947

@<SCITEGIC>MOL_PROPERTY
W(SA)
SciTegic.value.DoubleValue
2.234

@<SCITEGIC>MOL_PROPERTY
Valence
SciTegic.value.DoubleValue
9.604

@<SCITEGIC>MOL_PROPERTY
Coulomb
SciTegic.value.DoubleValue
-2.798

@<SCITEGIC>MOL_PROPERTY
VdW
SciTegic.value.DoubleValue
0.686

@<SCITEGIC>MOL_PROPERTY
VdW6
SciTegic.value.DoubleValue
-6.435

@<SCITEGIC>MOL_PROPERTY
VdW12
SciTegic.value.DoubleValue
7.121

@<SCITEGIC>MOL_PROPERTY
Bond
SciTegic.value.DoubleValue
0.124

@<SCITEGIC>MOL_PROPERTY
Angle
SciTegic.value.DoubleValue
2.493

@<SCITEGIC>MOL_PROPERTY
Pdih
SciTegic.value.DoubleValue
6.986

@<SCITEGIC>MOL_PROPERTY
Idih
SciTegic.value.DoubleValue
0.001

@<SCITEGIC>MOL_PROPERTY
Tether
SciTegic.value.DoubleValue
0.000

@<TRIPOS>MOLECULE
guest-s22_vm2.mol2 : vm2 ligand conformer 10
          20          19           1
SMALL
USER_CHARGES
 
@<TRIPOS>ATOM
       1    C1      20.749844   18.725258   18.701306 C.2        1 MOL1        -0.2535
       2    H1      20.879371   18.515571   17.640914 H          1 MOL1         0.0845
       3    H2      21.642020   19.000333   19.259742 H          1 MOL1         0.0845
       4    C2      19.542789   18.640263   19.272043 C.2        1 MOL1        -0.1324
       5    H3      18.686290   18.358060   18.660179 H          1 MOL1         0.0833
       6    C3      19.206295   18.902518   20.730563 C.3        1 MOL1        -0.1813
       7    H4      18.797135   17.980633   21.162349 H          1 MOL1         0.0753
       8    H5      18.393173   19.639203   20.776128 H          1 MOL1         0.0753
       9    C4      20.389899   19.406360   21.593369 C.3        1 MOL1        -0.1855
      10    H6      21.183325   18.646840   21.615221 H          1 MOL1         0.0755
      11    H7      20.820368   20.300006   21.121137 H          1 MOL1         0.0755
      12    C5      19.985032   19.770010   23.042108 C.3        1 MOL1        -0.1855
      13    H8      19.195362   20.533918   23.026924 H          1 MOL1         0.0755
      14    H9      20.848803   20.227658   23.544073 H          1 MOL1         0.0755
      15    C6      19.512265   18.552435   23.878300 C.3        1 MOL1        -0.1958
      16    H10     18.594945   18.126208   23.457051 H          1 MOL1         0.0753
      17    H11     20.274531   17.764316   23.863825 H          1 MOL1         0.0753
      18    C7      19.230535   18.910815   25.333008 C.2        1 MOL1         0.6174
      19    O1      20.142152   18.824639   26.131922 O.co2      1 MOL1        -0.6695
      20    O2      18.112190   19.285702   25.625380 O.co2      1 MOL1        -0.6695
@<TRIPOS>BOND
    1     1     2    1
    2     1     3    1
    3     1     4    2
    4     4     5    1
    5     4     6    1
    6     6     7    1
    7     6     8    1
    8     6     9    1
    9     9    10    1
   10     9    11    1
   11     9    12    1
   12    12    13    1
   13    12    14    1
   14    12    15    1
   15    15    16    1
   16    15    17    1
   17    15    18    1
   18    18    19    1
   19    18    20    2
@<TRIPOS>SUBSTRUCTURE
       1 MOL1            1 RESIDUE      1      MOL     
@<SCITEGIC>MOL_PROPERTY
VM2 Rank
SciTegic.value.IntegerValue
10

@<SCITEGIC>MOL_PROPERTY
Conf_Id
SciTegic.value.IntegerValue
312

@<SCITEGIC>MOL_PROPERTY
Probability
SciTegic.value.DoubleValue
3.63

@<SCITEGIC>MOL_PROPERTY
Sum Probability
SciTegic.value.DoubleValue
68.04

@<SCITEGIC>MOL_PROPERTY
Delta G
SciTegic.value.DoubleValue
0.791

@<SCITEGIC>MOL_PROPERTY
G
SciTegic.value.DoubleValue
-21.099

@<SCITEGIC>MOL_PROPERTY
E
SciTegic.value.DoubleValue
-36.455

@<SCITEGIC>MOL_PROPERTY
-TS
SciTegic.value.DoubleValue
15.356

@<SCITEGIC>MOL_PROPERTY
U+W
SciTegic.value.DoubleValue
-52.551

@<SCITEGIC>MOL_PROPERTY
U
SciTegic.value.DoubleValue
7.428

@<SCITEGIC>MOL_PROPERTY
W
SciTegic.value.DoubleValue
-59.979

@<SCITEGIC>MOL_PROPERTY
W(PB)
SciTegic.value.DoubleValue
-62.177

@<SCITEGIC>MOL_PROPERTY
W(SA)
SciTegic.value.DoubleValue
2.198

@<SCITEGIC>MOL_PROPERTY
Valence
SciTegic.value.DoubleValue
8.549

@<SCITEGIC>MOL_PROPERTY
Coulomb
SciTegic.value.DoubleValue
-2.540

@<SCITEGIC>MOL_PROPERTY
VdW
SciTegic.value.DoubleValue
1.419

@<SCITEGIC>MOL_PROPERTY
VdW6
SciTegic.value.DoubleValue
-7.115

@<SCITEGIC>MOL_PROPERTY
VdW12
SciTegic.value.DoubleValue
8.535

@<SCITEGIC>MOL_PROPERTY
Bond
SciTegic.value.DoubleValue
0.184

@<SCITEGIC>MOL_PROPERTY
Angle
SciTegic.value.DoubleValue
3.112

@<SCITEGIC>MOL_PROPERTY
Pdih
SciTegic.value.DoubleValue
5.251

@<SCITEGIC>MOL_PROPERTY
Idih
SciTegic.value.DoubleValue
0.001

@<SCITEGIC>MOL_PROPERTY
Tether
SciTegic.value.DoubleValue
0.000

@<TRIPOS>MOLECULE
guest-s22_vm2.mol2 : vm2 ligand conformer 11
          20          19           1
SMALL
USER_CHARGES
 
@<TRIPOS>ATOM
       1    C1      20.553166   17.981604   18.723213 C.2        1 MOL1        -0.2535
       2    H1      20.487933   17.898305   17.639673 H          1 MOL1         0.0845
       3    H2      20.852513   17.093101   19.276865 H          1 MOL1         0.0845
       4    C2      20.273459   19.129927   19.345175 C.2        1 MOL1        -0.1324
       5    H3      19.974966   20.007574   18.772223 H          1 MOL1         0.0833
       6    C3      20.343113   19.321193   20.843994 C.3        1 MOL1        -0.1813
       7    H4      20.898204   20.241181   21.070768 H          1 MOL1         0.0753
       8    H5      20.901341   18.493404   21.299783 H          1 MOL1         0.0753
       9    C4      18.928039   19.404626   21.459271 C.3        1 MOL1        -0.1855
      10    H6      18.359970   20.188257   20.939363 H          1 MOL1         0.0755
      11    H7      18.392587   18.462346   21.278744 H          1 MOL1         0.0755
      12    C5      18.930760   19.720632   22.974016 C.3        1 MOL1        -0.1855
      13    H8      17.893811   19.875130   23.303209 H          1 MOL1         0.0755
      14    H9      19.457747   20.667661   23.155101 H          1 MOL1         0.0755
      15    C6      19.565707   18.600882   23.838920 C.3        1 MOL1        -0.1958
      16    H10     19.076528   17.641107   23.634152 H          1 MOL1         0.0753
      17    H11     20.628354   18.482530   23.599181 H          1 MOL1         0.0753
      18    C7      19.456296   18.877836   25.333996 C.2        1 MOL1         0.6174
      19    O1      20.346191   19.510919   25.866916 O.co2      1 MOL1        -0.6695
      20    O2      18.474269   18.470380   25.922500 O.co2      1 MOL1        -0.6695
@<TRIPOS>BOND
    1     1     2    1
    2     1     3    1
    3     1     4    2
    4     4     5    1
    5     4     6    1
    6     6     7    1
    7     6     8    1
    8     6     9    1
    9     9    10    1
   10     9    11    1
   11     9    12    1
   12    12    13    1
   13    12    14    1
   14    12    15    1
   15    15    16    1
   16    15    17    1
   17    15    18    1
   18    18    19    1
   19    18    20    2
@<TRIPOS>SUBSTRUCTURE
       1 MOL1            1 RESIDUE      1      MOL     
@<SCITEGIC>MOL_PROPERTY
VM2 Rank
SciTegic.value.IntegerValue
11

@<SCITEGIC>MOL_PROPERTY
Conf_Id
SciTegic.value.IntegerValue
666

@<SCITEGIC>MOL_PROPERTY
Probability
SciTegic.value.DoubleValue
3.43

@<SCITEGIC>MOL_PROPERTY
Sum Probability
SciTegic.value.DoubleValue
71.47

@<SCITEGIC>MOL_PROPERTY
Delta G
SciTegic.value.DoubleValue
0.825

@<SCITEGIC>MOL_PROPERTY
G
SciTegic.value.DoubleValue
-21.065

@<SCITEGIC>MOL_PROPERTY
E
SciTegic.value.DoubleValue
-36.060

@<SCITEGIC>MOL_PROPERTY
-TS
SciTegic.value.DoubleValue
14.995

@<SCITEGIC>MOL_PROPERTY
U+W
SciTegic.value.DoubleValue
-52.157

@<SCITEGIC>MOL_PROPERTY
U
SciTegic.value.DoubleValue
7.601

@<SCITEGIC>MOL_PROPERTY
W
SciTegic.value.DoubleValue
-59.758

@<SCITEGIC>MOL_PROPERTY
W(PB)
SciTegic.value.DoubleValue
-62.006

@<SCITEGIC>MOL_PROPERTY
W(SA)
SciTegic.value.DoubleValue
2.248

@<SCITEGIC>MOL_PROPERTY
Valence
SciTegic.value.DoubleValue
9.602

@<SCITEGIC>MOL_PROPERTY
Coulomb
SciTegic.value.DoubleValue
-2.686

@<SCITEGIC>MOL_PROPERTY
VdW
SciTegic.value.DoubleValue
0.686

@<SCITEGIC>MOL_PROPERTY
VdW6
SciTegic.value.DoubleValue
-6.453

@<SCITEGIC>MOL_PROPERTY
VdW12
SciTegic.value.DoubleValue
7.139

@<SCITEGIC>MOL_PROPERTY
Bond
SciTegic.value.DoubleValue
0.125

@<SCITEGIC>MOL_PROPERTY
Angle
SciTegic.value.DoubleValue
2.485

@<SCITEGIC>MOL_PROPERTY
Pdih
SciTegic.value.DoubleValue
6.991

@<SCITEGIC>MOL_PROPERTY
Idih
SciTegic.value.DoubleValue
0.001

@<SCITEGIC>MOL_PROPERTY
Tether
SciTegic.value.DoubleValue
0.000

@<TRIPOS>MOLECULE
guest-s22_vm2.mol2 : vm2 ligand conformer 12
          20          19           1
SMALL
USER_CHARGES
 
@<TRIPOS>ATOM
       1    C1      20.409129   17.938232   18.704605 C.2        1 MOL1        -0.2535
       2    H1      20.759162   17.980319   17.674576 H          1 MOL1         0.0845
       3    H2      20.523406   16.993848   19.234378 H          1 MOL1         0.0845
       4    C2      19.863704   19.006328   19.292316 C.2        1 MOL1        -0.1324
       5    H3      19.758963   19.942471   18.744318 H          1 MOL1         0.0833
       6    C3      19.354393   19.022793   20.716474 C.3        1 MOL1        -0.1813
       7    H4      19.249610   17.994907   21.086703 H          1 MOL1         0.0753
       8    H5      18.353175   19.473138   20.742579 H          1 MOL1         0.0753
       9    C4      20.305595   19.820228   21.636948 C.3        1 MOL1        -0.1855
      10    H6      21.292344   19.337249   21.652753 H          1 MOL1         0.0755
      11    H7      20.457366   20.821060   21.209881 H          1 MOL1         0.0755
      12    C5      19.778499   19.976381   23.083359 C.3        1 MOL1        -0.1855
      13    H8      18.795918   20.468034   23.069748 H          1 MOL1         0.0755
      14    H9      20.453096   20.647174   23.633320 H          1 MOL1         0.0755
      15    C6      19.675428   18.633997   23.853062 C.3        1 MOL1        -0.1958
      16    H10     18.939515   17.973178   23.381415 H          1 MOL1         0.0753
      17    H11     20.639970   18.112697   23.835704 H          1 MOL1         0.0753
      18    C7      19.264660   18.820015   25.309287 C.2        1 MOL1         0.6174
      19    O1      20.140817   18.972373   26.137459 O.co2      1 MOL1        -0.6695
      20    O2      18.078776   18.827651   25.574489 O.co2      1 MOL1        -0.6695
@<TRIPOS>BOND
    1     1     2    1
    2     1     3    1
    3     1     4    2
    4     4     5    1
    5     4     6    1
    6     6     7    1
    7     6     8    1
    8     6     9    1
    9     9    10    1
   10     9    11    1
   11     9    12    1
   12    12    13    1
   13    12    14    1
   14    12    15    1
   15    15    16    1
   16    15    17    1
   17    15    18    1
   18    18    19    1
   19    18    20    2
@<TRIPOS>SUBSTRUCTURE
       1 MOL1            1 RESIDUE      1      MOL     
@<SCITEGIC>MOL_PROPERTY
VM2 Rank
SciTegic.value.IntegerValue
12

@<SCITEGIC>MOL_PROPERTY
Conf_Id
SciTegic.value.IntegerValue
230

@<SCITEGIC>MOL_PROPERTY
Probability
SciTegic.value.DoubleValue
3.25

@<SCITEGIC>MOL_PROPERTY
Sum Probability
SciTegic.value.DoubleValue
74.72

@<SCITEGIC>MOL_PROPERTY
Delta G
SciTegic.value.DoubleValue
0.856

@<SCITEGIC>MOL_PROPERTY
G
SciTegic.value.DoubleValue
-21.034

@<SCITEGIC>MOL_PROPERTY
E
SciTegic.value.DoubleValue
-36.029

@<SCITEGIC>MOL_PROPERTY
-TS
SciTegic.value.DoubleValue
14.996

@<SCITEGIC>MOL_PROPERTY
U+W
SciTegic.value.DoubleValue
-52.126

@<SCITEGIC>MOL_PROPERTY
U
SciTegic.value.DoubleValue
7.601

@<SCITEGIC>MOL_PROPERTY
W
SciTegic.value.DoubleValue
-59.727

@<SCITEGIC>MOL_PROPERTY
W(PB)
SciTegic.value.DoubleValue
-61.964

@<SCITEGIC>MOL_PROPERTY
W(SA)
SciTegic.value.DoubleValue
2.236

@<SCITEGIC>MOL_PROPERTY
Valence
SciTegic.value.DoubleValue
9.602

@<SCITEGIC>MOL_PROPERTY
Coulomb
SciTegic.value.DoubleValue
-2.686

@<SCITEGIC>MOL_PROPERTY
VdW
SciTegic.value.DoubleValue
0.685

@<SCITEGIC>MOL_PROPERTY
VdW6
SciTegic.value.DoubleValue
-6.453

@<SCITEGIC>MOL_PROPERTY
VdW12
SciTegic.value.DoubleValue
7.139

@<SCITEGIC>MOL_PROPERTY
Bond
SciTegic.value.DoubleValue
0.125

@<SCITEGIC>MOL_PROPERTY
Angle
SciTegic.value.DoubleValue
2.485

@<SCITEGIC>MOL_PROPERTY
Pdih
SciTegic.value.DoubleValue
6.991

@<SCITEGIC>MOL_PROPERTY
Idih
SciTegic.value.DoubleValue
0.001

@<SCITEGIC>MOL_PROPERTY
Tether
SciTegic.value.DoubleValue
0.000

@<TRIPOS>MOLECULE
guest-s22_vm2.mol2 : vm2 ligand conformer 13
          20          19           1
SMALL
USER_CHARGES
 
@<TRIPOS>ATOM
       1    C1      19.850198   18.454060   18.585276 C.2        1 MOL1        -0.2535
       2    H1      20.106878   18.282919   17.541244 H          1 MOL1         0.0845
       3    H2      18.851413   18.159120   18.899816 H          1 MOL1         0.0845
       4    C2      20.736252   19.000009   19.425987 C.2        1 MOL1        -0.1324
       5    H3      21.722542   19.273511   19.051773 H          1 MOL1         0.0833
       6    C3      20.524932   19.299984   20.900654 C.3        1 MOL1        -0.1813
       7    H4      20.768586   20.355209   21.082532 H          1 MOL1         0.0753
       8    H5      21.255900   18.721763   21.479506 H          1 MOL1         0.0753
       9    C4      19.095850   19.016304   21.426445 C.3        1 MOL1        -0.1855
      10    H6      18.372506   19.562159   20.805378 H          1 MOL1         0.0755
      11    H7      18.864786   17.947978   21.316154 H          1 MOL1         0.0755
      12    C5      18.886702   19.438961   22.900425 C.3        1 MOL1        -0.1855
      13    H8      17.824565   19.316098   23.153961 H          1 MOL1         0.0755
      14    H9      19.110795   20.508443   23.015995 H          1 MOL1         0.0755
      15    C6      19.735676   18.619796   23.907115 C.3        1 MOL1        -0.1958
      16    H10     19.553784   17.547075   23.770825 H          1 MOL1         0.0753
      17    H11     20.805060   18.792435   23.742158 H          1 MOL1         0.0753
      18    C7      19.428729   18.970555   25.358574 C.2        1 MOL1         0.6174
      19    O1      20.057758   19.872181   25.876367 O.co2      1 MOL1        -0.6695
      20    O2      18.554904   18.346151   25.927157 O.co2      1 MOL1        -0.6695
@<TRIPOS>BOND
    1     1     2    1
    2     1     3    1
    3     1     4    2
    4     4     5    1
    5     4     6    1
    6     6     7    1
    7     6     8    1
    8     6     9    1
    9     9    10    1
   10     9    11    1
   11     9    12    1
   12    12    13    1
   13    12    14    1
   14    12    15    1
   15    15    16    1
   16    15    17    1
   17    15    18    1
   18    18    19    1
   19    18    20    2
@<TRIPOS>SUBSTRUCTURE
       1 MOL1            1 RESIDUE      1      MOL     
@<SCITEGIC>MOL_PROPERTY
VM2 Rank
SciTegic.value.IntegerValue
13

@<SCITEGIC>MOL_PROPERTY
Conf_Id
SciTegic.value.IntegerValue
510

@<SCITEGIC>MOL_PROPERTY
Probability
SciTegic.value.DoubleValue
3.04

@<SCITEGIC>MOL_PROPERTY
Sum Probability
SciTegic.value.DoubleValue
77.76

@<SCITEGIC>MOL_PROPERTY
Delta G
SciTegic.value.DoubleValue
0.896

@<SCITEGIC>MOL_PROPERTY
G
SciTegic.value.DoubleValue
-20.994

@<SCITEGIC>MOL_PROPERTY
E
SciTegic.value.DoubleValue
-36.350

@<SCITEGIC>MOL_PROPERTY
-TS
SciTegic.value.DoubleValue
15.356

@<SCITEGIC>MOL_PROPERTY
U+W
SciTegic.value.DoubleValue
-52.446

@<SCITEGIC>MOL_PROPERTY
U
SciTegic.value.DoubleValue
7.428

@<SCITEGIC>MOL_PROPERTY
W
SciTegic.value.DoubleValue
-59.874

@<SCITEGIC>MOL_PROPERTY
W(PB)
SciTegic.value.DoubleValue
-62.078

@<SCITEGIC>MOL_PROPERTY
W(SA)
SciTegic.value.DoubleValue
2.204

@<SCITEGIC>MOL_PROPERTY
Valence
SciTegic.value.DoubleValue
8.548

@<SCITEGIC>MOL_PROPERTY
Coulomb
SciTegic.value.DoubleValue
-2.540

@<SCITEGIC>MOL_PROPERTY
VdW
SciTegic.value.DoubleValue
1.420

@<SCITEGIC>MOL_PROPERTY
VdW6
SciTegic.value.DoubleValue
-7.116

@<SCITEGIC>MOL_PROPERTY
VdW12
SciTegic.value.DoubleValue
8.535

@<SCITEGIC>MOL_PROPERTY
Bond
SciTegic.value.DoubleValue
0.184

@<SCITEGIC>MOL_PROPERTY
Angle
SciTegic.value.DoubleValue
3.112

@<SCITEGIC>MOL_PROPERTY
Pdih
SciTegic.value.DoubleValue
5.252

@<SCITEGIC>MOL_PROPERTY
Idih
SciTegic.value.DoubleValue
0.001

@<SCITEGIC>MOL_PROPERTY
Tether
SciTegic.value.DoubleValue
0.000

@<TRIPOS>MOLECULE
guest-s22_vm2.mol2 : vm2 ligand conformer 14
          20          19           1
SMALL
USER_CHARGES
 
@<TRIPOS>ATOM
       1    C1      19.855886   17.566526   19.830117 C.2        1 MOL1        -0.2535
       2    H1      20.196261   16.651859   19.347924 H          1 MOL1         0.0845
       3    H2      18.962600   17.494413   20.446511 H          1 MOL1         0.0845
       4    C2      20.516020   18.717183   19.657815 C.2        1 MOL1        -0.1324
       5    H3      21.404119   18.727879   19.026464 H          1 MOL1         0.0833
       6    C3      20.167221   20.067512   20.264184 C.3        1 MOL1        -0.1813
       7    H4      19.757374   20.710230   19.473805 H          1 MOL1         0.0753
       8    H5      21.094039   20.561612   20.585199 H          1 MOL1         0.0753
       9    C4      19.183799   20.045080   21.460611 C.3        1 MOL1        -0.1855
      10    H6      18.901723   21.079886   21.698143 H          1 MOL1         0.0755
      11    H7      18.254464   19.534466   21.175605 H          1 MOL1         0.0755
      12    C5      19.791641   19.395356   22.725664 C.3        1 MOL1        -0.1855
      13    H8      20.703444   19.935355   23.015862 H          1 MOL1         0.0755
      14    H9      20.092359   18.360831   22.513158 H          1 MOL1         0.0755
      15    C6      18.795037   19.401137   23.910851 C.3        1 MOL1        -0.1958
      16    H10     18.497816   20.428922   24.151232 H          1 MOL1         0.0753
      17    H11     17.883617   18.854288   23.640944 H          1 MOL1         0.0753
      18    C7      19.371558   18.768110   25.172196 C.2        1 MOL1         0.6174
      19    O1      19.988876   19.479452   25.940104 O.co2      1 MOL1        -0.6695
      20    O2      19.200961   17.577644   25.346459 O.co2      1 MOL1        -0.6695
@<TRIPOS>BOND
    1     1     2    1
    2     1     3    1
    3     1     4    2
    4     4     5    1
    5     4     6    1
    6     6     7    1
    7     6     8    1
    8     6     9    1
    9     9    10    1
   10     9    11    1
   11     9    12    1
   12    12    13    1
   13    12    14    1
   14    12    15    1
   15    15    16    1
   16    15    17    1
   17    15    18    1
   18    18    19    1
   19    18    20    2
@<TRIPOS>SUBSTRUCTURE
       1 MOL1            1 RESIDUE      1      MOL     
@<SCITEGIC>MOL_PROPERTY
VM2 Rank
SciTegic.value.IntegerValue
14

@<SCITEGIC>MOL_PROPERTY
Conf_Id
SciTegic.value.IntegerValue
642

@<SCITEGIC>MOL_PROPERTY
Probability
SciTegic.value.DoubleValue
1.70

@<SCITEGIC>MOL_PROPERTY
Sum Probability
SciTegic.value.DoubleValue
79.46

@<SCITEGIC>MOL_PROPERTY
Delta G
SciTegic.value.DoubleValue
1.244

@<SCITEGIC>MOL_PROPERTY
G
SciTegic.value.DoubleValue
-20.646

@<SCITEGIC>MOL_PROPERTY
E
SciTegic.value.DoubleValue
-36.099

@<SCITEGIC>MOL_PROPERTY
-TS
SciTegic.value.DoubleValue
15.454

@<SCITEGIC>MOL_PROPERTY
U+W
SciTegic.value.DoubleValue
-52.196

@<SCITEGIC>MOL_PROPERTY
U
SciTegic.value.DoubleValue
8.773

@<SCITEGIC>MOL_PROPERTY
W
SciTegic.value.DoubleValue
-60.969

@<SCITEGIC>MOL_PROPERTY
W(PB)
SciTegic.value.DoubleValue
-63.158

@<SCITEGIC>MOL_PROPERTY
W(SA)
SciTegic.value.DoubleValue
2.189

@<SCITEGIC>MOL_PROPERTY
Valence
SciTegic.value.DoubleValue
8.762

@<SCITEGIC>MOL_PROPERTY
Coulomb
SciTegic.value.DoubleValue
-1.079

@<SCITEGIC>MOL_PROPERTY
VdW
SciTegic.value.DoubleValue
1.090

@<SCITEGIC>MOL_PROPERTY
VdW6
SciTegic.value.DoubleValue
-7.279

@<SCITEGIC>MOL_PROPERTY
VdW12
SciTegic.value.DoubleValue
8.369

@<SCITEGIC>MOL_PROPERTY
Bond
SciTegic.value.DoubleValue
0.166

@<SCITEGIC>MOL_PROPERTY
Angle
SciTegic.value.DoubleValue
3.199

@<SCITEGIC>MOL_PROPERTY
Pdih
SciTegic.value.DoubleValue
5.396

@<SCITEGIC>MOL_PROPERTY
Idih
SciTegic.value.DoubleValue
0.000

@<SCITEGIC>MOL_PROPERTY
Tether
SciTegic.value.DoubleValue
0.000

@<TRIPOS>MOLECULE
guest-s22_vm2.mol2 : vm2 ligand conformer 15
          20          19           1
SMALL
USER_CHARGES
 
@<TRIPOS>ATOM
       1    C1      20.938642   17.893022   19.969858 C.2        1 MOL1        -0.2535
       2    H1      21.274720   16.977006   19.487211 H          1 MOL1         0.0845
       3    H2      21.553989   18.275804   20.780987 H          1 MOL1         0.0845
       4    C2      19.820354   18.507406   19.568058 C.2        1 MOL1        -0.1324
       5    H3      19.246004   18.077052   18.748085 H          1 MOL1         0.0833
       6    C3      19.224792   19.783306   20.142616 C.3        1 MOL1        -0.1813
       7    H4      18.134189   19.668996   20.203394 H          1 MOL1         0.0753
       8    H5      19.389113   20.599188   19.426310 H          1 MOL1         0.0753
       9    C4      19.750694   20.216051   21.533734 C.3        1 MOL1        -0.1855
      10    H6      20.843927   20.315451   21.509612 H          1 MOL1         0.0755
      11    H7      19.359072   21.217812   21.757161 H          1 MOL1         0.0755
      12    C5      19.320154   19.253119   22.664826 C.3        1 MOL1        -0.1855
      13    H8      19.690845   18.239699   22.461363 H          1 MOL1         0.0755
      14    H9      18.223838   19.187387   22.695945 H          1 MOL1         0.0755
      15    C6      19.843832   19.717493   24.046140 C.3        1 MOL1        -0.1958
      16    H10     20.938843   19.775863   24.035078 H          1 MOL1         0.0753
      17    H11     19.467500   20.721418   24.276304 H          1 MOL1         0.0753
      18    C7      19.430312   18.785837   25.179766 C.2        1 MOL1         0.6174
      19    O1      20.175644   17.871731   25.472292 O.co2      1 MOL1        -0.6695
      20    O2      18.366576   18.990033   25.730711 O.co2      1 MOL1        -0.6695
@<TRIPOS>BOND
    1     1     2    1
    2     1     3    1
    3     1     4    2
    4     4     5    1
    5     4     6    1
    6     6     7    1
    7     6     8    1
    8     6     9    1
    9     9    10    1
   10     9    11    1
   11     9    12    1
   12    12    13    1
   13    12    14    1
   14    12    15    1
   15    15    16    1
   16    15    17    1
   17    15    18    1
   18    18    19    1
   19    18    20    2
@<TRIPOS>SUBSTRUCTURE
       1 MOL1            1 RESIDUE      1      MOL     
@<SCITEGIC>MOL_PROPERTY
VM2 Rank
SciTegic.value.IntegerValue
15

@<SCITEGIC>MOL_PROPERTY
Conf_Id
SciTegic.value.IntegerValue
713

@<SCITEGIC>MOL_PROPERTY
Probability
SciTegic.value.DoubleValue
1.54

@<SCITEGIC>MOL_PROPERTY
Sum Probability
SciTegic.value.DoubleValue
81.00

@<SCITEGIC>MOL_PROPERTY
Delta G
SciTegic.value.DoubleValue
1.301

@<SCITEGIC>MOL_PROPERTY
G
SciTegic.value.DoubleValue
-20.589

@<SCITEGIC>MOL_PROPERTY
E
SciTegic.value.DoubleValue
-36.043

@<SCITEGIC>MOL_PROPERTY
-TS
SciTegic.value.DoubleValue
15.454

@<SCITEGIC>MOL_PROPERTY
U+W
SciTegic.value.DoubleValue
-52.139

@<SCITEGIC>MOL_PROPERTY
U
SciTegic.value.DoubleValue
8.773

@<SCITEGIC>MOL_PROPERTY
W
SciTegic.value.DoubleValue
-60.912

@<SCITEGIC>MOL_PROPERTY
W(PB)
SciTegic.value.DoubleValue
-63.120

@<SCITEGIC>MOL_PROPERTY
W(SA)
SciTegic.value.DoubleValue
2.208

@<SCITEGIC>MOL_PROPERTY
Valence
SciTegic.value.DoubleValue
8.761

@<SCITEGIC>MOL_PROPERTY
Coulomb
SciTegic.value.DoubleValue
-1.079

@<SCITEGIC>MOL_PROPERTY
VdW
SciTegic.value.DoubleValue
1.090

@<SCITEGIC>MOL_PROPERTY
VdW6
SciTegic.value.DoubleValue
-7.280

@<SCITEGIC>MOL_PROPERTY
VdW12
SciTegic.value.DoubleValue
8.370

@<SCITEGIC>MOL_PROPERTY
Bond
SciTegic.value.DoubleValue
0.166

@<SCITEGIC>MOL_PROPERTY
Angle
SciTegic.value.DoubleValue
3.199

@<SCITEGIC>MOL_PROPERTY
Pdih
SciTegic.value.DoubleValue
5.396

@<SCITEGIC>MOL_PROPERTY
Idih
SciTegic.value.DoubleValue
0.000

@<SCITEGIC>MOL_PROPERTY
Tether
SciTegic.value.DoubleValue
0.000

@<TRIPOS>MOLECULE
guest-s22_vm2.mol2 : vm2 ligand conformer 16
          20          19           1
SMALL
USER_CHARGES
 
@<TRIPOS>ATOM
       1    C1      19.529875   18.519226   18.556374 C.2        1 MOL1        -0.2535
       2    H1      18.784601   18.531689   17.762851 H          1 MOL1         0.0845
       3    H2      20.334833   17.790391   18.476257 H          1 MOL1         0.0845
       4    C2      19.454445   19.364901   19.587300 C.2        1 MOL1        -0.1324
       5    H3      18.639847   20.086199   19.649078 H          1 MOL1         0.0833
       6    C3      20.451082   19.406722   20.724231 C.3        1 MOL1        -0.1813
       7    H4      20.766469   20.444200   20.898288 H          1 MOL1         0.0753
       8    H5      21.354936   18.841751   20.458534 H          1 MOL1         0.0753
       9    C4      19.843980   18.826909   22.018934 C.3        1 MOL1        -0.1855
      10    H6      18.941525   19.395142   22.283734 H          1 MOL1         0.0755
      11    H7      19.525382   17.790766   21.839561 H          1 MOL1         0.0755
      12    C5      20.849093   18.864965   23.192232 C.3        1 MOL1        -0.1855
      13    H8      21.161709   19.901414   23.381289 H          1 MOL1         0.0755
      14    H9      21.753590   18.307990   22.912505 H          1 MOL1         0.0755
      15    C6      20.267526   18.258182   24.495491 C.3        1 MOL1        -0.1958
      16    H10     19.925025   17.231904   24.315755 H          1 MOL1         0.0753
      17    H11     21.054690   18.201518   25.256504 H          1 MOL1         0.0753
      18    C7      19.113610   19.059545   25.091443 C.2        1 MOL1         0.6174
      19    O1      19.375992   20.091738   25.676959 O.co2      1 MOL1        -0.6695
      20    O2      17.985397   18.625812   24.965037 O.co2      1 MOL1        -0.6695
@<TRIPOS>BOND
    1     1     2    1
    2     1     3    1
    3     1     4    2
    4     4     5    1
    5     4     6    1
    6     6     7    1
    7     6     8    1
    8     6     9    1
    9     9    10    1
   10     9    11    1
   11     9    12    1
   12    12    13    1
   13    12    14    1
   14    12    15    1
   15    15    16    1
   16    15    17    1
   17    15    18    1
   18    18    19    1
   19    18    20    2
@<TRIPOS>SUBSTRUCTURE
       1 MOL1            1 RESIDUE      1      MOL     
@<SCITEGIC>MOL_PROPERTY
VM2 Rank
SciTegic.value.IntegerValue
16

@<SCITEGIC>MOL_PROPERTY
Conf_Id
SciTegic.value.IntegerValue
665

@<SCITEGIC>MOL_PROPERTY
Probability
SciTegic.value.DoubleValue
1.45

@<SCITEGIC>MOL_PROPERTY
Sum Probability
SciTegic.value.DoubleValue
82.46

@<SCITEGIC>MOL_PROPERTY
Delta G
SciTegic.value.DoubleValue
1.337

@<SCITEGIC>MOL_PROPERTY
G
SciTegic.value.DoubleValue
-20.553

@<SCITEGIC>MOL_PROPERTY
E
SciTegic.value.DoubleValue
-35.757

@<SCITEGIC>MOL_PROPERTY
-TS
SciTegic.value.DoubleValue
15.205

@<SCITEGIC>MOL_PROPERTY
U+W
SciTegic.value.DoubleValue
-51.854

@<SCITEGIC>MOL_PROPERTY
U
SciTegic.value.DoubleValue
8.963

@<SCITEGIC>MOL_PROPERTY
W
SciTegic.value.DoubleValue
-60.816

@<SCITEGIC>MOL_PROPERTY
W(PB)
SciTegic.value.DoubleValue
-63.056

@<SCITEGIC>MOL_PROPERTY
W(SA)
SciTegic.value.DoubleValue
2.240

@<SCITEGIC>MOL_PROPERTY
Valence
SciTegic.value.DoubleValue
9.327

@<SCITEGIC>MOL_PROPERTY
Coulomb
SciTegic.value.DoubleValue
-0.781

@<SCITEGIC>MOL_PROPERTY
VdW
SciTegic.value.DoubleValue
0.417

@<SCITEGIC>MOL_PROPERTY
VdW6
SciTegic.value.DoubleValue
-6.635

@<SCITEGIC>MOL_PROPERTY
VdW12
SciTegic.value.DoubleValue
7.052

@<SCITEGIC>MOL_PROPERTY
Bond
SciTegic.value.DoubleValue
0.105

@<SCITEGIC>MOL_PROPERTY
Angle
SciTegic.value.DoubleValue
2.399

@<SCITEGIC>MOL_PROPERTY
Pdih
SciTegic.value.DoubleValue
6.822

@<SCITEGIC>MOL_PROPERTY
Idih
SciTegic.value.DoubleValue
0.000

@<SCITEGIC>MOL_PROPERTY
Tether
SciTegic.value.DoubleValue
0.000

@<TRIPOS>MOLECULE
guest-s22_vm2.mol2 : vm2 ligand conformer 17
          20          19           1
SMALL
USER_CHARGES
 
@<TRIPOS>ATOM
       1    C1      19.105515   19.795252   18.882362 C.2        1 MOL1        -0.2535
       2    H1      19.307409   20.826012   19.169334 H          1 MOL1         0.0845
       3    H2      18.427342   19.631621   18.046558 H          1 MOL1         0.0845
       4    C2      19.663642   18.768841   19.529383 C.2        1 MOL1        -0.1324
       5    H3      19.447570   17.744443   19.226800 H          1 MOL1         0.0833
       6    C3      20.613980   18.918247   20.696516 C.3        1 MOL1        -0.1813
       7    H4      20.971696   19.954625   20.765421 H          1 MOL1         0.0753
       8    H5      21.498750   18.288663   20.532538 H          1 MOL1         0.0753
       9    C4      19.934016   18.520595   22.023384 C.3        1 MOL1        -0.1855
      10    H6      19.046373   19.149830   22.177760 H          1 MOL1         0.0755
      11    H7      19.579681   17.482785   21.956710 H          1 MOL1         0.0755
      12    C5      20.893442   18.664566   23.226341 C.3        1 MOL1        -0.1855
      13    H8      21.238866   19.704896   23.304498 H          1 MOL1         0.0755
      14    H9      21.785607   18.047356   23.054112 H          1 MOL1         0.0755
      15    C6      20.238301   18.239079   24.565977 C.3        1 MOL1        -0.1958
      16    H10     19.863736   17.210731   24.494871 H          1 MOL1         0.0753
      17    H11     20.992337   18.248004   25.361794 H          1 MOL1         0.0753
      18    C7      19.093777   19.144714   25.011826 C.2        1 MOL1         0.6174
      19    O1      19.372668   20.231132   25.479824 O.co2      1 MOL1        -0.6695
      20    O2      17.955660   18.735575   24.892389 O.co2      1 MOL1        -0.6695
@<TRIPOS>BOND
    1     1     2    1
    2     1     3    1
    3     1     4    2
    4     4     5    1
    5     4     6    1
    6     6     7    1
    7     6     8    1
    8     6     9    1
    9     9    10    1
   10     9    11    1
   11     9    12    1
   12    12    13    1
   13    12    14    1
   14    12    15    1
   15    15    16    1
   16    15    17    1
   17    15    18    1
   18    18    19    1
   19    18    20    2
@<TRIPOS>SUBSTRUCTURE
       1 MOL1            1 RESIDUE      1      MOL     
@<SCITEGIC>MOL_PROPERTY
VM2 Rank
SciTegic.value.IntegerValue
17

@<SCITEGIC>MOL_PROPERTY
Conf_Id
SciTegic.value.IntegerValue
73

@<SCITEGIC>MOL_PROPERTY
Probability
SciTegic.value.DoubleValue
1.32

@<SCITEGIC>MOL_PROPERTY
Sum Probability
SciTegic.value.DoubleValue
83.78

@<SCITEGIC>MOL_PROPERTY
Delta G
SciTegic.value.DoubleValue
1.394

@<SCITEGIC>MOL_PROPERTY
G
SciTegic.value.DoubleValue
-20.496

@<SCITEGIC>MOL_PROPERTY
E
SciTegic.value.DoubleValue
-35.703

@<SCITEGIC>MOL_PROPERTY
-TS
SciTegic.value.DoubleValue
15.207

@<SCITEGIC>MOL_PROPERTY
U+W
SciTegic.value.DoubleValue
-51.799

@<SCITEGIC>MOL_PROPERTY
U
SciTegic.value.DoubleValue
9.411

@<SCITEGIC>MOL_PROPERTY
W
SciTegic.value.DoubleValue
-61.210

@<SCITEGIC>MOL_PROPERTY
W(PB)
SciTegic.value.DoubleValue
-63.461

@<SCITEGIC>MOL_PROPERTY
W(SA)
SciTegic.value.DoubleValue
2.251

@<SCITEGIC>MOL_PROPERTY
Valence
SciTegic.value.DoubleValue
9.330

@<SCITEGIC>MOL_PROPERTY
Coulomb
SciTegic.value.DoubleValue
-0.325

@<SCITEGIC>MOL_PROPERTY
VdW
SciTegic.value.DoubleValue
0.406

@<SCITEGIC>MOL_PROPERTY
VdW6
SciTegic.value.DoubleValue
-6.640

@<SCITEGIC>MOL_PROPERTY
VdW12
SciTegic.value.DoubleValue
7.046

@<SCITEGIC>MOL_PROPERTY
Bond
SciTegic.value.DoubleValue
0.105

@<SCITEGIC>MOL_PROPERTY
Angle
SciTegic.value.DoubleValue
2.401

@<SCITEGIC>MOL_PROPERTY
Pdih
SciTegic.value.DoubleValue
6.823

@<SCITEGIC>MOL_PROPERTY
Idih
SciTegic.value.DoubleValue
0.000

@<SCITEGIC>MOL_PROPERTY
Tether
SciTegic.value.DoubleValue
0.000

@<TRIPOS>MOLECULE
guest-s22_vm2.mol2 : vm2 ligand conformer 18
          20          19           1
SMALL
USER_CHARGES
 
@<TRIPOS>ATOM
       1    C1      19.949174   18.191925   18.616890 C.2        1 MOL1        -0.2535
       2    H1      19.081514   18.766550   18.296661 H          1 MOL1         0.0845
       3    H2      20.271278   17.372354   17.976719 H          1 MOL1         0.0845
       4    C2      20.594405   18.476247   19.751133 C.2        1 MOL1        -0.1324
       5    H3      21.460344   17.888013   20.054098 H          1 MOL1         0.0833
       6    C3      20.206389   19.597578   20.689059 C.3        1 MOL1        -0.1813
       7    H4      19.505997   20.283133   20.192869 H          1 MOL1         0.0753
       8    H5      21.097062   20.186627   20.945676 H          1 MOL1         0.0753
       9    C4      19.561394   19.047431   21.978374 C.3        1 MOL1        -0.1855
      10    H6      18.673624   18.454992   21.717315 H          1 MOL1         0.0755
      11    H7      20.264711   18.363845   22.473843 H          1 MOL1         0.0755
      12    C5      19.161517   20.180901   22.949804 C.3        1 MOL1        -0.1855
      13    H8      18.471274   20.867337   22.440930 H          1 MOL1         0.0755
      14    H9      20.049268   20.768913   23.221529 H          1 MOL1         0.0755
      15    C6      18.483152   19.649549   24.239138 C.3        1 MOL1        -0.1958
      16    H10     18.115158   20.493611   24.834216 H          1 MOL1         0.0753
      17    H11     17.610238   19.036881   23.983168 H          1 MOL1         0.0753
      18    C7      19.408408   18.829581   25.133800 C.2        1 MOL1         0.6174
      19    O1      20.233921   19.422800   25.799922 O.co2      1 MOL1        -0.6695
      20    O2      19.272640   17.621989   25.149880 O.co2      1 MOL1        -0.6695
@<TRIPOS>BOND
    1     1     2    1
    2     1     3    1
    3     1     4    2
    4     4     5    1
    5     4     6    1
    6     6     7    1
    7     6     8    1
    8     6     9    1
    9     9    10    1
   10     9    11    1
   11     9    12    1
   12    12    13    1
   13    12    14    1
   14    12    15    1
   15    15    16    1
   16    15    17    1
   17    15    18    1
   18    18    19    1
   19    18    20    2
@<TRIPOS>SUBSTRUCTURE
       1 MOL1            1 RESIDUE      1      MOL     
@<SCITEGIC>MOL_PROPERTY
VM2 Rank
SciTegic.value.IntegerValue
18

@<SCITEGIC>MOL_PROPERTY
Conf_Id
SciTegic.value.IntegerValue
40

@<SCITEGIC>MOL_PROPERTY
Probability
SciTegic.value.DoubleValue
1.31

@<SCITEGIC>MOL_PROPERTY
Sum Probability
SciTegic.value.DoubleValue
85.09

@<SCITEGIC>MOL_PROPERTY
Delta G
SciTegic.value.DoubleValue
1.399

@<SCITEGIC>MOL_PROPERTY
G
SciTegic.value.DoubleValue
-20.491

@<SCITEGIC>MOL_PROPERTY
E
SciTegic.value.DoubleValue
-35.696

@<SCITEGIC>MOL_PROPERTY
-TS
SciTegic.value.DoubleValue
15.205

@<SCITEGIC>MOL_PROPERTY
U+W
SciTegic.value.DoubleValue
-51.793

@<SCITEGIC>MOL_PROPERTY
U
SciTegic.value.DoubleValue
8.964

@<SCITEGIC>MOL_PROPERTY
W
SciTegic.value.DoubleValue
-60.756

@<SCITEGIC>MOL_PROPERTY
W(PB)
SciTegic.value.DoubleValue
-63.007

@<SCITEGIC>MOL_PROPERTY
W(SA)
SciTegic.value.DoubleValue
2.251

@<SCITEGIC>MOL_PROPERTY
Valence
SciTegic.value.DoubleValue
9.327

@<SCITEGIC>MOL_PROPERTY
Coulomb
SciTegic.value.DoubleValue
-0.779

@<SCITEGIC>MOL_PROPERTY
VdW
SciTegic.value.DoubleValue
0.417

@<SCITEGIC>MOL_PROPERTY
VdW6
SciTegic.value.DoubleValue
-6.635

@<SCITEGIC>MOL_PROPERTY
VdW12
SciTegic.value.DoubleValue
7.052

@<SCITEGIC>MOL_PROPERTY
Bond
SciTegic.value.DoubleValue
0.105

@<SCITEGIC>MOL_PROPERTY
Angle
SciTegic.value.DoubleValue
2.400

@<SCITEGIC>MOL_PROPERTY
Pdih
SciTegic.value.DoubleValue
6.822

@<SCITEGIC>MOL_PROPERTY
Idih
SciTegic.value.DoubleValue
0.000

@<SCITEGIC>MOL_PROPERTY
Tether
SciTegic.value.DoubleValue
0.000

@<TRIPOS>MOLECULE
guest-s22_vm2.mol2 : vm2 ligand conformer 19
          20          19           1
SMALL
USER_CHARGES
 
@<TRIPOS>ATOM
       1    C1      20.614727   17.727976   19.100818 C.2        1 MOL1        -0.2535
       2    H1      20.333444   17.020519   18.322585 H          1 MOL1         0.0845
       3    H2      21.623317   17.654015   19.504375 H          1 MOL1         0.0845
       4    C2      19.752335   18.647238   19.542292 C.2        1 MOL1        -0.1324
       5    H3      18.746897   18.703700   19.125707 H          1 MOL1         0.0833
       6    C3      20.071304   19.661549   20.617977 C.3        1 MOL1        -0.1813
       7    H4      19.766350   20.661565   20.281742 H          1 MOL1         0.0753
       8    H5      21.155174   19.703295   20.791969 H          1 MOL1         0.0753
       9    C4      19.352162   19.317661   21.939203 C.3        1 MOL1        -0.1855
      10    H6      18.267768   19.279769   21.766862 H          1 MOL1         0.0755
      11    H7      19.656913   18.313747   22.266256 H          1 MOL1         0.0755
      12    C5      19.665143   20.347133   23.048513 C.3        1 MOL1        -0.1855
      13    H8      19.375029   21.349344   22.705035 H          1 MOL1         0.0755
      14    H9      20.748006   20.377359   23.233463 H          1 MOL1         0.0755
      15    C6      18.926007   20.036742   24.375997 C.3        1 MOL1        -0.1958
      16    H10     19.088468   20.856058   25.086141 H          1 MOL1         0.0753
      17    H11     17.844737   19.976485   24.202566 H          1 MOL1         0.0753
      18    C7      19.383235   18.748177   25.053816 C.2        1 MOL1         0.6174
      19    O1      20.450185   18.755115   25.635774 O.co2      1 MOL1        -0.6695
      20    O2      18.655903   17.776409   24.993610 O.co2      1 MOL1        -0.6695
@<TRIPOS>BOND
    1     1     2    1
    2     1     3    1
    3     1     4    2
    4     4     5    1
    5     4     6    1
    6     6     7    1
    7     6     8    1
    8     6     9    1
    9     9    10    1
   10     9    11    1
   11     9    12    1
   12    12    13    1
   13    12    14    1
   14    12    15    1
   15    15    16    1
   16    15    17    1
   17    15    18    1
   18    18    19    1
   19    18    20    2
@<TRIPOS>SUBSTRUCTURE
       1 MOL1            1 RESIDUE      1      MOL     
@<SCITEGIC>MOL_PROPERTY
VM2 Rank
SciTegic.value.IntegerValue
19

@<SCITEGIC>MOL_PROPERTY
Conf_Id
SciTegic.value.IntegerValue
174

@<SCITEGIC>MOL_PROPERTY
Probability
SciTegic.value.DoubleValue
1.29

@<SCITEGIC>MOL_PROPERTY
Sum Probability
SciTegic.value.DoubleValue
86.37

@<SCITEGIC>MOL_PROPERTY
Delta G
SciTegic.value.DoubleValue
1.408

@<SCITEGIC>MOL_PROPERTY
G
SciTegic.value.DoubleValue
-20.481

@<SCITEGIC>MOL_PROPERTY
E
SciTegic.value.DoubleValue
-35.688

@<SCITEGIC>MOL_PROPERTY
-TS
SciTegic.value.DoubleValue
15.207

@<SCITEGIC>MOL_PROPERTY
U+W
SciTegic.value.DoubleValue
-51.785

@<SCITEGIC>MOL_PROPERTY
U
SciTegic.value.DoubleValue
9.412

@<SCITEGIC>MOL_PROPERTY
W
SciTegic.value.DoubleValue
-61.197

@<SCITEGIC>MOL_PROPERTY
W(PB)
SciTegic.value.DoubleValue
-63.440

@<SCITEGIC>MOL_PROPERTY
W(SA)
SciTegic.value.DoubleValue
2.243

@<SCITEGIC>MOL_PROPERTY
Valence
SciTegic.value.DoubleValue
9.329

@<SCITEGIC>MOL_PROPERTY
Coulomb
SciTegic.value.DoubleValue
-0.324

@<SCITEGIC>MOL_PROPERTY
VdW
SciTegic.value.DoubleValue
0.406

@<SCITEGIC>MOL_PROPERTY
VdW6
SciTegic.value.DoubleValue
-6.640

@<SCITEGIC>MOL_PROPERTY
VdW12
SciTegic.value.DoubleValue
7.047

@<SCITEGIC>MOL_PROPERTY
Bond
SciTegic.value.DoubleValue
0.105

@<SCITEGIC>MOL_PROPERTY
Angle
SciTegic.value.DoubleValue
2.401

@<SCITEGIC>MOL_PROPERTY
Pdih
SciTegic.value.DoubleValue
6.822

@<SCITEGIC>MOL_PROPERTY
Idih
SciTegic.value.DoubleValue
0.000

@<SCITEGIC>MOL_PROPERTY
Tether
SciTegic.value.DoubleValue
0.000

@<TRIPOS>MOLECULE
guest-s22_vm2.mol2 : vm2 ligand conformer 20
          20          19           1
SMALL
USER_CHARGES
 
@<TRIPOS>ATOM
       1    C1      21.500996   19.188543   19.682770 C.2        1 MOL1        -0.2535
       2    H1      22.219544   19.360292   18.883173 H          1 MOL1         0.0845
       3    H2      21.903582   18.894112   20.649709 H          1 MOL1         0.0845
       4    C2      20.189218   19.338057   19.466415 C.2        1 MOL1        -0.1324
       5    H3      19.846002   19.635128   18.475681 H          1 MOL1         0.0833
       6    C3      19.072943   19.134914   20.477219 C.3        1 MOL1        -0.1813
       7    H4      18.374974   18.383014   20.085356 H          1 MOL1         0.0753
       8    H5      18.493677   20.064701   20.555073 H          1 MOL1         0.0753
       9    C4      19.538370   18.708067   21.889064 C.3        1 MOL1        -0.1855
      10    H6      20.101980   17.767464   21.821666 H          1 MOL1         0.0755
      11    H7      20.222519   19.467027   22.293111 H          1 MOL1         0.0755
      12    C5      18.345115   18.522336   22.853648 C.3        1 MOL1        -0.1855
      13    H8      17.653644   17.778063   22.435937 H          1 MOL1         0.0755
      14    H9      17.784041   19.463536   22.937442 H          1 MOL1         0.0755
      15    C6      18.787198   18.060682   24.266599 C.3        1 MOL1        -0.1958
      16    H10     17.901672   17.833639   24.871800 H          1 MOL1         0.0753
      17    H11     19.370529   17.134519   24.197323 H          1 MOL1         0.0753
      18    C7      19.607758   19.097048   25.029176 C.2        1 MOL1         0.6174
      19    O1      20.806093   18.921747   25.130339 O.co2      1 MOL1        -0.6695
      20    O2      19.023308   20.046607   25.512769 O.co2      1 MOL1        -0.6695
@<TRIPOS>BOND
    1     1     2    1
    2     1     3    1
    3     1     4    2
    4     4     5    1
    5     4     6    1
    6     6     7    1
    7     6     8    1
    8     6     9    1
    9     9    10    1
   10     9    11    1
   11     9    12    1
   12    12    13    1
   13    12    14    1
   14    12    15    1
   15    15    16    1
   16    15    17    1
   17    15    18    1
   18    18    19    1
   19    18    20    2
@<TRIPOS>SUBSTRUCTURE
       1 MOL1            1 RESIDUE      1      MOL     
@<SCITEGIC>MOL_PROPERTY
VM2 Rank
SciTegic.value.IntegerValue
20

@<SCITEGIC>MOL_PROPERTY
Conf_Id
SciTegic.value.IntegerValue
568

@<SCITEGIC>MOL_PROPERTY
Probability
SciTegic.value.DoubleValue
1.28

@<SCITEGIC>MOL_PROPERTY
Sum Probability
SciTegic.value.DoubleValue
87.65

@<SCITEGIC>MOL_PROPERTY
Delta G
SciTegic.value.DoubleValue
1.414

@<SCITEGIC>MOL_PROPERTY
G
SciTegic.value.DoubleValue
-20.475

@<SCITEGIC>MOL_PROPERTY
E
SciTegic.value.DoubleValue
-36.047

@<SCITEGIC>MOL_PROPERTY
-TS
SciTegic.value.DoubleValue
15.572

@<SCITEGIC>MOL_PROPERTY
U+W
SciTegic.value.DoubleValue
-52.143

@<SCITEGIC>MOL_PROPERTY
U
SciTegic.value.DoubleValue
9.323

@<SCITEGIC>MOL_PROPERTY
W
SciTegic.value.DoubleValue
-61.466

@<SCITEGIC>MOL_PROPERTY
W(PB)
SciTegic.value.DoubleValue
-63.680

@<SCITEGIC>MOL_PROPERTY
W(SA)
SciTegic.value.DoubleValue
2.214

@<SCITEGIC>MOL_PROPERTY
Valence
SciTegic.value.DoubleValue
8.234

@<SCITEGIC>MOL_PROPERTY
Coulomb
SciTegic.value.DoubleValue
-0.022

@<SCITEGIC>MOL_PROPERTY
VdW
SciTegic.value.DoubleValue
1.111

@<SCITEGIC>MOL_PROPERTY
VdW6
SciTegic.value.DoubleValue
-7.367

@<SCITEGIC>MOL_PROPERTY
VdW12
SciTegic.value.DoubleValue
8.478

@<SCITEGIC>MOL_PROPERTY
Bond
SciTegic.value.DoubleValue
0.158

@<SCITEGIC>MOL_PROPERTY
Angle
SciTegic.value.DoubleValue
3.010

@<SCITEGIC>MOL_PROPERTY
Pdih
SciTegic.value.DoubleValue
5.066

@<SCITEGIC>MOL_PROPERTY
Idih
SciTegic.value.DoubleValue
0.000

@<SCITEGIC>MOL_PROPERTY
Tether
SciTegic.value.DoubleValue
0.000

@<TRIPOS>MOLECULE
guest-s22_vm2.mol2 : vm2 ligand conformer 21
          20          19           1
SMALL
USER_CHARGES
 
@<TRIPOS>ATOM
       1    C1      20.785771   17.753835   19.583405 C.2        1 MOL1        -0.2535
       2    H1      21.126604   17.168121   18.731386 H          1 MOL1         0.0845
       3    H2      21.209748   17.502188   20.553278 H          1 MOL1         0.0845
       4    C2      19.887119   18.732146   19.424487 C.2        1 MOL1        -0.1324
       5    H3      19.498026   18.937484   18.427468 H          1 MOL1         0.0833
       6    C3      19.319490   19.629500   20.511510 C.3        1 MOL1        -0.1813
       7    H4      18.225993   19.527816   20.517934 H          1 MOL1         0.0753
       8    H5      19.518096   20.676002   20.244191 H          1 MOL1         0.0753
       9    C4      19.862111   19.357496   21.934082 C.3        1 MOL1        -0.1855
      10    H6      19.648872   18.316434   22.213466 H          1 MOL1         0.0755
      11    H7      20.954189   19.476922   21.940102 H          1 MOL1         0.0755
      12    C5      19.236731   20.310825   22.977559 C.3        1 MOL1        -0.1855
      13    H8      18.144804   20.187218   22.987618 H          1 MOL1         0.0755
      14    H9      19.434616   21.350474   22.683398 H          1 MOL1         0.0755
      15    C6      19.792915   20.078000   24.406353 C.3        1 MOL1        -0.1958
      16    H10     20.885507   20.173348   24.407807 H          1 MOL1         0.0753
      17    H11     19.405881   20.850841   25.080813 H          1 MOL1         0.0753
      18    C7      19.421576   18.723533   25.003371 C.2        1 MOL1         0.6174
      19    O1      20.278500   17.863430   25.056977 O.co2      1 MOL1        -0.6695
      20    O2      18.286788   18.569235   25.410256 O.co2      1 MOL1        -0.6695
@<TRIPOS>BOND
    1     1     2    1
    2     1     3    1
    3     1     4    2
    4     4     5    1
    5     4     6    1
    6     6     7    1
    7     6     8    1
    8     6     9    1
    9     9    10    1
   10     9    11    1
   11     9    12    1
   12    12    13    1
   13    12    14    1
   14    12    15    1
   15    15    16    1
   16    15    17    1
   17    15    18    1
   18    18    19    1
   19    18    20    2
@<TRIPOS>SUBSTRUCTURE
       1 MOL1            1 RESIDUE      1      MOL     
@<SCITEGIC>MOL_PROPERTY
VM2 Rank
SciTegic.value.IntegerValue
21

@<SCITEGIC>MOL_PROPERTY
Conf_Id
SciTegic.value.IntegerValue
507

@<SCITEGIC>MOL_PROPERTY
Probability
SciTegic.value.DoubleValue
1.16

@<SCITEGIC>MOL_PROPERTY
Sum Probability
SciTegic.value.DoubleValue
88.81

@<SCITEGIC>MOL_PROPERTY
Delta G
SciTegic.value.DoubleValue
1.472

@<SCITEGIC>MOL_PROPERTY
G
SciTegic.value.DoubleValue
-20.418

@<SCITEGIC>MOL_PROPERTY
E
SciTegic.value.DoubleValue
-35.990

@<SCITEGIC>MOL_PROPERTY
-TS
SciTegic.value.DoubleValue
15.572

@<SCITEGIC>MOL_PROPERTY
U+W
SciTegic.value.DoubleValue
-52.086

@<SCITEGIC>MOL_PROPERTY
U
SciTegic.value.DoubleValue
9.323

@<SCITEGIC>MOL_PROPERTY
W
SciTegic.value.DoubleValue
-61.410

@<SCITEGIC>MOL_PROPERTY
W(PB)
SciTegic.value.DoubleValue
-63.641

@<SCITEGIC>MOL_PROPERTY
W(SA)
SciTegic.value.DoubleValue
2.232

@<SCITEGIC>MOL_PROPERTY
Valence
SciTegic.value.DoubleValue
8.234

@<SCITEGIC>MOL_PROPERTY
Coulomb
SciTegic.value.DoubleValue
-0.022

@<SCITEGIC>MOL_PROPERTY
VdW
SciTegic.value.DoubleValue
1.111

@<SCITEGIC>MOL_PROPERTY
VdW6
SciTegic.value.DoubleValue
-7.367

@<SCITEGIC>MOL_PROPERTY
VdW12
SciTegic.value.DoubleValue
8.478

@<SCITEGIC>MOL_PROPERTY
Bond
SciTegic.value.DoubleValue
0.158

@<SCITEGIC>MOL_PROPERTY
Angle
SciTegic.value.DoubleValue
3.010

@<SCITEGIC>MOL_PROPERTY
Pdih
SciTegic.value.DoubleValue
5.066

@<SCITEGIC>MOL_PROPERTY
Idih
SciTegic.value.DoubleValue
0.000

@<SCITEGIC>MOL_PROPERTY
Tether
SciTegic.value.DoubleValue
0.000

@<TRIPOS>MOLECULE
guest-s22_vm2.mol2 : vm2 ligand conformer 22
          20          19           1
SMALL
USER_CHARGES
 
@<TRIPOS>ATOM
       1    C1      21.101144   18.480925   19.142996 C.2        1 MOL1        -0.2535
       2    H1      22.071256   18.005162   19.009981 H          1 MOL1         0.0845
       3    H2      20.425463   18.488817   18.289263 H          1 MOL1         0.0845
       4    C2      20.756031   19.029789   20.310611 C.2        1 MOL1        -0.1324
       5    H3      21.448205   19.013201   21.152125 H          1 MOL1         0.0833
       6    C3      19.429519   19.712147   20.567968 C.3        1 MOL1        -0.1813
       7    H4      18.961610   19.983234   19.611947 H          1 MOL1         0.0753
       8    H5      19.591700   20.657618   21.100725 H          1 MOL1         0.0753
       9    C4      18.447342   18.814284   21.358293 C.3        1 MOL1        -0.1855
      10    H6      17.488636   19.339934   21.464443 H          1 MOL1         0.0755
      11    H7      18.238059   17.913177   20.765640 H          1 MOL1         0.0755
      12    C5      18.947897   18.384623   22.760139 C.3        1 MOL1        -0.1855
      13    H8      19.870584   17.796099   22.665808 H          1 MOL1         0.0755
      14    H9      18.201973   17.713622   23.208075 H          1 MOL1         0.0755
      15    C6      19.189611   19.574809   23.724325 C.3        1 MOL1        -0.1958
      16    H10     19.995022   20.216638   23.349884 H          1 MOL1         0.0753
      17    H11     18.286736   20.192658   23.797353 H          1 MOL1         0.0753
      18    C7      19.571239   19.125768   25.130205 C.2        1 MOL1         0.6174
      19    O1      20.748814   18.959032   25.379720 O.co2      1 MOL1        -0.6695
      20    O2      18.679403   18.936624   25.933743 O.co2      1 MOL1        -0.6695
@<TRIPOS>BOND
    1     1     2    1
    2     1     3    1
    3     1     4    2
    4     4     5    1
    5     4     6    1
    6     6     7    1
    7     6     8    1
    8     6     9    1
    9     9    10    1
   10     9    11    1
   11     9    12    1
   12    12    13    1
   13    12    14    1
   14    12    15    1
   15    15    16    1
   16    15    17    1
   17    15    18    1
   18    18    19    1
   19    18    20    2
@<TRIPOS>SUBSTRUCTURE
       1 MOL1            1 RESIDUE      1      MOL     
@<SCITEGIC>MOL_PROPERTY
VM2 Rank
SciTegic.value.IntegerValue
22

@<SCITEGIC>MOL_PROPERTY
Conf_Id
SciTegic.value.IntegerValue
304

@<SCITEGIC>MOL_PROPERTY
Probability
SciTegic.value.DoubleValue
1.03

@<SCITEGIC>MOL_PROPERTY
Sum Probability
SciTegic.value.DoubleValue
89.83

@<SCITEGIC>MOL_PROPERTY
Delta G
SciTegic.value.DoubleValue
1.543

@<SCITEGIC>MOL_PROPERTY
G
SciTegic.value.DoubleValue
-20.346

@<SCITEGIC>MOL_PROPERTY
E
SciTegic.value.DoubleValue
-35.613

@<SCITEGIC>MOL_PROPERTY
-TS
SciTegic.value.DoubleValue
15.267

@<SCITEGIC>MOL_PROPERTY
U+W
SciTegic.value.DoubleValue
-51.709

@<SCITEGIC>MOL_PROPERTY
U
SciTegic.value.DoubleValue
8.691

@<SCITEGIC>MOL_PROPERTY
W
SciTegic.value.DoubleValue
-60.400

@<SCITEGIC>MOL_PROPERTY
W(PB)
SciTegic.value.DoubleValue
-62.593

@<SCITEGIC>MOL_PROPERTY
W(SA)
SciTegic.value.DoubleValue
2.193

@<SCITEGIC>MOL_PROPERTY
Valence
SciTegic.value.DoubleValue
9.775

@<SCITEGIC>MOL_PROPERTY
Coulomb
SciTegic.value.DoubleValue
-1.698

@<SCITEGIC>MOL_PROPERTY
VdW
SciTegic.value.DoubleValue
0.614

@<SCITEGIC>MOL_PROPERTY
VdW6
SciTegic.value.DoubleValue
-7.233

@<SCITEGIC>MOL_PROPERTY
VdW12
SciTegic.value.DoubleValue
7.847

@<SCITEGIC>MOL_PROPERTY
Bond
SciTegic.value.DoubleValue
0.151

@<SCITEGIC>MOL_PROPERTY
Angle
SciTegic.value.DoubleValue
2.692

@<SCITEGIC>MOL_PROPERTY
Pdih
SciTegic.value.DoubleValue
6.931

@<SCITEGIC>MOL_PROPERTY
Idih
SciTegic.value.DoubleValue
0.001

@<SCITEGIC>MOL_PROPERTY
Tether
SciTegic.value.DoubleValue
0.000

@<TRIPOS>MOLECULE
guest-s22_vm2.mol2 : vm2 ligand conformer 23
          20          19           1
SMALL
USER_CHARGES
 
@<TRIPOS>ATOM
       1    C1      21.145092   19.264621   19.132794 C.2        1 MOL1        -0.2535
       2    H1      22.162070   19.625466   18.988890 H          1 MOL1         0.0845
       3    H2      20.471495   19.310141   18.278592 H          1 MOL1         0.0845
       4    C2      20.742501   18.788367   20.313804 C.2        1 MOL1        -0.1324
       5    H3      21.433382   18.749519   21.155646 H          1 MOL1         0.0833
       6    C3      19.348387   18.265565   20.586944 C.3        1 MOL1        -0.1813
       7    H4      19.404612   17.322160   21.144506 H          1 MOL1         0.0753
       8    H5      18.851729   18.023560   19.637646 H          1 MOL1         0.0753
       9    C4      18.473892   19.287985   21.352032 C.3        1 MOL1        -0.1855
      10    H6      18.365761   20.190993   20.735661 H          1 MOL1         0.0755
      11    H7      17.462598   18.875748   21.470529 H          1 MOL1         0.0755
      12    C5      19.021419   19.695603   22.742859 C.3        1 MOL1        -0.1855
      13    H8      18.355802   20.457244   23.171985 H          1 MOL1         0.0755
      14    H9      20.003939   20.174680   22.634467 H          1 MOL1         0.0755
      15    C6      19.130098   18.511538   23.738249 C.3        1 MOL1        -0.1958
      16    H10     18.163985   18.000492   23.826068 H          1 MOL1         0.0753
      17    H11     19.858273   17.774204   23.381966 H          1 MOL1         0.0753
      18    C7      19.561482   18.951851   25.132454 C.2        1 MOL1         0.6174
      19    O1      20.750674   18.992808   25.379211 O.co2      1 MOL1        -0.6695
      20    O2      18.697454   19.259664   25.929652 O.co2      1 MOL1        -0.6695
@<TRIPOS>BOND
    1     1     2    1
    2     1     3    1
    3     1     4    2
    4     4     5    1
    5     4     6    1
    6     6     7    1
    7     6     8    1
    8     6     9    1
    9     9    10    1
   10     9    11    1
   11     9    12    1
   12    12    13    1
   13    12    14    1
   14    12    15    1
   15    15    16    1
   16    15    17    1
   17    15    18    1
   18    18    19    1
   19    18    20    2
@<TRIPOS>SUBSTRUCTURE
       1 MOL1            1 RESIDUE      1      MOL     
@<SCITEGIC>MOL_PROPERTY
VM2 Rank
SciTegic.value.IntegerValue
23

@<SCITEGIC>MOL_PROPERTY
Conf_Id
SciTegic.value.IntegerValue
329

@<SCITEGIC>MOL_PROPERTY
Probability
SciTegic.value.DoubleValue
0.98

@<SCITEGIC>MOL_PROPERTY
Sum Probability
SciTegic.value.DoubleValue
90.82

@<SCITEGIC>MOL_PROPERTY
Delta G
SciTegic.value.DoubleValue
1.571

@<SCITEGIC>MOL_PROPERTY
G
SciTegic.value.DoubleValue
-20.319

@<SCITEGIC>MOL_PROPERTY
E
SciTegic.value.DoubleValue
-35.585

@<SCITEGIC>MOL_PROPERTY
-TS
SciTegic.value.DoubleValue
15.267

@<SCITEGIC>MOL_PROPERTY
U+W
SciTegic.value.DoubleValue
-51.682

@<SCITEGIC>MOL_PROPERTY
U
SciTegic.value.DoubleValue
8.691

@<SCITEGIC>MOL_PROPERTY
W
SciTegic.value.DoubleValue
-60.373

@<SCITEGIC>MOL_PROPERTY
W(PB)
SciTegic.value.DoubleValue
-62.541

@<SCITEGIC>MOL_PROPERTY
W(SA)
SciTegic.value.DoubleValue
2.169

@<SCITEGIC>MOL_PROPERTY
Valence
SciTegic.value.DoubleValue
9.775

@<SCITEGIC>MOL_PROPERTY
Coulomb
SciTegic.value.DoubleValue
-1.698

@<SCITEGIC>MOL_PROPERTY
VdW
SciTegic.value.DoubleValue
0.614

@<SCITEGIC>MOL_PROPERTY
VdW6
SciTegic.value.DoubleValue
-7.233

@<SCITEGIC>MOL_PROPERTY
VdW12
SciTegic.value.DoubleValue
7.847

@<SCITEGIC>MOL_PROPERTY
Bond
SciTegic.value.DoubleValue
0.151

@<SCITEGIC>MOL_PROPERTY
Angle
SciTegic.value.DoubleValue
2.692

@<SCITEGIC>MOL_PROPERTY
Pdih
SciTegic.value.DoubleValue
6.931

@<SCITEGIC>MOL_PROPERTY
Idih
SciTegic.value.DoubleValue
0.001

@<SCITEGIC>MOL_PROPERTY
Tether
SciTegic.value.DoubleValue
0.000

@<TRIPOS>MOLECULE
guest-s22_vm2.mol2 : vm2 ligand conformer 24
          20          19           1
SMALL
USER_CHARGES
 
@<TRIPOS>ATOM
       1    C1      20.257505   18.201957   18.303879 C.2        1 MOL1        -0.2535
       2    H1      19.653997   17.308804   18.457655 H          1 MOL1         0.0845
       3    H2      20.905574   18.224153   17.429356 H          1 MOL1         0.0845
       4    C2      20.209622   19.231154   19.153650 C.2        1 MOL1        -0.1324
       5    H3      20.822499   20.115757   18.981842 H          1 MOL1         0.0833
       6    C3      19.334674   19.272393   20.386698 C.3        1 MOL1        -0.1813
       7    H4      18.576158   18.479034   20.341521 H          1 MOL1         0.0753
       8    H5      18.792035   20.226617   20.420521 H          1 MOL1         0.0753
       9    C4      20.173925   19.108380   21.671076 C.3        1 MOL1        -0.1855
      10    H6      20.717830   18.154500   21.630267 H          1 MOL1         0.0755
      11    H7      20.929402   19.904749   21.718102 H          1 MOL1         0.0755
      12    C5      19.295809   19.151105   22.940801 C.3        1 MOL1        -0.1855
      13    H8      18.540232   18.354535   22.894721 H          1 MOL1         0.0755
      14    H9      18.750636   20.104336   22.981547 H          1 MOL1         0.0755
      15    C6      20.140190   18.985386   24.232295 C.3        1 MOL1        -0.1958
      16    H10     20.682092   18.032868   24.201218 H          1 MOL1         0.0753
      17    H11     20.892385   19.780997   24.288101 H          1 MOL1         0.0753
      18    C7      19.346274   19.015923   25.539231 C.2        1 MOL1         0.6174
      19    O1      19.973618   18.890521   26.572116 O.co2      1 MOL1        -0.6695
      20    O2      18.139382   19.161183   25.508254 O.co2      1 MOL1        -0.6695
@<TRIPOS>BOND
    1     1     2    1
    2     1     3    1
    3     1     4    2
    4     4     5    1
    5     4     6    1
    6     6     7    1
    7     6     8    1
    8     6     9    1
    9     9    10    1
   10     9    11    1
   11     9    12    1
   12    12    13    1
   13    12    14    1
   14    12    15    1
   15    15    16    1
   16    15    17    1
   17    15    18    1
   18    18    19    1
   19    18    20    2
@<TRIPOS>SUBSTRUCTURE
       1 MOL1            1 RESIDUE      1      MOL     
@<SCITEGIC>MOL_PROPERTY
VM2 Rank
SciTegic.value.IntegerValue
24

@<SCITEGIC>MOL_PROPERTY
Conf_Id
SciTegic.value.IntegerValue
33

@<SCITEGIC>MOL_PROPERTY
Probability
SciTegic.value.DoubleValue
0.85

@<SCITEGIC>MOL_PROPERTY
Sum Probability
SciTegic.value.DoubleValue
91.66

@<SCITEGIC>MOL_PROPERTY
Delta G
SciTegic.value.DoubleValue
1.658

@<SCITEGIC>MOL_PROPERTY
G
SciTegic.value.DoubleValue
-20.231

@<SCITEGIC>MOL_PROPERTY
E
SciTegic.value.DoubleValue
-35.649

@<SCITEGIC>MOL_PROPERTY
-TS
SciTegic.value.DoubleValue
15.418

@<SCITEGIC>MOL_PROPERTY
U+W
SciTegic.value.DoubleValue
-51.745

@<SCITEGIC>MOL_PROPERTY
U
SciTegic.value.DoubleValue
7.593

@<SCITEGIC>MOL_PROPERTY
W
SciTegic.value.DoubleValue
-59.338

@<SCITEGIC>MOL_PROPERTY
W(PB)
SciTegic.value.DoubleValue
-61.574

@<SCITEGIC>MOL_PROPERTY
W(SA)
SciTegic.value.DoubleValue
2.236

@<SCITEGIC>MOL_PROPERTY
Valence
SciTegic.value.DoubleValue
9.570

@<SCITEGIC>MOL_PROPERTY
Coulomb
SciTegic.value.DoubleValue
-3.091

@<SCITEGIC>MOL_PROPERTY
VdW
SciTegic.value.DoubleValue
1.114

@<SCITEGIC>MOL_PROPERTY
VdW6
SciTegic.value.DoubleValue
-6.064

@<SCITEGIC>MOL_PROPERTY
VdW12
SciTegic.value.DoubleValue
7.178

@<SCITEGIC>MOL_PROPERTY
Bond
SciTegic.value.DoubleValue
0.117

@<SCITEGIC>MOL_PROPERTY
Angle
SciTegic.value.DoubleValue
2.692

@<SCITEGIC>MOL_PROPERTY
Pdih
SciTegic.value.DoubleValue
6.761

@<SCITEGIC>MOL_PROPERTY
Idih
SciTegic.value.DoubleValue
0.000

@<SCITEGIC>MOL_PROPERTY
Tether
SciTegic.value.DoubleValue
0.000

@<TRIPOS>MOLECULE
guest-s22_vm2.mol2 : vm2 ligand conformer 25
          20          19           1
SMALL
USER_CHARGES
 
@<TRIPOS>ATOM
       1    C1      19.096927   17.563900   20.120875 C.2        1 MOL1        -0.2535
       2    H1      18.165641   17.716704   20.663714 H          1 MOL1         0.0845
       3    H2      19.286420   16.569351   19.720955 H          1 MOL1         0.0845
       4    C2      19.977990   18.553983   19.955233 C.2        1 MOL1        -0.1324
       5    H3      20.906011   18.379068   19.411677 H          1 MOL1         0.0833
       6    C3      19.784990   19.959993   20.482163 C.3        1 MOL1        -0.1813
       7    H4      18.749862   20.111032   20.814214 H          1 MOL1         0.0753
       8    H5      19.946324   20.673126   19.662949 H          1 MOL1         0.0753
       9    C4      20.765864   20.297129   21.630829 C.3        1 MOL1        -0.1855
      10    H6      21.794723   20.209125   21.255925 H          1 MOL1         0.0755
      11    H7      20.634307   21.349207   21.918106 H          1 MOL1         0.0755
      12    C5      20.613604   19.404838   22.888021 C.3        1 MOL1        -0.1855
      13    H8      21.402755   19.670583   23.604846 H          1 MOL1         0.0755
      14    H9      20.780110   18.351618   22.623461 H          1 MOL1         0.0755
      15    C6      19.236706   19.550168   23.586494 C.3        1 MOL1        -0.1958
      16    H10     19.036402   20.603870   23.813779 H          1 MOL1         0.0753
      17    H11     18.433307   19.199518   22.928936 H          1 MOL1         0.0753
      18    C7      19.149218   18.761809   24.888378 C.2        1 MOL1         0.6174
      19    O1      19.532262   19.297962   25.909557 O.co2      1 MOL1        -0.6695
      20    O2      18.713439   17.628219   24.846450 O.co2      1 MOL1        -0.6695
@<TRIPOS>BOND
    1     1     2    1
    2     1     3    1
    3     1     4    2
    4     4     5    1
    5     4     6    1
    6     6     7    1
    7     6     8    1
    8     6     9    1
    9     9    10    1
   10     9    11    1
   11     9    12    1
   12    12    13    1
   13    12    14    1
   14    12    15    1
   15    15    16    1
   16    15    17    1
   17    15    18    1
   18    18    19    1
   19    18    20    2
@<TRIPOS>SUBSTRUCTURE
       1 MOL1            1 RESIDUE      1      MOL     
@<SCITEGIC>MOL_PROPERTY
VM2 Rank
SciTegic.value.IntegerValue
25

@<SCITEGIC>MOL_PROPERTY
Conf_Id
SciTegic.value.IntegerValue
573

@<SCITEGIC>MOL_PROPERTY
Probability
SciTegic.value.DoubleValue
0.69

@<SCITEGIC>MOL_PROPERTY
Sum Probability
SciTegic.value.DoubleValue
92.35

@<SCITEGIC>MOL_PROPERTY
Delta G
SciTegic.value.DoubleValue
1.781

@<SCITEGIC>MOL_PROPERTY
G
SciTegic.value.DoubleValue
-20.108

@<SCITEGIC>MOL_PROPERTY
E
SciTegic.value.DoubleValue
-35.462

@<SCITEGIC>MOL_PROPERTY
-TS
SciTegic.value.DoubleValue
15.354

@<SCITEGIC>MOL_PROPERTY
U+W
SciTegic.value.DoubleValue
-51.559

@<SCITEGIC>MOL_PROPERTY
U
SciTegic.value.DoubleValue
9.796

@<SCITEGIC>MOL_PROPERTY
W
SciTegic.value.DoubleValue
-61.354

@<SCITEGIC>MOL_PROPERTY
W(PB)
SciTegic.value.DoubleValue
-63.514

@<SCITEGIC>MOL_PROPERTY
W(SA)
SciTegic.value.DoubleValue
2.160

@<SCITEGIC>MOL_PROPERTY
Valence
SciTegic.value.DoubleValue
9.746

@<SCITEGIC>MOL_PROPERTY
Coulomb
SciTegic.value.DoubleValue
-0.310

@<SCITEGIC>MOL_PROPERTY
VdW
SciTegic.value.DoubleValue
0.360

@<SCITEGIC>MOL_PROPERTY
VdW6
SciTegic.value.DoubleValue
-7.584

@<SCITEGIC>MOL_PROPERTY
VdW12
SciTegic.value.DoubleValue
7.944

@<SCITEGIC>MOL_PROPERTY
Bond
SciTegic.value.DoubleValue
0.150

@<SCITEGIC>MOL_PROPERTY
Angle
SciTegic.value.DoubleValue
2.663

@<SCITEGIC>MOL_PROPERTY
Pdih
SciTegic.value.DoubleValue
6.933

@<SCITEGIC>MOL_PROPERTY
Idih
SciTegic.value.DoubleValue
0.000

@<SCITEGIC>MOL_PROPERTY
Tether
SciTegic.value.DoubleValue
0.000

@<TRIPOS>MOLECULE
guest-s22_vm2.mol2 : vm2 ligand conformer 26
          20          19           1
SMALL
USER_CHARGES
 
@<TRIPOS>ATOM
       1    C1      19.009105   17.619941   20.110961 C.2        1 MOL1        -0.2535
       2    H1      19.436723   16.905167   20.812075 H          1 MOL1         0.0845
       3    H2      18.103868   17.324312   19.583589 H          1 MOL1         0.0845
       4    C2      19.567142   18.816247   19.907444 C.2        1 MOL1        -0.1324
       5    H3      19.121101   19.518589   19.203858 H          1 MOL1         0.0833
       6    C3      20.822703   19.297439   20.602994 C.3        1 MOL1        -0.1813
       7    H4      21.531987   19.660655   19.847555 H          1 MOL1         0.0753
       8    H5      21.325554   18.466546   21.114184 H          1 MOL1         0.0753
       9    C4      20.537944   20.442724   21.604217 C.3        1 MOL1        -0.1855
      10    H6      21.489735   20.803104   22.017645 H          1 MOL1         0.0755
      11    H7      20.101342   21.290392   21.058610 H          1 MOL1         0.0755
      12    C5      19.592180   20.057125   22.769011 C.3        1 MOL1        -0.1855
      13    H8      18.621381   19.730128   22.372009 H          1 MOL1         0.0755
      14    H9      19.392187   20.954482   23.370652 H          1 MOL1         0.0755
      15    C6      20.168929   18.954955   23.694980 C.3        1 MOL1        -0.1958
      16    H10     20.288744   18.014817   23.144913 H          1 MOL1         0.0753
      17    H11     21.160018   19.247905   24.061029 H          1 MOL1         0.0753
      18    C7      19.282826   18.676504   24.903846 C.2        1 MOL1         0.6174
      19    O1      19.441282   19.356026   25.898899 O.co2      1 MOL1        -0.6695
      20    O2      18.448889   17.797040   24.815647 O.co2      1 MOL1        -0.6695
@<TRIPOS>BOND
    1     1     2    1
    2     1     3    1
    3     1     4    2
    4     4     5    1
    5     4     6    1
    6     6     7    1
    7     6     8    1
    8     6     9    1
    9     9    10    1
   10     9    11    1
   11     9    12    1
   12    12    13    1
   13    12    14    1
   14    12    15    1
   15    15    16    1
   16    15    17    1
   17    15    18    1
   18    18    19    1
   19    18    20    2
@<TRIPOS>SUBSTRUCTURE
       1 MOL1            1 RESIDUE      1      MOL     
@<SCITEGIC>MOL_PROPERTY
VM2 Rank
SciTegic.value.IntegerValue
26

@<SCITEGIC>MOL_PROPERTY
Conf_Id
SciTegic.value.IntegerValue
161

@<SCITEGIC>MOL_PROPERTY
Probability
SciTegic.value.DoubleValue
0.65

@<SCITEGIC>MOL_PROPERTY
Sum Probability
SciTegic.value.DoubleValue
93.00

@<SCITEGIC>MOL_PROPERTY
Delta G
SciTegic.value.DoubleValue
1.814

@<SCITEGIC>MOL_PROPERTY
G
SciTegic.value.DoubleValue
-20.076

@<SCITEGIC>MOL_PROPERTY
E
SciTegic.value.DoubleValue
-35.430

@<SCITEGIC>MOL_PROPERTY
-TS
SciTegic.value.DoubleValue
15.354

@<SCITEGIC>MOL_PROPERTY
U+W
SciTegic.value.DoubleValue
-51.527

@<SCITEGIC>MOL_PROPERTY
U
SciTegic.value.DoubleValue
9.796

@<SCITEGIC>MOL_PROPERTY
W
SciTegic.value.DoubleValue
-61.322

@<SCITEGIC>MOL_PROPERTY
W(PB)
SciTegic.value.DoubleValue
-63.481

@<SCITEGIC>MOL_PROPERTY
W(SA)
SciTegic.value.DoubleValue
2.159

@<SCITEGIC>MOL_PROPERTY
Valence
SciTegic.value.DoubleValue
9.746

@<SCITEGIC>MOL_PROPERTY
Coulomb
SciTegic.value.DoubleValue
-0.310

@<SCITEGIC>MOL_PROPERTY
VdW
SciTegic.value.DoubleValue
0.360

@<SCITEGIC>MOL_PROPERTY
VdW6
SciTegic.value.DoubleValue
-7.585

@<SCITEGIC>MOL_PROPERTY
VdW12
SciTegic.value.DoubleValue
7.944

@<SCITEGIC>MOL_PROPERTY
Bond
SciTegic.value.DoubleValue
0.150

@<SCITEGIC>MOL_PROPERTY
Angle
SciTegic.value.DoubleValue
2.663

@<SCITEGIC>MOL_PROPERTY
Pdih
SciTegic.value.DoubleValue
6.933

@<SCITEGIC>MOL_PROPERTY
Idih
SciTegic.value.DoubleValue
0.000

@<SCITEGIC>MOL_PROPERTY
Tether
SciTegic.value.DoubleValue
0.000

@<TRIPOS>MOLECULE
guest-s22_vm2.mol2 : vm2 ligand conformer 27
          20          19           1
SMALL
USER_CHARGES
 
@<TRIPOS>ATOM
       1    C1      20.271975   17.571124   19.444738 C.2        1 MOL1        -0.2535
       2    H1      19.735336   16.719527   19.030033 H          1 MOL1         0.0845
       3    H2      21.360027   17.535574   19.425509 H          1 MOL1         0.0845
       4    C2      19.617313   18.615296   19.959342 C.2        1 MOL1        -0.1324
       5    H3      18.527848   18.631575   19.966181 H          1 MOL1         0.0833
       6    C3      20.295125   19.834705   20.547047 C.3        1 MOL1        -0.1813
       7    H4      19.799057   20.747003   20.189802 H          1 MOL1         0.0753
       8    H5      21.332763   19.889554   20.190933 H          1 MOL1         0.0753
       9    C4      20.302532   19.815833   22.092288 C.3        1 MOL1        -0.1855
      10    H6      20.790005   18.895160   22.442045 H          1 MOL1         0.0755
      11    H7      20.916922   20.651637   22.453816 H          1 MOL1         0.0755
      12    C5      18.884915   19.927114   22.701969 C.3        1 MOL1        -0.1855
      13    H8      18.274444   19.067044   22.394688 H          1 MOL1         0.0755
      14    H9      18.389865   20.824385   22.306823 H          1 MOL1         0.0755
      15    C6      18.907950   20.005852   24.250555 C.3        1 MOL1        -0.1958
      16    H10     19.532710   20.845408   24.578554 H          1 MOL1         0.0753
      17    H11     17.895034   20.199803   24.622565 H          1 MOL1         0.0753
      18    C7      19.407818   18.733237   24.928360 C.2        1 MOL1         0.6174
      19    O1      20.537758   18.724917   25.375898 O.co2      1 MOL1        -0.6695
      20    O2      18.645616   17.789923   25.007804 O.co2      1 MOL1        -0.6695
@<TRIPOS>BOND
    1     1     2    1
    2     1     3    1
    3     1     4    2
    4     4     5    1
    5     4     6    1
    6     6     7    1
    7     6     8    1
    8     6     9    1
    9     9    10    1
   10     9    11    1
   11     9    12    1
   12    12    13    1
   13    12    14    1
   14    12    15    1
   15    15    16    1
   16    15    17    1
   17    15    18    1
   18    18    19    1
   19    18    20    2
@<TRIPOS>SUBSTRUCTURE
       1 MOL1            1 RESIDUE      1      MOL     
@<SCITEGIC>MOL_PROPERTY
VM2 Rank
SciTegic.value.IntegerValue
27

@<SCITEGIC>MOL_PROPERTY
Conf_Id
SciTegic.value.IntegerValue
164

@<SCITEGIC>MOL_PROPERTY
Probability
SciTegic.value.DoubleValue
0.55

@<SCITEGIC>MOL_PROPERTY
Sum Probability
SciTegic.value.DoubleValue
93.55

@<SCITEGIC>MOL_PROPERTY
Delta G
SciTegic.value.DoubleValue
1.918

@<SCITEGIC>MOL_PROPERTY
G
SciTegic.value.DoubleValue
-19.972

@<SCITEGIC>MOL_PROPERTY
E
SciTegic.value.DoubleValue
-35.340

@<SCITEGIC>MOL_PROPERTY
-TS
SciTegic.value.DoubleValue
15.368

@<SCITEGIC>MOL_PROPERTY
U+W
SciTegic.value.DoubleValue
-51.436

@<SCITEGIC>MOL_PROPERTY
U
SciTegic.value.DoubleValue
10.461

@<SCITEGIC>MOL_PROPERTY
W
SciTegic.value.DoubleValue
-61.897

@<SCITEGIC>MOL_PROPERTY
W(PB)
SciTegic.value.DoubleValue
-64.077

@<SCITEGIC>MOL_PROPERTY
W(SA)
SciTegic.value.DoubleValue
2.180

@<SCITEGIC>MOL_PROPERTY
Valence
SciTegic.value.DoubleValue
9.555

@<SCITEGIC>MOL_PROPERTY
Coulomb
SciTegic.value.DoubleValue
0.483

@<SCITEGIC>MOL_PROPERTY
VdW
SciTegic.value.DoubleValue
0.423

@<SCITEGIC>MOL_PROPERTY
VdW6
SciTegic.value.DoubleValue
-7.224

@<SCITEGIC>MOL_PROPERTY
VdW12
SciTegic.value.DoubleValue
7.647

@<SCITEGIC>MOL_PROPERTY
Bond
SciTegic.value.DoubleValue
0.126

@<SCITEGIC>MOL_PROPERTY
Angle
SciTegic.value.DoubleValue
2.492

@<SCITEGIC>MOL_PROPERTY
Pdih
SciTegic.value.DoubleValue
6.936

@<SCITEGIC>MOL_PROPERTY
Idih
SciTegic.value.DoubleValue
0.001

@<SCITEGIC>MOL_PROPERTY
Tether
SciTegic.value.DoubleValue
0.000

@<TRIPOS>MOLECULE
guest-s22_vm2.mol2 : vm2 ligand conformer 28
          20          19           1
SMALL
USER_CHARGES
 
@<TRIPOS>ATOM
       1    C1      20.732038   18.610732   18.783670 C.2        1 MOL1        -0.2535
       2    H1      21.614686   19.248244   18.779176 H          1 MOL1         0.0845
       3    H2      20.693134   17.803512   18.054239 H          1 MOL1         0.0845
       4    C2      19.735107   18.806192   19.650616 C.2        1 MOL1        -0.1324
       5    H3      18.859071   18.158435   19.635698 H          1 MOL1         0.0833
       6    C3      19.717034   19.910112   20.686417 C.3        1 MOL1        -0.1813
       7    H4      18.725039   20.380392   20.715204 H          1 MOL1         0.0753
       8    H5      20.423194   20.700222   20.397288 H          1 MOL1         0.0753
       9    C4      20.094035   19.401566   22.096189 C.3        1 MOL1        -0.1855
      10    H6      21.079109   18.916458   22.058290 H          1 MOL1         0.0755
      11    H7      20.197088   20.266552   22.765637 H          1 MOL1         0.0755
      12    C5      19.049481   18.421751   22.681831 C.3        1 MOL1        -0.1855
      13    H8      18.959960   17.546048   22.025612 H          1 MOL1         0.0755
      14    H9      18.061249   18.901589   22.706126 H          1 MOL1         0.0755
      15    C6      19.420727   17.937770   24.107706 C.3        1 MOL1        -0.1958
      16    H10     18.719796   17.156022   24.423179 H          1 MOL1         0.0753
      17    H11     20.420231   17.486305   24.106062 H          1 MOL1         0.0753
      18    C7      19.383972   19.036906   25.165717 C.2        1 MOL1         0.6174
      19    O1      20.439768   19.484459   25.568258 O.co2      1 MOL1        -0.6695
      20    O2      18.298837   19.408511   25.567594 O.co2      1 MOL1        -0.6695
@<TRIPOS>BOND
    1     1     2    1
    2     1     3    1
    3     1     4    2
    4     4     5    1
    5     4     6    1
    6     6     7    1
    7     6     8    1
    8     6     9    1
    9     9    10    1
   10     9    11    1
   11     9    12    1
   12    12    13    1
   13    12    14    1
   14    12    15    1
   15    15    16    1
   16    15    17    1
   17    15    18    1
   18    18    19    1
   19    18    20    2
@<TRIPOS>SUBSTRUCTURE
       1 MOL1            1 RESIDUE      1      MOL     
@<SCITEGIC>MOL_PROPERTY
VM2 Rank
SciTegic.value.IntegerValue
28

@<SCITEGIC>MOL_PROPERTY
Conf_Id
SciTegic.value.IntegerValue
144

@<SCITEGIC>MOL_PROPERTY
Probability
SciTegic.value.DoubleValue
0.54

@<SCITEGIC>MOL_PROPERTY
Sum Probability
SciTegic.value.DoubleValue
94.10

@<SCITEGIC>MOL_PROPERTY
Delta G
SciTegic.value.DoubleValue
1.923

@<SCITEGIC>MOL_PROPERTY
G
SciTegic.value.DoubleValue
-19.966

@<SCITEGIC>MOL_PROPERTY
E
SciTegic.value.DoubleValue
-35.310

@<SCITEGIC>MOL_PROPERTY
-TS
SciTegic.value.DoubleValue
15.344

@<SCITEGIC>MOL_PROPERTY
U+W
SciTegic.value.DoubleValue
-51.406

@<SCITEGIC>MOL_PROPERTY
U
SciTegic.value.DoubleValue
9.191

@<SCITEGIC>MOL_PROPERTY
W
SciTegic.value.DoubleValue
-60.597

@<SCITEGIC>MOL_PROPERTY
W(PB)
SciTegic.value.DoubleValue
-62.798

@<SCITEGIC>MOL_PROPERTY
W(SA)
SciTegic.value.DoubleValue
2.201

@<SCITEGIC>MOL_PROPERTY
Valence
SciTegic.value.DoubleValue
9.572

@<SCITEGIC>MOL_PROPERTY
Coulomb
SciTegic.value.DoubleValue
-0.885

@<SCITEGIC>MOL_PROPERTY
VdW
SciTegic.value.DoubleValue
0.504

@<SCITEGIC>MOL_PROPERTY
VdW6
SciTegic.value.DoubleValue
-7.168

@<SCITEGIC>MOL_PROPERTY
VdW12
SciTegic.value.DoubleValue
7.672

@<SCITEGIC>MOL_PROPERTY
Bond
SciTegic.value.DoubleValue
0.127

@<SCITEGIC>MOL_PROPERTY
Angle
SciTegic.value.DoubleValue
2.504

@<SCITEGIC>MOL_PROPERTY
Pdih
SciTegic.value.DoubleValue
6.941

@<SCITEGIC>MOL_PROPERTY
Idih
SciTegic.value.DoubleValue
0.001

@<SCITEGIC>MOL_PROPERTY
Tether
SciTegic.value.DoubleValue
0.000

@<TRIPOS>MOLECULE
guest-s22_vm2.mol2 : vm2 ligand conformer 29
          20          19           1
SMALL
USER_CHARGES
 
@<TRIPOS>ATOM
       1    C1      20.690894   17.697628   19.498449 C.2        1 MOL1        -0.2535
       2    H1      19.838191   17.076579   19.228847 H          1 MOL1         0.0845
       3    H2      21.683698   17.307536   19.280856 H          1 MOL1         0.0845
       4    C2      20.529654   18.890546   20.076934 C.2        1 MOL1        -0.1324
       5    H3      21.396884   19.497172   20.336089 H          1 MOL1         0.0833
       6    C3      19.182473   19.498970   20.403596 C.3        1 MOL1        -0.1813
       7    H4      18.399540   19.004549   19.812762 H          1 MOL1         0.0753
       8    H5      19.168275   20.556666   20.108512 H          1 MOL1         0.0753
       9    C4      18.827092   19.370595   21.902065 C.3        1 MOL1        -0.1855
      10    H6      17.792663   19.708980   22.051049 H          1 MOL1         0.0755
      11    H7      18.854456   18.311104   22.192460 H          1 MOL1         0.0755
      12    C5      19.766674   20.192936   22.815672 C.3        1 MOL1        -0.1855
      13    H8      19.768869   21.240160   22.484572 H          1 MOL1         0.0755
      14    H9      20.798505   19.828208   22.720216 H          1 MOL1         0.0755
      15    C6      19.344616   20.137548   24.306864 C.3        1 MOL1        -0.1958
      16    H10     19.968600   20.825066   24.889933 H          1 MOL1         0.0753
      17    H11     18.307690   20.476106   24.420548 H          1 MOL1         0.0753
      18    C7      19.476843   18.754126   24.937338 C.2        1 MOL1         0.6174
      19    O1      20.586132   18.375070   25.258117 O.co2      1 MOL1        -0.6695
      20    O2      18.466623   18.100580   25.108966 O.co2      1 MOL1        -0.6695
@<TRIPOS>BOND
    1     1     2    1
    2     1     3    1
    3     1     4    2
    4     4     5    1
    5     4     6    1
    6     6     7    1
    7     6     8    1
    8     6     9    1
    9     9    10    1
   10     9    11    1
   11     9    12    1
   12    12    13    1
   13    12    14    1
   14    12    15    1
   15    15    16    1
   16    15    17    1
   17    15    18    1
   18    18    19    1
   19    18    20    2
@<TRIPOS>SUBSTRUCTURE
       1 MOL1            1 RESIDUE      1      MOL     
@<SCITEGIC>MOL_PROPERTY
VM2 Rank
SciTegic.value.IntegerValue
29

@<SCITEGIC>MOL_PROPERTY
Conf_Id
SciTegic.value.IntegerValue
344

@<SCITEGIC>MOL_PROPERTY
Probability
SciTegic.value.DoubleValue
0.52

@<SCITEGIC>MOL_PROPERTY
Sum Probability
SciTegic.value.DoubleValue
94.62

@<SCITEGIC>MOL_PROPERTY
Delta G
SciTegic.value.DoubleValue
1.948

@<SCITEGIC>MOL_PROPERTY
G
SciTegic.value.DoubleValue
-19.942

@<SCITEGIC>MOL_PROPERTY
E
SciTegic.value.DoubleValue
-35.310

@<SCITEGIC>MOL_PROPERTY
-TS
SciTegic.value.DoubleValue
15.369

@<SCITEGIC>MOL_PROPERTY
U+W
SciTegic.value.DoubleValue
-51.407

@<SCITEGIC>MOL_PROPERTY
U
SciTegic.value.DoubleValue
10.460

@<SCITEGIC>MOL_PROPERTY
W
SciTegic.value.DoubleValue
-61.867

@<SCITEGIC>MOL_PROPERTY
W(PB)
SciTegic.value.DoubleValue
-64.045

@<SCITEGIC>MOL_PROPERTY
W(SA)
SciTegic.value.DoubleValue
2.178

@<SCITEGIC>MOL_PROPERTY
Valence
SciTegic.value.DoubleValue
9.554

@<SCITEGIC>MOL_PROPERTY
Coulomb
SciTegic.value.DoubleValue
0.483

@<SCITEGIC>MOL_PROPERTY
VdW
SciTegic.value.DoubleValue
0.423

@<SCITEGIC>MOL_PROPERTY
VdW6
SciTegic.value.DoubleValue
-7.224

@<SCITEGIC>MOL_PROPERTY
VdW12
SciTegic.value.DoubleValue
7.647

@<SCITEGIC>MOL_PROPERTY
Bond
SciTegic.value.DoubleValue
0.126

@<SCITEGIC>MOL_PROPERTY
Angle
SciTegic.value.DoubleValue
2.492

@<SCITEGIC>MOL_PROPERTY
Pdih
SciTegic.value.DoubleValue
6.936

@<SCITEGIC>MOL_PROPERTY
Idih
SciTegic.value.DoubleValue
0.001

@<SCITEGIC>MOL_PROPERTY
Tether
SciTegic.value.DoubleValue
0.000

@<TRIPOS>MOLECULE
guest-s22_vm2.mol2 : vm2 ligand conformer 30
          20          19           1
SMALL
USER_CHARGES
 
@<TRIPOS>ATOM
       1    C1      19.907723   18.362307   18.677310 C.2        1 MOL1        -0.2535
       2    H1      20.548379   17.759928   18.035524 H          1 MOL1         0.0845
       3    H2      18.850459   18.415161   18.422537 H          1 MOL1         0.0845
       4    C2      20.402777   19.007380   19.736779 C.2        1 MOL1        -0.1324
       5    H3      21.464830   18.943805   19.971838 H          1 MOL1         0.0833
       6    C3      19.575203   19.867365   20.668120 C.3        1 MOL1        -0.1813
       7    H4      18.643424   20.163821   20.167685 H          1 MOL1         0.0753
       8    H5      20.112009   20.798397   20.894095 H          1 MOL1         0.0753
       9    C4      19.219739   19.138110   21.983429 C.3        1 MOL1        -0.1855
      10    H6      18.509995   19.758168   22.548030 H          1 MOL1         0.0755
      11    H7      18.698657   18.199112   21.751279 H          1 MOL1         0.0755
      12    C5      20.458429   18.846378   22.863572 C.3        1 MOL1        -0.1855
      13    H8      20.988071   19.783652   23.083648 H          1 MOL1         0.0755
      14    H9      21.160036   18.209095   22.309395 H          1 MOL1         0.0755
      15    C6      20.090496   18.139627   24.194102 C.3        1 MOL1        -0.1958
      16    H10     19.531086   17.218329   23.991367 H          1 MOL1         0.0753
      17    H11     21.007381   17.845466   24.718266 H          1 MOL1         0.0753
      18    C7      19.275412   19.004186   25.151706 C.2        1 MOL1         0.6174
      19    O1      19.854035   19.877304   25.768127 O.co2      1 MOL1        -0.6695
      20    O2      18.087187   18.775343   25.264855 O.co2      1 MOL1        -0.6695
@<TRIPOS>BOND
    1     1     2    1
    2     1     3    1
    3     1     4    2
    4     4     5    1
    5     4     6    1
    6     6     7    1
    7     6     8    1
    8     6     9    1
    9     9    10    1
   10     9    11    1
   11     9    12    1
   12    12    13    1
   13    12    14    1
   14    12    15    1
   15    15    16    1
   16    15    17    1
   17    15    18    1
   18    18    19    1
   19    18    20    2
@<TRIPOS>SUBSTRUCTURE
       1 MOL1            1 RESIDUE      1      MOL     
@<SCITEGIC>MOL_PROPERTY
VM2 Rank
SciTegic.value.IntegerValue
30

@<SCITEGIC>MOL_PROPERTY
Conf_Id
SciTegic.value.IntegerValue
106

@<SCITEGIC>MOL_PROPERTY
Probability
SciTegic.value.DoubleValue
0.49

@<SCITEGIC>MOL_PROPERTY
Sum Probability
SciTegic.value.DoubleValue
95.11

@<SCITEGIC>MOL_PROPERTY
Delta G
SciTegic.value.DoubleValue
1.984

@<SCITEGIC>MOL_PROPERTY
G
SciTegic.value.DoubleValue
-19.906

@<SCITEGIC>MOL_PROPERTY
E
SciTegic.value.DoubleValue
-35.249

@<SCITEGIC>MOL_PROPERTY
-TS
SciTegic.value.DoubleValue
15.343

@<SCITEGIC>MOL_PROPERTY
U+W
SciTegic.value.DoubleValue
-51.345

@<SCITEGIC>MOL_PROPERTY
U
SciTegic.value.DoubleValue
9.191

@<SCITEGIC>MOL_PROPERTY
W
SciTegic.value.DoubleValue
-60.536

@<SCITEGIC>MOL_PROPERTY
W(PB)
SciTegic.value.DoubleValue
-62.743

@<SCITEGIC>MOL_PROPERTY
W(SA)
SciTegic.value.DoubleValue
2.206

@<SCITEGIC>MOL_PROPERTY
Valence
SciTegic.value.DoubleValue
9.572

@<SCITEGIC>MOL_PROPERTY
Coulomb
SciTegic.value.DoubleValue
-0.885

@<SCITEGIC>MOL_PROPERTY
VdW
SciTegic.value.DoubleValue
0.504

@<SCITEGIC>MOL_PROPERTY
VdW6
SciTegic.value.DoubleValue
-7.168

@<SCITEGIC>MOL_PROPERTY
VdW12
SciTegic.value.DoubleValue
7.672

@<SCITEGIC>MOL_PROPERTY
Bond
SciTegic.value.DoubleValue
0.127

@<SCITEGIC>MOL_PROPERTY
Angle
SciTegic.value.DoubleValue
2.504

@<SCITEGIC>MOL_PROPERTY
Pdih
SciTegic.value.DoubleValue
6.941

@<SCITEGIC>MOL_PROPERTY
Idih
SciTegic.value.DoubleValue
0.001

@<SCITEGIC>MOL_PROPERTY
Tether
SciTegic.value.DoubleValue
0.000

@<TRIPOS>MOLECULE
guest-s22_vm2.mol2 : vm2 ligand conformer 31
          20          19           1
SMALL
USER_CHARGES
 
@<TRIPOS>ATOM
       1    C1      21.012484   18.030334   19.911908 C.2        1 MOL1        -0.2535
       2    H1      20.261115   17.256927   20.054980 H          1 MOL1         0.0845
       3    H2      22.005339   17.703724   19.607773 H          1 MOL1         0.0845
       4    C2      20.743461   19.328057   20.091965 C.2        1 MOL1        -0.1324
       5    H3      21.533572   20.061249   19.932293 H          1 MOL1         0.0833
       6    C3      19.412336   19.925166   20.518762 C.3        1 MOL1        -0.1813
       7    H4      18.902995   20.317129   19.628526 H          1 MOL1         0.0753
       8    H5      19.602604   20.806754   21.143462 H          1 MOL1         0.0753
       9    C4      18.451768   18.970142   21.274771 C.3        1 MOL1        -0.1855
      10    H6      17.499470   19.490796   21.444109 H          1 MOL1         0.0755
      11    H7      18.210078   18.112881   20.632757 H          1 MOL1         0.0755
      12    C5      18.986415   18.458041   22.636610 C.3        1 MOL1        -0.1855
      13    H8      19.930006   17.914928   22.494265 H          1 MOL1         0.0755
      14    H9      18.270717   17.729383   23.041595 H          1 MOL1         0.0755
      15    C6      19.195416   19.583207   23.683147 C.3        1 MOL1        -0.1958
      16    H10     19.981591   20.272474   23.354996 H          1 MOL1         0.0753
      17    H11     18.275451   20.168151   23.800006 H          1 MOL1         0.0753
      18    C7      19.590855   19.046975   25.054397 C.2        1 MOL1         0.6174
      19    O1      20.773773   18.930402   25.307115 O.co2      1 MOL1        -0.6695
      20    O2      18.704491   18.745676   25.829325 O.co2      1 MOL1        -0.6695
@<TRIPOS>BOND
    1     1     2    1
    2     1     3    1
    3     1     4    2
    4     4     5    1
    5     4     6    1
    6     6     7    1
    7     6     8    1
    8     6     9    1
    9     9    10    1
   10     9    11    1
   11     9    12    1
   12    12    13    1
   13    12    14    1
   14    12    15    1
   15    15    16    1
   16    15    17    1
   17    15    18    1
   18    18    19    1
   19    18    20    2
@<TRIPOS>SUBSTRUCTURE
       1 MOL1            1 RESIDUE      1      MOL     
@<SCITEGIC>MOL_PROPERTY
VM2 Rank
SciTegic.value.IntegerValue
31

@<SCITEGIC>MOL_PROPERTY
Conf_Id
SciTegic.value.IntegerValue
301

@<SCITEGIC>MOL_PROPERTY
Probability
SciTegic.value.DoubleValue
0.44

@<SCITEGIC>MOL_PROPERTY
Sum Probability
SciTegic.value.DoubleValue
95.55

@<SCITEGIC>MOL_PROPERTY
Delta G
SciTegic.value.DoubleValue
2.045

@<SCITEGIC>MOL_PROPERTY
G
SciTegic.value.DoubleValue
-19.845

@<SCITEGIC>MOL_PROPERTY
E
SciTegic.value.DoubleValue
-35.289

@<SCITEGIC>MOL_PROPERTY
-TS
SciTegic.value.DoubleValue
15.445

@<SCITEGIC>MOL_PROPERTY
U+W
SciTegic.value.DoubleValue
-51.386

@<SCITEGIC>MOL_PROPERTY
U
SciTegic.value.DoubleValue
10.000

@<SCITEGIC>MOL_PROPERTY
W
SciTegic.value.DoubleValue
-61.386

@<SCITEGIC>MOL_PROPERTY
W(PB)
SciTegic.value.DoubleValue
-63.553

@<SCITEGIC>MOL_PROPERTY
W(SA)
SciTegic.value.DoubleValue
2.168

@<SCITEGIC>MOL_PROPERTY
Valence
SciTegic.value.DoubleValue
9.399

@<SCITEGIC>MOL_PROPERTY
Coulomb
SciTegic.value.DoubleValue
-0.503

@<SCITEGIC>MOL_PROPERTY
VdW
SciTegic.value.DoubleValue
1.105

@<SCITEGIC>MOL_PROPERTY
VdW6
SciTegic.value.DoubleValue
-7.975

@<SCITEGIC>MOL_PROPERTY
VdW12
SciTegic.value.DoubleValue
9.080

@<SCITEGIC>MOL_PROPERTY
Bond
SciTegic.value.DoubleValue
0.216

@<SCITEGIC>MOL_PROPERTY
Angle
SciTegic.value.DoubleValue
3.417

@<SCITEGIC>MOL_PROPERTY
Pdih
SciTegic.value.DoubleValue
5.765

@<SCITEGIC>MOL_PROPERTY
Idih
SciTegic.value.DoubleValue
0.001

@<SCITEGIC>MOL_PROPERTY
Tether
SciTegic.value.DoubleValue
0.000

@<TRIPOS>MOLECULE
guest-s22_vm2.mol2 : vm2 ligand conformer 32
          20          19           1
SMALL
USER_CHARGES
 
@<TRIPOS>ATOM
       1    C1      21.224778   19.658838   19.932017 C.2        1 MOL1        -0.2535
       2    H1      20.696046   20.595295   20.095338 H          1 MOL1         0.0845
       3    H2      22.269193   19.727330   19.632950 H          1 MOL1         0.0845
       4    C2      20.631705   18.469441   20.081937 C.2        1 MOL1        -0.1324
       5    H3      21.208230   17.562303   19.902882 H          1 MOL1         0.0833
       6    C3      19.190599   18.223328   20.498138 C.3        1 MOL1        -0.1813
       7    H4      19.146532   17.307773   21.101021 H          1 MOL1         0.0753
       8    H5      18.600824   17.996314   19.600244 H          1 MOL1         0.0753
       9    C4      18.504260   19.374271   21.279541 C.3        1 MOL1        -0.1855
      10    H6      18.492224   20.279842   20.658824 H          1 MOL1         0.0755
      11    H7      17.449848   19.110993   21.439324 H          1 MOL1         0.0755
      12    C5      19.147889   19.699889   22.651554 C.3        1 MOL1        -0.1855
      13    H8      18.641196   20.577541   23.076018 H          1 MOL1         0.0755
      14    H9      20.199471   19.986732   22.519289 H          1 MOL1         0.0755
      15    C6      19.058794   18.534075   23.670303 C.3        1 MOL1        -0.1958
      16    H10     18.019409   18.201456   23.776112 H          1 MOL1         0.0753
      17    H11     19.643367   17.674586   23.323321 H          1 MOL1         0.0753
      18    C7      19.574183   18.918385   25.052664 C.2        1 MOL1         0.6174
      19    O1      20.746871   18.722660   25.304154 O.co2      1 MOL1        -0.6695
      20    O2      18.791921   19.417112   25.837692 O.co2      1 MOL1        -0.6695
@<TRIPOS>BOND
    1     1     2    1
    2     1     3    1
    3     1     4    2
    4     4     5    1
    5     4     6    1
    6     6     7    1
    7     6     8    1
    8     6     9    1
    9     9    10    1
   10     9    11    1
   11     9    12    1
   12    12    13    1
   13    12    14    1
   14    12    15    1
   15    15    16    1
   16    15    17    1
   17    15    18    1
   18    18    19    1
   19    18    20    2
@<TRIPOS>SUBSTRUCTURE
       1 MOL1            1 RESIDUE      1      MOL     
@<SCITEGIC>MOL_PROPERTY
VM2 Rank
SciTegic.value.IntegerValue
32

@<SCITEGIC>MOL_PROPERTY
Conf_Id
SciTegic.value.IntegerValue
676

@<SCITEGIC>MOL_PROPERTY
Probability
SciTegic.value.DoubleValue
0.44

@<SCITEGIC>MOL_PROPERTY
Sum Probability
SciTegic.value.DoubleValue
95.99

@<SCITEGIC>MOL_PROPERTY
Delta G
SciTegic.value.DoubleValue
2.049

@<SCITEGIC>MOL_PROPERTY
G
SciTegic.value.DoubleValue
-19.840

@<SCITEGIC>MOL_PROPERTY
E
SciTegic.value.DoubleValue
-35.285

@<SCITEGIC>MOL_PROPERTY
-TS
SciTegic.value.DoubleValue
15.445

@<SCITEGIC>MOL_PROPERTY
U+W
SciTegic.value.DoubleValue
-51.381

@<SCITEGIC>MOL_PROPERTY
U
SciTegic.value.DoubleValue
10.001

@<SCITEGIC>MOL_PROPERTY
W
SciTegic.value.DoubleValue
-61.382

@<SCITEGIC>MOL_PROPERTY
W(PB)
SciTegic.value.DoubleValue
-63.543

@<SCITEGIC>MOL_PROPERTY
W(SA)
SciTegic.value.DoubleValue
2.161

@<SCITEGIC>MOL_PROPERTY
Valence
SciTegic.value.DoubleValue
9.399

@<SCITEGIC>MOL_PROPERTY
Coulomb
SciTegic.value.DoubleValue
-0.502

@<SCITEGIC>MOL_PROPERTY
VdW
SciTegic.value.DoubleValue
1.104

@<SCITEGIC>MOL_PROPERTY
VdW6
SciTegic.value.DoubleValue
-7.976

@<SCITEGIC>MOL_PROPERTY
VdW12
SciTegic.value.DoubleValue
9.080

@<SCITEGIC>MOL_PROPERTY
Bond
SciTegic.value.DoubleValue
0.216

@<SCITEGIC>MOL_PROPERTY
Angle
SciTegic.value.DoubleValue
3.417

@<SCITEGIC>MOL_PROPERTY
Pdih
SciTegic.value.DoubleValue
5.765

@<SCITEGIC>MOL_PROPERTY
Idih
SciTegic.value.DoubleValue
0.001

@<SCITEGIC>MOL_PROPERTY
Tether
SciTegic.value.DoubleValue
0.000

@<TRIPOS>MOLECULE
guest-s22_vm2.mol2 : vm2 ligand conformer 33
          20          19           1
SMALL
USER_CHARGES
 
@<TRIPOS>ATOM
       1    C1      19.679810   18.146866   18.985284 C.2        1 MOL1        -0.2535
       2    H1      18.600131   18.047154   19.084147 H          1 MOL1         0.0845
       3    H2      20.183739   17.475587   18.292072 H          1 MOL1         0.0845
       4    C2      20.363581   19.053666   19.688274 C.2        1 MOL1        -0.1324
       5    H3      21.444386   19.135619   19.576317 H          1 MOL1         0.0833
       6    C3      19.733621   20.019040   20.669731 C.3        1 MOL1        -0.1813
       7    H4      18.639410   20.009832   20.573403 H          1 MOL1         0.0753
       8    H5      20.057228   21.039768   20.426396 H          1 MOL1         0.0753
       9    C4      20.125018   19.707814   22.131926 C.3        1 MOL1        -0.1855
      10    H6      21.219373   19.712915   22.228271 H          1 MOL1         0.0755
      11    H7      19.750524   20.514885   22.776442 H          1 MOL1         0.0755
      12    C5      19.561825   18.353964   22.625386 C.3        1 MOL1        -0.1855
      13    H8      19.940774   17.545445   21.986042 H          1 MOL1         0.0755
      14    H9      18.467604   18.347879   22.525415 H          1 MOL1         0.0755
      15    C6      19.945873   18.048696   24.096559 C.3        1 MOL1        -0.1958
      16    H10     19.628971   17.031255   24.354103 H          1 MOL1         0.0753
      17    H11     21.035281   18.082441   24.218330 H          1 MOL1         0.0753
      18    C7      19.312247   18.994795   25.112502 C.2        1 MOL1         0.6174
      19    O1      20.010816   19.854236   25.612953 O.co2      1 MOL1        -0.6695
      20    O2      18.138209   18.838923   25.385384 O.co2      1 MOL1        -0.6695
@<TRIPOS>BOND
    1     1     2    1
    2     1     3    1
    3     1     4    2
    4     4     5    1
    5     4     6    1
    6     6     7    1
    7     6     8    1
    8     6     9    1
    9     9    10    1
   10     9    11    1
   11     9    12    1
   12    12    13    1
   13    12    14    1
   14    12    15    1
   15    15    16    1
   16    15    17    1
   17    15    18    1
   18    18    19    1
   19    18    20    2
@<TRIPOS>SUBSTRUCTURE
       1 MOL1            1 RESIDUE      1      MOL     
@<SCITEGIC>MOL_PROPERTY
VM2 Rank
SciTegic.value.IntegerValue
33

@<SCITEGIC>MOL_PROPERTY
Conf_Id
SciTegic.value.IntegerValue
219

@<SCITEGIC>MOL_PROPERTY
Probability
SciTegic.value.DoubleValue
0.41

@<SCITEGIC>MOL_PROPERTY
Sum Probability
SciTegic.value.DoubleValue
96.40

@<SCITEGIC>MOL_PROPERTY
Delta G
SciTegic.value.DoubleValue
2.087

@<SCITEGIC>MOL_PROPERTY
G
SciTegic.value.DoubleValue
-19.803

@<SCITEGIC>MOL_PROPERTY
E
SciTegic.value.DoubleValue
-35.222

@<SCITEGIC>MOL_PROPERTY
-TS
SciTegic.value.DoubleValue
15.419

@<SCITEGIC>MOL_PROPERTY
U+W
SciTegic.value.DoubleValue
-51.318

@<SCITEGIC>MOL_PROPERTY
U
SciTegic.value.DoubleValue
9.294

@<SCITEGIC>MOL_PROPERTY
W
SciTegic.value.DoubleValue
-60.613

@<SCITEGIC>MOL_PROPERTY
W(PB)
SciTegic.value.DoubleValue
-62.806

@<SCITEGIC>MOL_PROPERTY
W(SA)
SciTegic.value.DoubleValue
2.194

@<SCITEGIC>MOL_PROPERTY
Valence
SciTegic.value.DoubleValue
9.496

@<SCITEGIC>MOL_PROPERTY
Coulomb
SciTegic.value.DoubleValue
-0.611

@<SCITEGIC>MOL_PROPERTY
VdW
SciTegic.value.DoubleValue
0.409

@<SCITEGIC>MOL_PROPERTY
VdW6
SciTegic.value.DoubleValue
-7.331

@<SCITEGIC>MOL_PROPERTY
VdW12
SciTegic.value.DoubleValue
7.741

@<SCITEGIC>MOL_PROPERTY
Bond
SciTegic.value.DoubleValue
0.126

@<SCITEGIC>MOL_PROPERTY
Angle
SciTegic.value.DoubleValue
2.497

@<SCITEGIC>MOL_PROPERTY
Pdih
SciTegic.value.DoubleValue
6.872

@<SCITEGIC>MOL_PROPERTY
Idih
SciTegic.value.DoubleValue
0.000

@<SCITEGIC>MOL_PROPERTY
Tether
SciTegic.value.DoubleValue
0.000

@<TRIPOS>MOLECULE
guest-s22_vm2.mol2 : vm2 ligand conformer 34
          20          19           1
SMALL
USER_CHARGES
 
@<TRIPOS>ATOM
       1    C1      20.961091   18.533059   19.150567 C.2        1 MOL1        -0.2535
       2    H1      21.862442   19.030528   19.504847 H          1 MOL1         0.0845
       3    H2      21.081813   17.746315   18.407893 H          1 MOL1         0.0845
       4    C2      19.752718   18.869583   19.609487 C.2        1 MOL1        -0.1324
       5    H3      18.863175   18.357574   19.243495 H          1 MOL1         0.0833
       6    C3      19.506351   19.950545   20.640447 C.3        1 MOL1        -0.1813
       7    H4      18.746614   20.644747   20.257430 H          1 MOL1         0.0753
       8    H5      20.415617   20.545214   20.802506 H          1 MOL1         0.0753
       9    C4      19.019817   19.374648   21.989405 C.3        1 MOL1        -0.1855
      10    H6      18.732153   20.207888   22.645125 H          1 MOL1         0.0755
      11    H7      18.112701   18.776410   21.827619 H          1 MOL1         0.0755
      12    C5      20.095749   18.514908   22.694258 C.3        1 MOL1        -0.1855
      13    H8      21.004117   19.112524   22.852608 H          1 MOL1         0.0755
      14    H9      20.379448   17.677693   22.042603 H          1 MOL1         0.0755
      15    C6      19.609774   17.947330   24.053196 C.3        1 MOL1        -0.1958
      16    H10     18.685206   17.373834   23.915155 H          1 MOL1         0.0753
      17    H11     20.359093   17.251374   24.448301 H          1 MOL1         0.0753
      18    C7      19.368536   19.011759   25.119742 C.2        1 MOL1         0.6174
      19    O1      20.335839   19.501359   25.669055 O.co2      1 MOL1        -0.6695
      20    O2      18.221126   19.314809   25.381843 O.co2      1 MOL1        -0.6695
@<TRIPOS>BOND
    1     1     2    1
    2     1     3    1
    3     1     4    2
    4     4     5    1
    5     4     6    1
    6     6     7    1
    7     6     8    1
    8     6     9    1
    9     9    10    1
   10     9    11    1
   11     9    12    1
   12    12    13    1
   13    12    14    1
   14    12    15    1
   15    15    16    1
   16    15    17    1
   17    15    18    1
   18    18    19    1
   19    18    20    2
@<TRIPOS>SUBSTRUCTURE
       1 MOL1            1 RESIDUE      1      MOL     
@<SCITEGIC>MOL_PROPERTY
VM2 Rank
SciTegic.value.IntegerValue
34

@<SCITEGIC>MOL_PROPERTY
Conf_Id
SciTegic.value.IntegerValue
492

@<SCITEGIC>MOL_PROPERTY
Probability
SciTegic.value.DoubleValue
0.39

@<SCITEGIC>MOL_PROPERTY
Sum Probability
SciTegic.value.DoubleValue
96.80

@<SCITEGIC>MOL_PROPERTY
Delta G
SciTegic.value.DoubleValue
2.114

@<SCITEGIC>MOL_PROPERTY
G
SciTegic.value.DoubleValue
-19.776

@<SCITEGIC>MOL_PROPERTY
E
SciTegic.value.DoubleValue
-35.195

@<SCITEGIC>MOL_PROPERTY
-TS
SciTegic.value.DoubleValue
15.419

@<SCITEGIC>MOL_PROPERTY
U+W
SciTegic.value.DoubleValue
-51.291

@<SCITEGIC>MOL_PROPERTY
U
SciTegic.value.DoubleValue
9.294

@<SCITEGIC>MOL_PROPERTY
W
SciTegic.value.DoubleValue
-60.585

@<SCITEGIC>MOL_PROPERTY
W(PB)
SciTegic.value.DoubleValue
-62.766

@<SCITEGIC>MOL_PROPERTY
W(SA)
SciTegic.value.DoubleValue
2.180

@<SCITEGIC>MOL_PROPERTY
Valence
SciTegic.value.DoubleValue
9.495

@<SCITEGIC>MOL_PROPERTY
Coulomb
SciTegic.value.DoubleValue
-0.611

@<SCITEGIC>MOL_PROPERTY
VdW
SciTegic.value.DoubleValue
0.409

@<SCITEGIC>MOL_PROPERTY
VdW6
SciTegic.value.DoubleValue
-7.332

@<SCITEGIC>MOL_PROPERTY
VdW12
SciTegic.value.DoubleValue
7.741

@<SCITEGIC>MOL_PROPERTY
Bond
SciTegic.value.DoubleValue
0.126

@<SCITEGIC>MOL_PROPERTY
Angle
SciTegic.value.DoubleValue
2.497

@<SCITEGIC>MOL_PROPERTY
Pdih
SciTegic.value.DoubleValue
6.872

@<SCITEGIC>MOL_PROPERTY
Idih
SciTegic.value.DoubleValue
0.000

@<SCITEGIC>MOL_PROPERTY
Tether
SciTegic.value.DoubleValue
0.000

@<TRIPOS>MOLECULE
guest-s22_vm2.mol2 : vm2 ligand conformer 35
          20          19           1
SMALL
USER_CHARGES
 
@<TRIPOS>ATOM
       1    C1      19.668293   17.824572   19.357975 C.2        1 MOL1        -0.2535
       2    H1      19.861760   16.795448   19.060370 H          1 MOL1         0.0845
       3    H2      18.745264   18.282855   19.006707 H          1 MOL1         0.0845
       4    C2      20.530551   18.494283   20.127407 C.2        1 MOL1        -0.1324
       5    H3      21.447592   18.016186   20.470723 H          1 MOL1         0.0833
       6    C3      20.329850   19.924237   20.582217 C.3        1 MOL1        -0.1813
       7    H4      19.494891   20.388857   20.040385 H          1 MOL1         0.0753
       8    H5      21.224932   20.509249   20.332418 H          1 MOL1         0.0753
       9    C4      20.077783   20.024656   22.103512 C.3        1 MOL1        -0.1855
      10    H6      20.917321   19.565481   22.643579 H          1 MOL1         0.0755
      11    H7      20.062457   21.084479   22.392097 H          1 MOL1         0.0755
      12    C5      18.747824   19.361392   22.533112 C.3        1 MOL1        -0.1855
      13    H8      18.766111   18.290433   22.288028 H          1 MOL1         0.0755
      14    H9      17.921840   19.801917   21.958725 H          1 MOL1         0.0755
      15    C6      18.457766   19.533456   24.046744 C.3        1 MOL1        -0.1958
      16    H10     18.459224   20.596887   24.314771 H          1 MOL1         0.0753
      17    H11     17.455876   19.150319   24.273484 H          1 MOL1         0.0753
      18    C7      19.443147   18.801623   24.953529 C.2        1 MOL1         0.6174
      19    O1      20.303902   19.452569   25.512576 O.co2      1 MOL1        -0.6695
      20    O2      19.311884   17.601211   25.090927 O.co2      1 MOL1        -0.6695
@<TRIPOS>BOND
    1     1     2    1
    2     1     3    1
    3     1     4    2
    4     4     5    1
    5     4     6    1
    6     6     7    1
    7     6     8    1
    8     6     9    1
    9     9    10    1
   10     9    11    1
   11     9    12    1
   12    12    13    1
   13    12    14    1
   14    12    15    1
   15    15    16    1
   16    15    17    1
   17    15    18    1
   18    18    19    1
   19    18    20    2
@<TRIPOS>SUBSTRUCTURE
       1 MOL1            1 RESIDUE      1      MOL     
@<SCITEGIC>MOL_PROPERTY
VM2 Rank
SciTegic.value.IntegerValue
35

@<SCITEGIC>MOL_PROPERTY
Conf_Id
SciTegic.value.IntegerValue
354

@<SCITEGIC>MOL_PROPERTY
Probability
SciTegic.value.DoubleValue
0.37

@<SCITEGIC>MOL_PROPERTY
Sum Probability
SciTegic.value.DoubleValue
97.16

@<SCITEGIC>MOL_PROPERTY
Delta G
SciTegic.value.DoubleValue
2.158

@<SCITEGIC>MOL_PROPERTY
G
SciTegic.value.DoubleValue
-19.731

@<SCITEGIC>MOL_PROPERTY
E
SciTegic.value.DoubleValue
-35.157

@<SCITEGIC>MOL_PROPERTY
-TS
SciTegic.value.DoubleValue
15.425

@<SCITEGIC>MOL_PROPERTY
U+W
SciTegic.value.DoubleValue
-51.253

@<SCITEGIC>MOL_PROPERTY
U
SciTegic.value.DoubleValue
10.179

@<SCITEGIC>MOL_PROPERTY
W
SciTegic.value.DoubleValue
-61.432

@<SCITEGIC>MOL_PROPERTY
W(PB)
SciTegic.value.DoubleValue
-63.627

@<SCITEGIC>MOL_PROPERTY
W(SA)
SciTegic.value.DoubleValue
2.195

@<SCITEGIC>MOL_PROPERTY
Valence
SciTegic.value.DoubleValue
9.483

@<SCITEGIC>MOL_PROPERTY
Coulomb
SciTegic.value.DoubleValue
0.361

@<SCITEGIC>MOL_PROPERTY
VdW
SciTegic.value.DoubleValue
0.335

@<SCITEGIC>MOL_PROPERTY
VdW6
SciTegic.value.DoubleValue
-7.385

@<SCITEGIC>MOL_PROPERTY
VdW12
SciTegic.value.DoubleValue
7.720

@<SCITEGIC>MOL_PROPERTY
Bond
SciTegic.value.DoubleValue
0.125

@<SCITEGIC>MOL_PROPERTY
Angle
SciTegic.value.DoubleValue
2.487

@<SCITEGIC>MOL_PROPERTY
Pdih
SciTegic.value.DoubleValue
6.870

@<SCITEGIC>MOL_PROPERTY
Idih
SciTegic.value.DoubleValue
0.001

@<SCITEGIC>MOL_PROPERTY
Tether
SciTegic.value.DoubleValue
0.000

@<TRIPOS>MOLECULE
guest-s22_vm2.mol2 : vm2 ligand conformer 36
          20          19           1
SMALL
USER_CHARGES
 
@<TRIPOS>ATOM
       1    C1      19.108444   18.234324   19.283821 C.2        1 MOL1        -0.2535
       2    H1      18.133633   18.060257   18.831561 H          1 MOL1         0.0845
       3    H2      19.865638   17.462614   19.155300 H          1 MOL1         0.0845
       4    C2      19.360466   19.350793   19.972303 C.2        1 MOL1        -0.1324
       5    H3      18.587612   20.109627   20.091775 H          1 MOL1         0.0833
       6    C3      20.688241   19.661892   20.629672 C.3        1 MOL1        -0.1813
       7    H4      21.024900   20.655671   20.305831 H          1 MOL1         0.0753
       8    H5      21.458617   18.951359   20.300622 H          1 MOL1         0.0753
       9    C4      20.595763   19.645537   22.172117 C.3        1 MOL1        -0.1855
      10    H6      21.549746   19.995863   22.589163 H          1 MOL1         0.0755
      11    H7      19.829452   20.361799   22.499340 H          1 MOL1         0.0755
      12    C5      20.279798   18.240075   22.736130 C.3        1 MOL1        -0.1855
      13    H8      21.030508   17.526526   22.370737 H          1 MOL1         0.0755
      14    H9      19.307057   17.894503   22.359687 H          1 MOL1         0.0755
      15    C6      20.267043   18.209179   24.286517 C.3        1 MOL1        -0.1958
      16    H10     20.155377   17.174446   24.631261 H          1 MOL1         0.0753
      17    H11     21.223090   18.573907   24.681072 H          1 MOL1         0.0753
      18    C7      19.139211   19.024112   24.913167 C.2        1 MOL1         0.6174
      19    O1      19.409764   20.107026   25.394065 O.co2      1 MOL1        -0.6695
      20    O2      18.022269   18.545064   24.920207 O.co2      1 MOL1        -0.6695
@<TRIPOS>BOND
    1     1     2    1
    2     1     3    1
    3     1     4    2
    4     4     5    1
    5     4     6    1
    6     6     7    1
    7     6     8    1
    8     6     9    1
    9     9    10    1
   10     9    11    1
   11     9    12    1
   12    12    13    1
   13    12    14    1
   14    12    15    1
   15    15    16    1
   16    15    17    1
   17    15    18    1
   18    18    19    1
   19    18    20    2
@<TRIPOS>SUBSTRUCTURE
       1 MOL1            1 RESIDUE      1      MOL     
@<SCITEGIC>MOL_PROPERTY
VM2 Rank
SciTegic.value.IntegerValue
36

@<SCITEGIC>MOL_PROPERTY
Conf_Id
SciTegic.value.IntegerValue
761

@<SCITEGIC>MOL_PROPERTY
Probability
SciTegic.value.DoubleValue
0.34

@<SCITEGIC>MOL_PROPERTY
Sum Probability
SciTegic.value.DoubleValue
97.51

@<SCITEGIC>MOL_PROPERTY
Delta G
SciTegic.value.DoubleValue
2.198

@<SCITEGIC>MOL_PROPERTY
G
SciTegic.value.DoubleValue
-19.691

@<SCITEGIC>MOL_PROPERTY
E
SciTegic.value.DoubleValue
-35.116

@<SCITEGIC>MOL_PROPERTY
-TS
SciTegic.value.DoubleValue
15.425

@<SCITEGIC>MOL_PROPERTY
U+W
SciTegic.value.DoubleValue
-51.213

@<SCITEGIC>MOL_PROPERTY
U
SciTegic.value.DoubleValue
10.178

@<SCITEGIC>MOL_PROPERTY
W
SciTegic.value.DoubleValue
-61.390

@<SCITEGIC>MOL_PROPERTY
W(PB)
SciTegic.value.DoubleValue
-63.591

@<SCITEGIC>MOL_PROPERTY
W(SA)
SciTegic.value.DoubleValue
2.201

@<SCITEGIC>MOL_PROPERTY
Valence
SciTegic.value.DoubleValue
9.483

@<SCITEGIC>MOL_PROPERTY
Coulomb
SciTegic.value.DoubleValue
0.359

@<SCITEGIC>MOL_PROPERTY
VdW
SciTegic.value.DoubleValue
0.335

@<SCITEGIC>MOL_PROPERTY
VdW6
SciTegic.value.DoubleValue
-7.385

@<SCITEGIC>MOL_PROPERTY
VdW12
SciTegic.value.DoubleValue
7.720

@<SCITEGIC>MOL_PROPERTY
Bond
SciTegic.value.DoubleValue
0.125

@<SCITEGIC>MOL_PROPERTY
Angle
SciTegic.value.DoubleValue
2.487

@<SCITEGIC>MOL_PROPERTY
Pdih
SciTegic.value.DoubleValue
6.870

@<SCITEGIC>MOL_PROPERTY
Idih
SciTegic.value.DoubleValue
0.001

@<SCITEGIC>MOL_PROPERTY
Tether
SciTegic.value.DoubleValue
0.000

@<TRIPOS>MOLECULE
guest-s22_vm2.mol2 : vm2 ligand conformer 37
          20          19           1
SMALL
USER_CHARGES
 
@<TRIPOS>ATOM
       1    C1      20.499248   17.662978   19.677962 C.2        1 MOL1        -0.2535
       2    H1      21.362133   18.200142   19.287705 H          1 MOL1         0.0845
       3    H2      20.496774   16.578702   19.581217 H          1 MOL1         0.0845
       4    C2      19.482320   18.307521   20.256005 C.2        1 MOL1        -0.1324
       5    H3      18.623393   17.753111   20.632393 H          1 MOL1         0.0833
       6    C3      19.413748   19.811645   20.412560 C.3        1 MOL1        -0.1813
       7    H4      18.376727   20.129329   20.584608 H          1 MOL1         0.0753
       8    H5      19.713100   20.274188   19.462376 H          1 MOL1         0.0753
       9    C4      20.329387   20.360052   21.535070 C.3        1 MOL1        -0.1855
      10    H6      21.322388   19.894456   21.471017 H          1 MOL1         0.0755
      11    H7      20.486584   21.431141   21.348547 H          1 MOL1         0.0755
      12    C5      19.763359   20.211252   22.969845 C.3        1 MOL1        -0.1855
      13    H8      18.764549   20.665371   23.026371 H          1 MOL1         0.0755
      14    H9      20.402028   20.787646   23.653482 H          1 MOL1         0.0755
      15    C6      19.697719   18.748937   23.480327 C.3        1 MOL1        -0.1958
      16    H10     18.955533   18.176799   22.914734 H          1 MOL1         0.0753
      17    H11     20.666798   18.254758   23.342504 H          1 MOL1         0.0753
      18    C7      19.322756   18.655184   24.954857 C.2        1 MOL1         0.6174
      19    O1      20.218570   18.658252   25.776070 O.co2      1 MOL1        -0.6695
      20    O2      18.143893   18.602181   25.245304 O.co2      1 MOL1        -0.6695
@<TRIPOS>BOND
    1     1     2    1
    2     1     3    1
    3     1     4    2
    4     4     5    1
    5     4     6    1
    6     6     7    1
    7     6     8    1
    8     6     9    1
    9     9    10    1
   10     9    11    1
   11     9    12    1
   12    12    13    1
   13    12    14    1
   14    12    15    1
   15    15    16    1
   16    15    17    1
   17    15    18    1
   18    18    19    1
   19    18    20    2
@<TRIPOS>SUBSTRUCTURE
       1 MOL1            1 RESIDUE      1      MOL     
@<SCITEGIC>MOL_PROPERTY
VM2 Rank
SciTegic.value.IntegerValue
37

@<SCITEGIC>MOL_PROPERTY
Conf_Id
SciTegic.value.IntegerValue
108

@<SCITEGIC>MOL_PROPERTY
Probability
SciTegic.value.DoubleValue
0.22

@<SCITEGIC>MOL_PROPERTY
Sum Probability
SciTegic.value.DoubleValue
97.73

@<SCITEGIC>MOL_PROPERTY
Delta G
SciTegic.value.DoubleValue
2.453

@<SCITEGIC>MOL_PROPERTY
G
SciTegic.value.DoubleValue
-19.437

@<SCITEGIC>MOL_PROPERTY
E
SciTegic.value.DoubleValue
-34.099

@<SCITEGIC>MOL_PROPERTY
-TS
SciTegic.value.DoubleValue
14.662

@<SCITEGIC>MOL_PROPERTY
U+W
SciTegic.value.DoubleValue
-50.195

@<SCITEGIC>MOL_PROPERTY
U
SciTegic.value.DoubleValue
10.644

@<SCITEGIC>MOL_PROPERTY
W
SciTegic.value.DoubleValue
-60.839

@<SCITEGIC>MOL_PROPERTY
W(PB)
SciTegic.value.DoubleValue
-62.998

@<SCITEGIC>MOL_PROPERTY
W(SA)
SciTegic.value.DoubleValue
2.160

@<SCITEGIC>MOL_PROPERTY
Valence
SciTegic.value.DoubleValue
11.231

@<SCITEGIC>MOL_PROPERTY
Coulomb
SciTegic.value.DoubleValue
-1.076

@<SCITEGIC>MOL_PROPERTY
VdW
SciTegic.value.DoubleValue
0.489

@<SCITEGIC>MOL_PROPERTY
VdW6
SciTegic.value.DoubleValue
-7.546

@<SCITEGIC>MOL_PROPERTY
VdW12
SciTegic.value.DoubleValue
8.035

@<SCITEGIC>MOL_PROPERTY
Bond
SciTegic.value.DoubleValue
0.159

@<SCITEGIC>MOL_PROPERTY
Angle
SciTegic.value.DoubleValue
3.006

@<SCITEGIC>MOL_PROPERTY
Pdih
SciTegic.value.DoubleValue
8.064

@<SCITEGIC>MOL_PROPERTY
Idih
SciTegic.value.DoubleValue
0.002

@<SCITEGIC>MOL_PROPERTY
Tether
SciTegic.value.DoubleValue
0.000

@<TRIPOS>MOLECULE
guest-s22_vm2.mol2 : vm2 ligand conformer 38
          20          19           1
SMALL
USER_CHARGES
 
@<TRIPOS>ATOM
       1    C1      19.446063   19.924255   19.282117 C.2        1 MOL1        -0.2535
       2    H1      19.514034   20.466479   18.340568 H          1 MOL1         0.0845
       3    H2      18.448509   19.764174   19.685547 H          1 MOL1         0.0845
       4    C2      20.549279   19.487334   19.900171 C.2        1 MOL1        -0.1324
       5    H3      21.521653   19.680506   19.447718 H          1 MOL1         0.0833
       6    C3      20.613901   18.719887   21.210250 C.3        1 MOL1        -0.1813
       7    H4      21.176200   19.321103   21.936209 H          1 MOL1         0.0753
       8    H5      21.205463   17.808052   21.054157 H          1 MOL1         0.0753
       9    C4      19.239079   18.331890   21.808520 C.3        1 MOL1        -0.1855
      10    H6      18.672470   19.241275   22.051724 H          1 MOL1         0.0755
      11    H7      18.657506   17.792720   21.048414 H          1 MOL1         0.0755
      12    C5      19.344096   17.432528   23.065176 C.3        1 MOL1        -0.1855
      13    H8      19.867651   16.503396   22.802514 H          1 MOL1         0.0755
      14    H9      18.331545   17.137633   23.373701 H          1 MOL1         0.0755
      15    C6      20.059093   18.095421   24.274310 C.3        1 MOL1        -0.1958
      16    H10     20.095720   17.384464   25.107890 H          1 MOL1         0.0753
      17    H11     21.099212   18.334860   24.025877 H          1 MOL1         0.0753
      18    C7      19.375133   19.359541   24.787244 C.2        1 MOL1         0.6174
      19    O1      19.932312   20.425822   24.615629 O.co2      1 MOL1        -0.6695
      20    O2      18.312045   19.241322   25.364582 O.co2      1 MOL1        -0.6695
@<TRIPOS>BOND
    1     1     2    1
    2     1     3    1
    3     1     4    2
    4     4     5    1
    5     4     6    1
    6     6     7    1
    7     6     8    1
    8     6     9    1
    9     9    10    1
   10     9    11    1
   11     9    12    1
   12    12    13    1
   13    12    14    1
   14    12    15    1
   15    15    16    1
   16    15    17    1
   17    15    18    1
   18    18    19    1
   19    18    20    2
@<TRIPOS>SUBSTRUCTURE
       1 MOL1            1 RESIDUE      1      MOL     
@<SCITEGIC>MOL_PROPERTY
VM2 Rank
SciTegic.value.IntegerValue
38

@<SCITEGIC>MOL_PROPERTY
Conf_Id
SciTegic.value.IntegerValue
365

@<SCITEGIC>MOL_PROPERTY
Probability
SciTegic.value.DoubleValue
0.22

@<SCITEGIC>MOL_PROPERTY
Sum Probability
SciTegic.value.DoubleValue
97.95

@<SCITEGIC>MOL_PROPERTY
Delta G
SciTegic.value.DoubleValue
2.467

@<SCITEGIC>MOL_PROPERTY
G
SciTegic.value.DoubleValue
-19.423

@<SCITEGIC>MOL_PROPERTY
E
SciTegic.value.DoubleValue
-35.132

@<SCITEGIC>MOL_PROPERTY
-TS
SciTegic.value.DoubleValue
15.709

@<SCITEGIC>MOL_PROPERTY
U+W
SciTegic.value.DoubleValue
-51.228

@<SCITEGIC>MOL_PROPERTY
U
SciTegic.value.DoubleValue
10.869

@<SCITEGIC>MOL_PROPERTY
W
SciTegic.value.DoubleValue
-62.098

@<SCITEGIC>MOL_PROPERTY
W(PB)
SciTegic.value.DoubleValue
-64.246

@<SCITEGIC>MOL_PROPERTY
W(SA)
SciTegic.value.DoubleValue
2.149

@<SCITEGIC>MOL_PROPERTY
Valence
SciTegic.value.DoubleValue
8.803

@<SCITEGIC>MOL_PROPERTY
Coulomb
SciTegic.value.DoubleValue
1.019

@<SCITEGIC>MOL_PROPERTY
VdW
SciTegic.value.DoubleValue
1.048

@<SCITEGIC>MOL_PROPERTY
VdW6
SciTegic.value.DoubleValue
-8.312

@<SCITEGIC>MOL_PROPERTY
VdW12
SciTegic.value.DoubleValue
9.360

@<SCITEGIC>MOL_PROPERTY
Bond
SciTegic.value.DoubleValue
0.212

@<SCITEGIC>MOL_PROPERTY
Angle
SciTegic.value.DoubleValue
3.379

@<SCITEGIC>MOL_PROPERTY
Pdih
SciTegic.value.DoubleValue
5.211

@<SCITEGIC>MOL_PROPERTY
Idih
SciTegic.value.DoubleValue
0.001

@<SCITEGIC>MOL_PROPERTY
Tether
SciTegic.value.DoubleValue
0.000

@<TRIPOS>MOLECULE
guest-s22_vm2.mol2 : vm2 ligand conformer 39
          20          19           1
SMALL
USER_CHARGES
 
@<TRIPOS>ATOM
       1    C1      20.403195   17.634278   19.664394 C.2        1 MOL1        -0.2535
       2    H1      21.017874   16.736007   19.647057 H          1 MOL1         0.0845
       3    H2      19.506801   17.641549   19.046461 H          1 MOL1         0.0845
       4    C2      20.736708   18.685426   20.417764 C.2        1 MOL1        -0.1324
       5    H3      21.642607   18.662612   21.022425 H          1 MOL1         0.0833
       6    C3      19.936871   19.969157   20.480192 C.3        1 MOL1        -0.1813
       7    H4      19.665171   20.259750   19.456404 H          1 MOL1         0.0753
       8    H5      20.559635   20.787022   20.866453 H          1 MOL1         0.0753
       9    C4      18.638980   19.850257   21.317153 C.3        1 MOL1        -0.1855
      10    H6      17.972593   20.673002   21.024317 H          1 MOL1         0.0755
      11    H7      18.107260   18.924915   21.056475 H          1 MOL1         0.0755
      12    C5      18.841849   19.933410   22.851112 C.3        1 MOL1        -0.1855
      13    H8      17.854118   20.019234   23.324937 H          1 MOL1         0.0755
      14    H9      19.386053   20.852961   23.106671 H          1 MOL1         0.0755
      15    C6      19.572292   18.711237   23.464305 C.3        1 MOL1        -0.1958
      16    H10     19.092960   17.780097   23.139434 H          1 MOL1         0.0753
      17    H11     20.613674   18.677222   23.128977 H          1 MOL1         0.0753
      18    C7      19.581676   18.733346   24.988460 C.2        1 MOL1         0.6174
      19    O1      20.492691   19.310423   25.548747 O.co2      1 MOL1        -0.6695
      20    O2      18.666738   18.190467   25.575872 O.co2      1 MOL1        -0.6695
@<TRIPOS>BOND
    1     1     2    1
    2     1     3    1
    3     1     4    2
    4     4     5    1
    5     4     6    1
    6     6     7    1
    7     6     8    1
    8     6     9    1
    9     9    10    1
   10     9    11    1
   11     9    12    1
   12    12    13    1
   13    12    14    1
   14    12    15    1
   15    15    16    1
   16    15    17    1
   17    15    18    1
   18    18    19    1
   19    18    20    2
@<TRIPOS>SUBSTRUCTURE
       1 MOL1            1 RESIDUE      1      MOL     
@<SCITEGIC>MOL_PROPERTY
VM2 Rank
SciTegic.value.IntegerValue
39

@<SCITEGIC>MOL_PROPERTY
Conf_Id
SciTegic.value.IntegerValue
659

@<SCITEGIC>MOL_PROPERTY
Probability
SciTegic.value.DoubleValue
0.20

@<SCITEGIC>MOL_PROPERTY
Sum Probability
SciTegic.value.DoubleValue
98.15

@<SCITEGIC>MOL_PROPERTY
Delta G
SciTegic.value.DoubleValue
2.504

@<SCITEGIC>MOL_PROPERTY
G
SciTegic.value.DoubleValue
-19.385

@<SCITEGIC>MOL_PROPERTY
E
SciTegic.value.DoubleValue
-34.047

@<SCITEGIC>MOL_PROPERTY
-TS
SciTegic.value.DoubleValue
14.662

@<SCITEGIC>MOL_PROPERTY
U+W
SciTegic.value.DoubleValue
-50.144

@<SCITEGIC>MOL_PROPERTY
U
SciTegic.value.DoubleValue
10.643

@<SCITEGIC>MOL_PROPERTY
W
SciTegic.value.DoubleValue
-60.786

@<SCITEGIC>MOL_PROPERTY
W(PB)
SciTegic.value.DoubleValue
-62.965

@<SCITEGIC>MOL_PROPERTY
W(SA)
SciTegic.value.DoubleValue
2.179

@<SCITEGIC>MOL_PROPERTY
Valence
SciTegic.value.DoubleValue
11.231

@<SCITEGIC>MOL_PROPERTY
Coulomb
SciTegic.value.DoubleValue
-1.078

@<SCITEGIC>MOL_PROPERTY
VdW
SciTegic.value.DoubleValue
0.489

@<SCITEGIC>MOL_PROPERTY
VdW6
SciTegic.value.DoubleValue
-7.545

@<SCITEGIC>MOL_PROPERTY
VdW12
SciTegic.value.DoubleValue
8.035

@<SCITEGIC>MOL_PROPERTY
Bond
SciTegic.value.DoubleValue
0.159

@<SCITEGIC>MOL_PROPERTY
Angle
SciTegic.value.DoubleValue
3.005

@<SCITEGIC>MOL_PROPERTY
Pdih
SciTegic.value.DoubleValue
8.065

@<SCITEGIC>MOL_PROPERTY
Idih
SciTegic.value.DoubleValue
0.002

@<SCITEGIC>MOL_PROPERTY
Tether
SciTegic.value.DoubleValue
0.000

@<TRIPOS>MOLECULE
guest-s22_vm2.mol2 : vm2 ligand conformer 40
          20          19           1
SMALL
USER_CHARGES
 
@<TRIPOS>ATOM
       1    C1      19.921942   18.495777   18.706960 C.2        1 MOL1        -0.2535
       2    H1      19.991379   17.723037   17.943225 H          1 MOL1         0.0845
       3    H2      20.157891   19.516412   18.409998 H          1 MOL1         0.0845
       4    C2      19.563387   18.198678   19.958713 C.2        1 MOL1        -0.1324
       5    H3      19.332043   17.170466   20.236067 H          1 MOL1         0.0833
       6    C3      19.444524   19.216494   21.071155 C.3        1 MOL1        -0.1813
       7    H4      18.485070   19.076234   21.585674 H          1 MOL1         0.0753
       8    H5      19.439274   20.233727   20.656926 H          1 MOL1         0.0753
       9    C4      20.607317   19.075385   22.078715 C.3        1 MOL1        -0.1855
      10    H6      20.567281   18.083263   22.549191 H          1 MOL1         0.0755
      11    H7      21.558552   19.118452   21.530576 H          1 MOL1         0.0755
      12    C5      20.617237   20.174079   23.170026 C.3        1 MOL1        -0.1855
      13    H8      20.713473   21.158134   22.691713 H          1 MOL1         0.0755
      14    H9      21.513479   20.045859   23.792677 H          1 MOL1         0.0755
      15    C6      19.366610   20.175803   24.091085 C.3        1 MOL1        -0.1958
      16    H10     19.454399   20.989432   24.820471 H          1 MOL1         0.0753
      17    H11     18.458704   20.376417   23.511029 H          1 MOL1         0.0753
      18    C7      19.169195   18.882124   24.876045 C.2        1 MOL1         0.6174
      19    O1      19.930133   18.648170   25.794548 O.co2      1 MOL1        -0.6695
      20    O2      18.250654   18.151490   24.560754 O.co2      1 MOL1        -0.6695
@<TRIPOS>BOND
    1     1     2    1
    2     1     3    1
    3     1     4    2
    4     4     5    1
    5     4     6    1
    6     6     7    1
    7     6     8    1
    8     6     9    1
    9     9    10    1
   10     9    11    1
   11     9    12    1
   12    12    13    1
   13    12    14    1
   14    12    15    1
   15    15    16    1
   16    15    17    1
   17    15    18    1
   18    18    19    1
   19    18    20    2
@<TRIPOS>SUBSTRUCTURE
       1 MOL1            1 RESIDUE      1      MOL     
@<SCITEGIC>MOL_PROPERTY
VM2 Rank
SciTegic.value.IntegerValue
40

@<SCITEGIC>MOL_PROPERTY
Conf_Id
SciTegic.value.IntegerValue
244

@<SCITEGIC>MOL_PROPERTY
Probability
SciTegic.value.DoubleValue
0.20

@<SCITEGIC>MOL_PROPERTY
Sum Probability
SciTegic.value.DoubleValue
98.35

@<SCITEGIC>MOL_PROPERTY
Delta G
SciTegic.value.DoubleValue
2.521

@<SCITEGIC>MOL_PROPERTY
G
SciTegic.value.DoubleValue
-19.369

@<SCITEGIC>MOL_PROPERTY
E
SciTegic.value.DoubleValue
-34.753

@<SCITEGIC>MOL_PROPERTY
-TS
SciTegic.value.DoubleValue
15.384

@<SCITEGIC>MOL_PROPERTY
U+W
SciTegic.value.DoubleValue
-50.849

@<SCITEGIC>MOL_PROPERTY
U
SciTegic.value.DoubleValue
10.197

@<SCITEGIC>MOL_PROPERTY
W
SciTegic.value.DoubleValue
-61.046

@<SCITEGIC>MOL_PROPERTY
W(PB)
SciTegic.value.DoubleValue
-63.242

@<SCITEGIC>MOL_PROPERTY
W(SA)
SciTegic.value.DoubleValue
2.197

@<SCITEGIC>MOL_PROPERTY
Valence
SciTegic.value.DoubleValue
9.837

@<SCITEGIC>MOL_PROPERTY
Coulomb
SciTegic.value.DoubleValue
0.032

@<SCITEGIC>MOL_PROPERTY
VdW
SciTegic.value.DoubleValue
0.327

@<SCITEGIC>MOL_PROPERTY
VdW6
SciTegic.value.DoubleValue
-7.642

@<SCITEGIC>MOL_PROPERTY
VdW12
SciTegic.value.DoubleValue
7.969

@<SCITEGIC>MOL_PROPERTY
Bond
SciTegic.value.DoubleValue
0.151

@<SCITEGIC>MOL_PROPERTY
Angle
SciTegic.value.DoubleValue
2.748

@<SCITEGIC>MOL_PROPERTY
Pdih
SciTegic.value.DoubleValue
6.937

@<SCITEGIC>MOL_PROPERTY
Idih
SciTegic.value.DoubleValue
0.001

@<SCITEGIC>MOL_PROPERTY
Tether
SciTegic.value.DoubleValue
0.000

@<TRIPOS>MOLECULE
guest-s22_vm2.mol2 : vm2 ligand conformer 41
          20          19           1
SMALL
USER_CHARGES
 
@<TRIPOS>ATOM
       1    C1      19.778723   19.070047   18.668527 C.2        1 MOL1        -0.2535
       2    H1      20.474057   18.250376   18.494735 H          1 MOL1         0.0845
       3    H2      19.502367   19.682716   17.812079 H          1 MOL1         0.0845
       4    C2      19.283774   19.319180   19.883711 C.2        1 MOL1        -0.1324
       5    H3      18.589494   20.145109   20.036949 H          1 MOL1         0.0833
       6    C3      19.620135   18.512651   21.118205 C.3        1 MOL1        -0.1813
       7    H4      20.104335   17.568279   20.835208 H          1 MOL1         0.0753
       8    H5      18.690963   18.251052   21.640852 H          1 MOL1         0.0753
       9    C4      20.549669   19.306452   22.063203 C.3        1 MOL1        -0.1855
      10    H6      21.427193   19.644966   21.495293 H          1 MOL1         0.0755
      11    H7      20.035487   20.214756   22.406506 H          1 MOL1         0.0755
      12    C5      21.038212   18.486759   23.282883 C.3        1 MOL1        -0.1855
      13    H8      21.750409   19.096280   23.856159 H          1 MOL1         0.0755
      14    H9      21.598477   17.610804   22.929029 H          1 MOL1         0.0755
      15    C6      19.905516   18.015827   24.235584 C.3        1 MOL1        -0.1958
      16    H10     19.215542   17.342863   23.713991 H          1 MOL1         0.0753
      17    H11     20.340814   17.436544   25.058172 H          1 MOL1         0.0753
      18    C7      19.101466   19.153831   24.857826 C.2        1 MOL1         0.6174
      19    O1      19.635355   19.829524   25.715618 O.co2      1 MOL1        -0.6695
      20    O2      17.958148   19.323729   24.482442 O.co2      1 MOL1        -0.6695
@<TRIPOS>BOND
    1     1     2    1
    2     1     3    1
    3     1     4    2
    4     4     5    1
    5     4     6    1
    6     6     7    1
    7     6     8    1
    8     6     9    1
    9     9    10    1
   10     9    11    1
   11     9    12    1
   12    12    13    1
   13    12    14    1
   14    12    15    1
   15    15    16    1
   16    15    17    1
   17    15    18    1
   18    18    19    1
   19    18    20    2
@<TRIPOS>SUBSTRUCTURE
       1 MOL1            1 RESIDUE      1      MOL     
@<SCITEGIC>MOL_PROPERTY
VM2 Rank
SciTegic.value.IntegerValue
41

@<SCITEGIC>MOL_PROPERTY
Conf_Id
SciTegic.value.IntegerValue
109

@<SCITEGIC>MOL_PROPERTY
Probability
SciTegic.value.DoubleValue
0.18

@<SCITEGIC>MOL_PROPERTY
Sum Probability
SciTegic.value.DoubleValue
98.54

@<SCITEGIC>MOL_PROPERTY
Delta G
SciTegic.value.DoubleValue
2.567

@<SCITEGIC>MOL_PROPERTY
G
SciTegic.value.DoubleValue
-19.322

@<SCITEGIC>MOL_PROPERTY
E
SciTegic.value.DoubleValue
-34.706

@<SCITEGIC>MOL_PROPERTY
-TS
SciTegic.value.DoubleValue
15.384

@<SCITEGIC>MOL_PROPERTY
U+W
SciTegic.value.DoubleValue
-50.803

@<SCITEGIC>MOL_PROPERTY
U
SciTegic.value.DoubleValue
10.196

@<SCITEGIC>MOL_PROPERTY
W
SciTegic.value.DoubleValue
-60.999

@<SCITEGIC>MOL_PROPERTY
W(PB)
SciTegic.value.DoubleValue
-63.181

@<SCITEGIC>MOL_PROPERTY
W(SA)
SciTegic.value.DoubleValue
2.182

@<SCITEGIC>MOL_PROPERTY
Valence
SciTegic.value.DoubleValue
9.837

@<SCITEGIC>MOL_PROPERTY
Coulomb
SciTegic.value.DoubleValue
0.031

@<SCITEGIC>MOL_PROPERTY
VdW
SciTegic.value.DoubleValue
0.328

@<SCITEGIC>MOL_PROPERTY
VdW6
SciTegic.value.DoubleValue
-7.641

@<SCITEGIC>MOL_PROPERTY
VdW12
SciTegic.value.DoubleValue
7.969

@<SCITEGIC>MOL_PROPERTY
Bond
SciTegic.value.DoubleValue
0.151

@<SCITEGIC>MOL_PROPERTY
Angle
SciTegic.value.DoubleValue
2.748

@<SCITEGIC>MOL_PROPERTY
Pdih
SciTegic.value.DoubleValue
6.937

@<SCITEGIC>MOL_PROPERTY
Idih
SciTegic.value.DoubleValue
0.001

@<SCITEGIC>MOL_PROPERTY
Tether
SciTegic.value.DoubleValue
0.000

@<TRIPOS>MOLECULE
guest-s22_vm2.mol2 : vm2 ligand conformer 42
          20          19           1
SMALL
USER_CHARGES
 
@<TRIPOS>ATOM
       1    C1      20.571087   18.050126   19.487708 C.2        1 MOL1        -0.2535
       2    H1      21.138821   17.723641   20.356126 H          1 MOL1         0.0845
       3    H2      20.629620   17.425536   18.598076 H          1 MOL1         0.0845
       4    C2      19.833586   19.166174   19.492760 C.2        1 MOL1        -0.1324
       5    H3      19.287926   19.443600   18.591248 H          1 MOL1         0.0833
       6    C3      19.651709   20.132764   20.652678 C.3        1 MOL1        -0.1813
       7    H4      18.600316   20.447980   20.689773 H          1 MOL1         0.0753
       8    H5      20.219108   21.047892   20.437424 H          1 MOL1         0.0753
       9    C4      20.053983   19.603882   22.051800 C.3        1 MOL1        -0.1855
      10    H6      21.095561   19.256856   22.039778 H          1 MOL1         0.0755
      11    H7      20.023135   20.442829   22.760445 H          1 MOL1         0.0755
      12    C5      19.116365   18.483442   22.563008 C.3        1 MOL1        -0.1855
      13    H8      19.109254   17.651132   21.847536 H          1 MOL1         0.0755
      14    H9      18.085071   18.858813   22.615832 H          1 MOL1         0.0755
      15    C6      19.537868   17.942665   23.953986 C.3        1 MOL1        -0.1958
      16    H10     18.915358   17.078836   24.215130 H          1 MOL1         0.0753
      17    H11     20.575484   17.588820   23.923725 H          1 MOL1         0.0753
      18    C7      19.402894   18.960627   25.082809 C.2        1 MOL1         0.6174
      19    O1      20.413410   19.481338   25.512696 O.co2      1 MOL1        -0.6695
      20    O2      18.290097   19.196983   25.510555 O.co2      1 MOL1        -0.6695
@<TRIPOS>BOND
    1     1     2    1
    2     1     3    1
    3     1     4    2
    4     4     5    1
    5     4     6    1
    6     6     7    1
    7     6     8    1
    8     6     9    1
    9     9    10    1
   10     9    11    1
   11     9    12    1
   12    12    13    1
   13    12    14    1
   14    12    15    1
   15    15    16    1
   16    15    17    1
   17    15    18    1
   18    18    19    1
   19    18    20    2
@<TRIPOS>SUBSTRUCTURE
       1 MOL1            1 RESIDUE      1      MOL     
@<SCITEGIC>MOL_PROPERTY
VM2 Rank
SciTegic.value.IntegerValue
42

@<SCITEGIC>MOL_PROPERTY
Conf_Id
SciTegic.value.IntegerValue
484

@<SCITEGIC>MOL_PROPERTY
Probability
SciTegic.value.DoubleValue
0.18

@<SCITEGIC>MOL_PROPERTY
Sum Probability
SciTegic.value.DoubleValue
98.71

@<SCITEGIC>MOL_PROPERTY
Delta G
SciTegic.value.DoubleValue
2.596

@<SCITEGIC>MOL_PROPERTY
G
SciTegic.value.DoubleValue
-19.294

@<SCITEGIC>MOL_PROPERTY
E
SciTegic.value.DoubleValue
-35.039

@<SCITEGIC>MOL_PROPERTY
-TS
SciTegic.value.DoubleValue
15.745

@<SCITEGIC>MOL_PROPERTY
U+W
SciTegic.value.DoubleValue
-51.135

@<SCITEGIC>MOL_PROPERTY
U
SciTegic.value.DoubleValue
9.738

@<SCITEGIC>MOL_PROPERTY
W
SciTegic.value.DoubleValue
-60.873

@<SCITEGIC>MOL_PROPERTY
W(PB)
SciTegic.value.DoubleValue
-63.019

@<SCITEGIC>MOL_PROPERTY
W(SA)
SciTegic.value.DoubleValue
2.145

@<SCITEGIC>MOL_PROPERTY
Valence
SciTegic.value.DoubleValue
9.029

@<SCITEGIC>MOL_PROPERTY
Coulomb
SciTegic.value.DoubleValue
-0.282

@<SCITEGIC>MOL_PROPERTY
VdW
SciTegic.value.DoubleValue
0.990

@<SCITEGIC>MOL_PROPERTY
VdW6
SciTegic.value.DoubleValue
-8.096

@<SCITEGIC>MOL_PROPERTY
VdW12
SciTegic.value.DoubleValue
9.086

@<SCITEGIC>MOL_PROPERTY
Bond
SciTegic.value.DoubleValue
0.190

@<SCITEGIC>MOL_PROPERTY
Angle
SciTegic.value.DoubleValue
3.359

@<SCITEGIC>MOL_PROPERTY
Pdih
SciTegic.value.DoubleValue
5.480

@<SCITEGIC>MOL_PROPERTY
Idih
SciTegic.value.DoubleValue
0.000

@<SCITEGIC>MOL_PROPERTY
Tether
SciTegic.value.DoubleValue
0.000

@<TRIPOS>MOLECULE
guest-s22_vm2.mol2 : vm2 ligand conformer 43
          20          19           1
SMALL
USER_CHARGES
 
@<TRIPOS>ATOM
       1    C1      21.053299   18.580865   19.548962 C.2        1 MOL1        -0.2535
       2    H1      21.335081   17.939739   20.381200 H          1 MOL1         0.0845
       3    H2      21.777910   18.689402   18.743889 H          1 MOL1         0.0845
       4    C2      19.874437   19.211085   19.497935 C.2        1 MOL1        -0.1324
       5    H3      19.647168   19.838846   18.636716 H          1 MOL1         0.0833
       6    C3      18.768430   19.160529   20.540519 C.3        1 MOL1        -0.1813
       7    H4      17.946590   18.546590   20.148868 H          1 MOL1         0.0753
       8    H5      18.345292   20.167237   20.657386 H          1 MOL1         0.0753
       9    C4      19.172669   18.633802   21.939888 C.3        1 MOL1        -0.1855
      10    H6      18.259659   18.501662   22.536472 H          1 MOL1         0.0755
      11    H7      19.623516   17.636500   21.852825 H          1 MOL1         0.0755
      12    C5      20.125665   19.594569   22.691266 C.3        1 MOL1        -0.1855
      13    H8      19.643174   20.574076   22.813853 H          1 MOL1         0.0755
      14    H9      21.028985   19.764544   22.091421 H          1 MOL1         0.0755
      15    C6      20.544621   19.050902   24.081888 C.3        1 MOL1        -0.1958
      16    H10     21.003933   18.060432   23.978122 H          1 MOL1         0.0753
      17    H11     21.304774   19.709162   24.518671 H          1 MOL1         0.0753
      18    C7      19.396187   18.953107   25.082010 C.2        1 MOL1         0.6174
      19    O1      18.935849   17.854833   25.324847 O.co2      1 MOL1        -0.6695
      20    O2      18.999843   19.978307   25.600684 O.co2      1 MOL1        -0.6695
@<TRIPOS>BOND
    1     1     2    1
    2     1     3    1
    3     1     4    2
    4     4     5    1
    5     4     6    1
    6     6     7    1
    7     6     8    1
    8     6     9    1
    9     9    10    1
   10     9    11    1
   11     9    12    1
   12    12    13    1
   13    12    14    1
   14    12    15    1
   15    15    16    1
   16    15    17    1
   17    15    18    1
   18    18    19    1
   19    18    20    2
@<TRIPOS>SUBSTRUCTURE
       1 MOL1            1 RESIDUE      1      MOL     
@<SCITEGIC>MOL_PROPERTY
VM2 Rank
SciTegic.value.IntegerValue
43

@<SCITEGIC>MOL_PROPERTY
Conf_Id
SciTegic.value.IntegerValue
69

@<SCITEGIC>MOL_PROPERTY
Probability
SciTegic.value.DoubleValue
0.16

@<SCITEGIC>MOL_PROPERTY
Sum Probability
SciTegic.value.DoubleValue
98.88

@<SCITEGIC>MOL_PROPERTY
Delta G
SciTegic.value.DoubleValue
2.636

@<SCITEGIC>MOL_PROPERTY
G
SciTegic.value.DoubleValue
-19.253

@<SCITEGIC>MOL_PROPERTY
E
SciTegic.value.DoubleValue
-34.999

@<SCITEGIC>MOL_PROPERTY
-TS
SciTegic.value.DoubleValue
15.745

@<SCITEGIC>MOL_PROPERTY
U+W
SciTegic.value.DoubleValue
-51.095

@<SCITEGIC>MOL_PROPERTY
U
SciTegic.value.DoubleValue
9.739

@<SCITEGIC>MOL_PROPERTY
W
SciTegic.value.DoubleValue
-60.834

@<SCITEGIC>MOL_PROPERTY
W(PB)
SciTegic.value.DoubleValue
-62.982

@<SCITEGIC>MOL_PROPERTY
W(SA)
SciTegic.value.DoubleValue
2.148

@<SCITEGIC>MOL_PROPERTY
Valence
SciTegic.value.DoubleValue
9.029

@<SCITEGIC>MOL_PROPERTY
Coulomb
SciTegic.value.DoubleValue
-0.281

@<SCITEGIC>MOL_PROPERTY
VdW
SciTegic.value.DoubleValue
0.990

@<SCITEGIC>MOL_PROPERTY
VdW6
SciTegic.value.DoubleValue
-8.096

@<SCITEGIC>MOL_PROPERTY
VdW12
SciTegic.value.DoubleValue
9.086

@<SCITEGIC>MOL_PROPERTY
Bond
SciTegic.value.DoubleValue
0.190

@<SCITEGIC>MOL_PROPERTY
Angle
SciTegic.value.DoubleValue
3.359

@<SCITEGIC>MOL_PROPERTY
Pdih
SciTegic.value.DoubleValue
5.480

@<SCITEGIC>MOL_PROPERTY
Idih
SciTegic.value.DoubleValue
0.000

@<SCITEGIC>MOL_PROPERTY
Tether
SciTegic.value.DoubleValue
0.000

@<TRIPOS>MOLECULE
guest-s22_vm2.mol2 : vm2 ligand conformer 44
          20          19           1
SMALL
USER_CHARGES
 
@<TRIPOS>ATOM
       1    C1      19.818870   17.413310   19.552624 C.2        1 MOL1        -0.2535
       2    H1      20.256516   16.935228   18.677927 H          1 MOL1         0.0845
       3    H2      19.234981   16.788038   20.226386 H          1 MOL1         0.0845
       4    C2      19.996294   18.715732   19.788988 C.2        1 MOL1        -0.1324
       5    H3      20.585083   19.324526   19.103231 H          1 MOL1         0.0833
       6    C3      19.418265   19.447081   20.980203 C.3        1 MOL1        -0.1813
       7    H4      18.628139   18.840497   21.442122 H          1 MOL1         0.0753
       8    H5      18.948398   20.381177   20.644908 H          1 MOL1         0.0753
       9    C4      20.513072   19.760643   22.024388 C.3        1 MOL1        -0.1855
      10    H6      20.928598   18.819961   22.411586 H          1 MOL1         0.0755
      11    H7      21.342183   20.281712   21.526419 H          1 MOL1         0.0755
      12    C5      20.015146   20.638453   23.199045 C.3        1 MOL1        -0.1855
      13    H8      19.653959   21.598210   22.805600 H          1 MOL1         0.0755
      14    H9      20.868247   20.874584   23.850091 H          1 MOL1         0.0755
      15    C6      18.897156   19.987974   24.059042 C.3        1 MOL1        -0.1958
      16    H10     18.601925   20.681676   24.854819 H          1 MOL1         0.0753
      17    H11     17.999888   19.808503   23.455942 H          1 MOL1         0.0753
      18    C7      19.306487   18.678837   24.728088 C.2        1 MOL1         0.6174
      19    O1      20.107106   18.728562   25.641347 O.co2      1 MOL1        -0.6695
      20    O2      18.798604   17.647408   24.334276 O.co2      1 MOL1        -0.6695
@<TRIPOS>BOND
    1     1     2    1
    2     1     3    1
    3     1     4    2
    4     4     5    1
    5     4     6    1
    6     6     7    1
    7     6     8    1
    8     6     9    1
    9     9    10    1
   10     9    11    1
   11     9    12    1
   12    12    13    1
   13    12    14    1
   14    12    15    1
   15    15    16    1
   16    15    17    1
   17    15    18    1
   18    18    19    1
   19    18    20    2
@<TRIPOS>SUBSTRUCTURE
       1 MOL1            1 RESIDUE      1      MOL     
@<SCITEGIC>MOL_PROPERTY
VM2 Rank
SciTegic.value.IntegerValue
44

@<SCITEGIC>MOL_PROPERTY
Conf_Id
SciTegic.value.IntegerValue
357

@<SCITEGIC>MOL_PROPERTY
Probability
SciTegic.value.DoubleValue
0.14

@<SCITEGIC>MOL_PROPERTY
Sum Probability
SciTegic.value.DoubleValue
99.02

@<SCITEGIC>MOL_PROPERTY
Delta G
SciTegic.value.DoubleValue
2.726

@<SCITEGIC>MOL_PROPERTY
G
SciTegic.value.DoubleValue
-19.163

@<SCITEGIC>MOL_PROPERTY
E
SciTegic.value.DoubleValue
-34.521

@<SCITEGIC>MOL_PROPERTY
-TS
SciTegic.value.DoubleValue
15.358

@<SCITEGIC>MOL_PROPERTY
U+W
SciTegic.value.DoubleValue
-50.618

@<SCITEGIC>MOL_PROPERTY
U
SciTegic.value.DoubleValue
11.125

@<SCITEGIC>MOL_PROPERTY
W
SciTegic.value.DoubleValue
-61.743

@<SCITEGIC>MOL_PROPERTY
W(PB)
SciTegic.value.DoubleValue
-63.911

@<SCITEGIC>MOL_PROPERTY
W(SA)
SciTegic.value.DoubleValue
2.168

@<SCITEGIC>MOL_PROPERTY
Valence
SciTegic.value.DoubleValue
9.852

@<SCITEGIC>MOL_PROPERTY
Coulomb
SciTegic.value.DoubleValue
0.992

@<SCITEGIC>MOL_PROPERTY
VdW
SciTegic.value.DoubleValue
0.281

@<SCITEGIC>MOL_PROPERTY
VdW6
SciTegic.value.DoubleValue
-7.705

@<SCITEGIC>MOL_PROPERTY
VdW12
SciTegic.value.DoubleValue
7.986

@<SCITEGIC>MOL_PROPERTY
Bond
SciTegic.value.DoubleValue
0.153

@<SCITEGIC>MOL_PROPERTY
Angle
SciTegic.value.DoubleValue
2.748

@<SCITEGIC>MOL_PROPERTY
Pdih
SciTegic.value.DoubleValue
6.950

@<SCITEGIC>MOL_PROPERTY
Idih
SciTegic.value.DoubleValue
0.001

@<SCITEGIC>MOL_PROPERTY
Tether
SciTegic.value.DoubleValue
0.000

@<TRIPOS>MOLECULE
guest-s22_vm2.mol2 : vm2 ligand conformer 45
          20          19           1
SMALL
USER_CHARGES
 
@<TRIPOS>ATOM
       1    C1      21.116548   17.804505   19.720555 C.2        1 MOL1        -0.2535
       2    H1      21.770107   17.552356   20.554299 H          1 MOL1         0.0845
       3    H2      21.228207   17.227975   18.803858 H          1 MOL1         0.0845
       4    C2      20.209586   18.780132   19.816574 C.2        1 MOL1        -0.1324
       5    H3      19.563761   19.016619   18.971264 H          1 MOL1         0.0833
       6    C3      19.999288   19.622496   21.055190 C.3        1 MOL1        -0.1813
       7    H4      19.947144   20.682595   20.773755 H          1 MOL1         0.0753
       8    H5      20.858598   19.513532   21.729966 H          1 MOL1         0.0753
       9    C4      18.703207   19.214794   21.790852 C.3        1 MOL1        -0.1855
      10    H6      17.867453   19.233670   21.078061 H          1 MOL1         0.0755
      11    H7      18.790618   18.175115   22.135659 H          1 MOL1         0.0755
      12    C5      18.352547   20.136954   22.984568 C.3        1 MOL1        -0.1855
      13    H8      17.385016   19.823762   23.400733 H          1 MOL1         0.0755
      14    H9      18.212322   21.163402   22.619699 H          1 MOL1         0.0755
      15    C6      19.407249   20.141898   24.124834 C.3        1 MOL1        -0.1958
      16    H10     20.368317   20.523153   23.761485 H          1 MOL1         0.0753
      17    H11     19.081834   20.826415   24.916785 H          1 MOL1         0.0753
      18    C7      19.634860   18.777868   24.770304 C.2        1 MOL1         0.6174
      19    O1      20.697658   18.220395   24.579094 O.co2      1 MOL1        -0.6695
      20    O2      18.750058   18.318957   25.466028 O.co2      1 MOL1        -0.6695
@<TRIPOS>BOND
    1     1     2    1
    2     1     3    1
    3     1     4    2
    4     4     5    1
    5     4     6    1
    6     6     7    1
    7     6     8    1
    8     6     9    1
    9     9    10    1
   10     9    11    1
   11     9    12    1
   12    12    13    1
   13    12    14    1
   14    12    15    1
   15    15    16    1
   16    15    17    1
   17    15    18    1
   18    18    19    1
   19    18    20    2
@<TRIPOS>SUBSTRUCTURE
       1 MOL1            1 RESIDUE      1      MOL     
@<SCITEGIC>MOL_PROPERTY
VM2 Rank
SciTegic.value.IntegerValue
45

@<SCITEGIC>MOL_PROPERTY
Conf_Id
SciTegic.value.IntegerValue
441

@<SCITEGIC>MOL_PROPERTY
Probability
SciTegic.value.DoubleValue
0.14

@<SCITEGIC>MOL_PROPERTY
Sum Probability
SciTegic.value.DoubleValue
99.16

@<SCITEGIC>MOL_PROPERTY
Delta G
SciTegic.value.DoubleValue
2.743

@<SCITEGIC>MOL_PROPERTY
G
SciTegic.value.DoubleValue
-19.147

@<SCITEGIC>MOL_PROPERTY
E
SciTegic.value.DoubleValue
-34.505

@<SCITEGIC>MOL_PROPERTY
-TS
SciTegic.value.DoubleValue
15.358

@<SCITEGIC>MOL_PROPERTY
U+W
SciTegic.value.DoubleValue
-50.601

@<SCITEGIC>MOL_PROPERTY
U
SciTegic.value.DoubleValue
11.126

@<SCITEGIC>MOL_PROPERTY
W
SciTegic.value.DoubleValue
-61.727

@<SCITEGIC>MOL_PROPERTY
W(PB)
SciTegic.value.DoubleValue
-63.877

@<SCITEGIC>MOL_PROPERTY
W(SA)
SciTegic.value.DoubleValue
2.149

@<SCITEGIC>MOL_PROPERTY
Valence
SciTegic.value.DoubleValue
9.852

@<SCITEGIC>MOL_PROPERTY
Coulomb
SciTegic.value.DoubleValue
0.993

@<SCITEGIC>MOL_PROPERTY
VdW
SciTegic.value.DoubleValue
0.281

@<SCITEGIC>MOL_PROPERTY
VdW6
SciTegic.value.DoubleValue
-7.706

@<SCITEGIC>MOL_PROPERTY
VdW12
SciTegic.value.DoubleValue
7.987

@<SCITEGIC>MOL_PROPERTY
Bond
SciTegic.value.DoubleValue
0.153

@<SCITEGIC>MOL_PROPERTY
Angle
SciTegic.value.DoubleValue
2.748

@<SCITEGIC>MOL_PROPERTY
Pdih
SciTegic.value.DoubleValue
6.950

@<SCITEGIC>MOL_PROPERTY
Idih
SciTegic.value.DoubleValue
0.001

@<SCITEGIC>MOL_PROPERTY
Tether
SciTegic.value.DoubleValue
0.000

@<TRIPOS>MOLECULE
guest-s22_vm2.mol2 : vm2 ligand conformer 46
          20          19           1
SMALL
USER_CHARGES
 
@<TRIPOS>ATOM
       1    C1      19.732431   17.311359   20.164588 C.2        1 MOL1        -0.2535
       2    H1      18.649934   17.207536   20.217532 H          1 MOL1         0.0845
       3    H2      20.319349   16.399301   20.071264 H          1 MOL1         0.0845
       4    C2      20.321635   18.509164   20.215097 C.2        1 MOL1        -0.1324
       5    H3      21.406987   18.589100   20.161158 H          1 MOL1         0.0833
       6    C3      19.575190   19.820484   20.343988 C.3        1 MOL1        -0.1813
       7    H4      18.490051   19.655882   20.386123 H          1 MOL1         0.0753
       8    H5      19.761740   20.407167   19.434679 H          1 MOL1         0.0753
       9    C4      20.029371   20.668132   21.558199 C.3        1 MOL1        -0.1855
      10    H6      21.125754   20.668906   21.628022 H          1 MOL1         0.0755
      11    H7      19.739814   21.710664   21.367954 H          1 MOL1         0.0755
      12    C5      19.409430   20.251365   22.915632 C.3        1 MOL1        -0.1855
      13    H8      18.313487   20.244082   22.838703 H          1 MOL1         0.0755
      14    H9      19.660277   21.019927   23.659844 H          1 MOL1         0.0755
      15    C6      19.899797   18.879973   23.445821 C.3        1 MOL1        -0.1958
      16    H10     19.537432   18.069545   22.805587 H          1 MOL1         0.0753
      17    H11     20.995397   18.838864   23.438075 H          1 MOL1         0.0753
      18    C7      19.423709   18.591376   24.864856 C.2        1 MOL1         0.6174
      19    O1      20.140896   18.921933   25.788622 O.co2      1 MOL1        -0.6695
      20    O2      18.338540   18.064215   25.011197 O.co2      1 MOL1        -0.6695
@<TRIPOS>BOND
    1     1     2    1
    2     1     3    1
    3     1     4    2
    4     4     5    1
    5     4     6    1
    6     6     7    1
    7     6     8    1
    8     6     9    1
    9     9    10    1
   10     9    11    1
   11     9    12    1
   12    12    13    1
   13    12    14    1
   14    12    15    1
   15    15    16    1
   16    15    17    1
   17    15    18    1
   18    18    19    1
   19    18    20    2
@<TRIPOS>SUBSTRUCTURE
       1 MOL1            1 RESIDUE      1      MOL     
@<SCITEGIC>MOL_PROPERTY
VM2 Rank
SciTegic.value.IntegerValue
46

@<SCITEGIC>MOL_PROPERTY
Conf_Id
SciTegic.value.IntegerValue
197

@<SCITEGIC>MOL_PROPERTY
Probability
SciTegic.value.DoubleValue
0.11

@<SCITEGIC>MOL_PROPERTY
Sum Probability
SciTegic.value.DoubleValue
99.27

@<SCITEGIC>MOL_PROPERTY
Delta G
SciTegic.value.DoubleValue
2.873

@<SCITEGIC>MOL_PROPERTY
G
SciTegic.value.DoubleValue
-19.016

@<SCITEGIC>MOL_PROPERTY
E
SciTegic.value.DoubleValue
-34.233

@<SCITEGIC>MOL_PROPERTY
-TS
SciTegic.value.DoubleValue
15.216

@<SCITEGIC>MOL_PROPERTY
U+W
SciTegic.value.DoubleValue
-50.329

@<SCITEGIC>MOL_PROPERTY
U
SciTegic.value.DoubleValue
11.028

@<SCITEGIC>MOL_PROPERTY
W
SciTegic.value.DoubleValue
-61.357

@<SCITEGIC>MOL_PROPERTY
W(PB)
SciTegic.value.DoubleValue
-63.524

@<SCITEGIC>MOL_PROPERTY
W(SA)
SciTegic.value.DoubleValue
2.167

@<SCITEGIC>MOL_PROPERTY
Valence
SciTegic.value.DoubleValue
11.008

@<SCITEGIC>MOL_PROPERTY
Coulomb
SciTegic.value.DoubleValue
-0.464

@<SCITEGIC>MOL_PROPERTY
VdW
SciTegic.value.DoubleValue
0.484

@<SCITEGIC>MOL_PROPERTY
VdW6
SciTegic.value.DoubleValue
-7.638

@<SCITEGIC>MOL_PROPERTY
VdW12
SciTegic.value.DoubleValue
8.122

@<SCITEGIC>MOL_PROPERTY
Bond
SciTegic.value.DoubleValue
0.158

@<SCITEGIC>MOL_PROPERTY
Angle
SciTegic.value.DoubleValue
3.060

@<SCITEGIC>MOL_PROPERTY
Pdih
SciTegic.value.DoubleValue
7.789

@<SCITEGIC>MOL_PROPERTY
Idih
SciTegic.value.DoubleValue
0.001

@<SCITEGIC>MOL_PROPERTY
Tether
SciTegic.value.DoubleValue
0.000

@<TRIPOS>MOLECULE
guest-s22_vm2.mol2 : vm2 ligand conformer 47
          20          19           1
SMALL
USER_CHARGES
 
@<TRIPOS>ATOM
       1    C1      18.863963   17.705496   20.056135 C.2        1 MOL1        -0.2535
       2    H1      19.465898   16.837291   20.319342 H          1 MOL1         0.0845
       3    H2      17.831363   17.528369   19.760516 H          1 MOL1         0.0845
       4    C2      19.368124   18.941895   20.095951 C.2        1 MOL1        -0.1324
       5    H3      18.746828   19.796300   19.828987 H          1 MOL1         0.0833
       6    C3      20.791774   19.268422   20.495874 C.3        1 MOL1        -0.1813
       7    H4      21.294708   19.711616   19.626118 H          1 MOL1         0.0753
       8    H5      21.352428   18.356955   20.743445 H          1 MOL1         0.0753
       9    C4      20.883867   20.280261   21.664972 C.3        1 MOL1        -0.1855
      10    H6      21.881980   20.738326   21.635677 H          1 MOL1         0.0755
      11    H7      20.171600   21.101995   21.508901 H          1 MOL1         0.0755
      12    C5      20.691492   19.669241   23.075750 C.3        1 MOL1        -0.1855
      13    H8      20.950946   20.433854   23.821078 H          1 MOL1         0.0755
      14    H9      21.399821   18.842596   23.224040 H          1 MOL1         0.0755
      15    C6      19.251378   19.174523   23.364918 C.3        1 MOL1        -0.1958
      16    H10     18.524625   19.961072   23.129852 H          1 MOL1         0.0753
      17    H11     19.010480   18.309023   22.739717 H          1 MOL1         0.0753
      18    C7      19.050125   18.760900   24.818199 C.2        1 MOL1         0.6174
      19    O1      18.651559   19.598945   25.602925 O.co2      1 MOL1        -0.6695
      20    O2      19.318717   17.618318   25.133277 O.co2      1 MOL1        -0.6695
@<TRIPOS>BOND
    1     1     2    1
    2     1     3    1
    3     1     4    2
    4     4     5    1
    5     4     6    1
    6     6     7    1
    7     6     8    1
    8     6     9    1
    9     9    10    1
   10     9    11    1
   11     9    12    1
   12    12    13    1
   13    12    14    1
   14    12    15    1
   15    15    16    1
   16    15    17    1
   17    15    18    1
   18    18    19    1
   19    18    20    2
@<TRIPOS>SUBSTRUCTURE
       1 MOL1            1 RESIDUE      1      MOL     
@<SCITEGIC>MOL_PROPERTY
VM2 Rank
SciTegic.value.IntegerValue
47

@<SCITEGIC>MOL_PROPERTY
Conf_Id
SciTegic.value.IntegerValue
731

@<SCITEGIC>MOL_PROPERTY
Probability
SciTegic.value.DoubleValue
0.11

@<SCITEGIC>MOL_PROPERTY
Sum Probability
SciTegic.value.DoubleValue
99.38

@<SCITEGIC>MOL_PROPERTY
Delta G
SciTegic.value.DoubleValue
2.877

@<SCITEGIC>MOL_PROPERTY
G
SciTegic.value.DoubleValue
-19.013

@<SCITEGIC>MOL_PROPERTY
E
SciTegic.value.DoubleValue
-34.229

@<SCITEGIC>MOL_PROPERTY
-TS
SciTegic.value.DoubleValue
15.216

@<SCITEGIC>MOL_PROPERTY
U+W
SciTegic.value.DoubleValue
-50.326

@<SCITEGIC>MOL_PROPERTY
U
SciTegic.value.DoubleValue
11.028

@<SCITEGIC>MOL_PROPERTY
W
SciTegic.value.DoubleValue
-61.354

@<SCITEGIC>MOL_PROPERTY
W(PB)
SciTegic.value.DoubleValue
-63.504

@<SCITEGIC>MOL_PROPERTY
W(SA)
SciTegic.value.DoubleValue
2.150

@<SCITEGIC>MOL_PROPERTY
Valence
SciTegic.value.DoubleValue
11.007

@<SCITEGIC>MOL_PROPERTY
Coulomb
SciTegic.value.DoubleValue
-0.463

@<SCITEGIC>MOL_PROPERTY
VdW
SciTegic.value.DoubleValue
0.484

@<SCITEGIC>MOL_PROPERTY
VdW6
SciTegic.value.DoubleValue
-7.638

@<SCITEGIC>MOL_PROPERTY
VdW12
SciTegic.value.DoubleValue
8.122

@<SCITEGIC>MOL_PROPERTY
Bond
SciTegic.value.DoubleValue
0.158

@<SCITEGIC>MOL_PROPERTY
Angle
SciTegic.value.DoubleValue
3.060

@<SCITEGIC>MOL_PROPERTY
Pdih
SciTegic.value.DoubleValue
7.789

@<SCITEGIC>MOL_PROPERTY
Idih
SciTegic.value.DoubleValue
0.001

@<SCITEGIC>MOL_PROPERTY
Tether
SciTegic.value.DoubleValue
0.000

@<TRIPOS>MOLECULE
guest-s22_vm2.mol2 : vm2 ligand conformer 48
          20          19           1
SMALL
USER_CHARGES
 
@<TRIPOS>ATOM
       1    C1      21.339497   19.720215   20.598630 C.2        1 MOL1        -0.2535
       2    H1      22.340429   19.846172   20.189754 H          1 MOL1         0.0845
       3    H2      21.180671   20.055198   21.621607 H          1 MOL1         0.0845
       4    C2      20.362716   19.178941   19.861950 C.2        1 MOL1        -0.1324
       5    H3      20.582651   18.863413   18.842403 H          1 MOL1         0.0833
       6    C3      18.924048   18.936104   20.291392 C.3        1 MOL1        -0.1813
       7    H4      18.608830   17.946723   19.933821 H          1 MOL1         0.0753
       8    H5      18.277843   19.651502   19.765694 H          1 MOL1         0.0753
       9    C4      18.642130   19.023278   21.811823 C.3        1 MOL1        -0.1855
      10    H6      18.975399   19.995247   22.199325 H          1 MOL1         0.0755
      11    H7      17.555215   18.992351   21.967693 H          1 MOL1         0.0755
      12    C5      19.289158   17.865909   22.610408 C.3        1 MOL1        -0.1855
      13    H8      20.377145   17.861895   22.461773 H          1 MOL1         0.0755
      14    H9      18.917423   16.908158   22.222270 H          1 MOL1         0.0755
      15    C6      18.983737   17.947765   24.128403 C.3        1 MOL1        -0.1958
      16    H10     17.900420   17.977528   24.296552 H          1 MOL1         0.0753
      17    H11     19.358142   17.045843   24.626687 H          1 MOL1         0.0753
      18    C7      19.618170   19.149841   24.822447 C.2        1 MOL1         0.6174
      19    O1      20.807383   19.106649   25.069330 O.co2      1 MOL1        -0.6695
      20    O2      18.904161   20.089297   25.113616 O.co2      1 MOL1        -0.6695
@<TRIPOS>BOND
    1     1     2    1
    2     1     3    1
    3     1     4    2
    4     4     5    1
    5     4     6    1
    6     6     7    1
    7     6     8    1
    8     6     9    1
    9     9    10    1
   10     9    11    1
   11     9    12    1
   12    12    13    1
   13    12    14    1
   14    12    15    1
   15    15    16    1
   16    15    17    1
   17    15    18    1
   18    18    19    1
   19    18    20    2
@<TRIPOS>SUBSTRUCTURE
       1 MOL1            1 RESIDUE      1      MOL     
@<SCITEGIC>MOL_PROPERTY
VM2 Rank
SciTegic.value.IntegerValue
48

@<SCITEGIC>MOL_PROPERTY
Conf_Id
SciTegic.value.IntegerValue
318

@<SCITEGIC>MOL_PROPERTY
Probability
SciTegic.value.DoubleValue
0.10

@<SCITEGIC>MOL_PROPERTY
Sum Probability
SciTegic.value.DoubleValue
99.48

@<SCITEGIC>MOL_PROPERTY
Delta G
SciTegic.value.DoubleValue
2.909

@<SCITEGIC>MOL_PROPERTY
G
SciTegic.value.DoubleValue
-18.980

@<SCITEGIC>MOL_PROPERTY
E
SciTegic.value.DoubleValue
-34.808

@<SCITEGIC>MOL_PROPERTY
-TS
SciTegic.value.DoubleValue
15.828

@<SCITEGIC>MOL_PROPERTY
U+W
SciTegic.value.DoubleValue
-50.905

@<SCITEGIC>MOL_PROPERTY
U
SciTegic.value.DoubleValue
11.075

@<SCITEGIC>MOL_PROPERTY
W
SciTegic.value.DoubleValue
-61.980

@<SCITEGIC>MOL_PROPERTY
W(PB)
SciTegic.value.DoubleValue
-64.111

@<SCITEGIC>MOL_PROPERTY
W(SA)
SciTegic.value.DoubleValue
2.131

@<SCITEGIC>MOL_PROPERTY
Valence
SciTegic.value.DoubleValue
8.972

@<SCITEGIC>MOL_PROPERTY
Coulomb
SciTegic.value.DoubleValue
1.262

@<SCITEGIC>MOL_PROPERTY
VdW
SciTegic.value.DoubleValue
0.841

@<SCITEGIC>MOL_PROPERTY
VdW6
SciTegic.value.DoubleValue
-8.354

@<SCITEGIC>MOL_PROPERTY
VdW12
SciTegic.value.DoubleValue
9.195

@<SCITEGIC>MOL_PROPERTY
Bond
SciTegic.value.DoubleValue
0.189

@<SCITEGIC>MOL_PROPERTY
Angle
SciTegic.value.DoubleValue
3.355

@<SCITEGIC>MOL_PROPERTY
Pdih
SciTegic.value.DoubleValue
5.428

@<SCITEGIC>MOL_PROPERTY
Idih
SciTegic.value.DoubleValue
0.001

@<SCITEGIC>MOL_PROPERTY
Tether
SciTegic.value.DoubleValue
0.000

@<TRIPOS>MOLECULE
guest-s22_vm2.mol2 : vm2 ligand conformer 49
          20          19           1
SMALL
USER_CHARGES
 
@<TRIPOS>ATOM
       1    C1      18.391276   18.832622   20.218476 C.2        1 MOL1        -0.2535
       2    H1      17.610985   18.422469   19.579862 H          1 MOL1         0.0845
       3    H2      18.098875   19.127482   21.224200 H          1 MOL1         0.0845
       4    C2      19.644744   18.962743   19.769407 C.2        1 MOL1        -0.1324
       5    H3      19.876453   18.650872   18.751344 H          1 MOL1         0.0833
       6    C3      20.836687   19.511913   20.538067 C.3        1 MOL1        -0.1813
       7    H4      21.091101   20.498452   20.128495 H          1 MOL1         0.0753
       8    H5      21.712142   18.881001   20.334052 H          1 MOL1         0.0753
       9    C4      20.662423   19.631523   22.072378 C.3        1 MOL1        -0.1855
      10    H6      21.519248   20.185800   22.478903 H          1 MOL1         0.0755
      11    H7      19.774910   20.235959   22.302436 H          1 MOL1         0.0755
      12    C5      20.584122   18.255799   22.777455 C.3        1 MOL1        -0.1855
      13    H8      21.495106   17.684252   22.554819 H          1 MOL1         0.0755
      14    H9      19.743804   17.671168   22.380091 H          1 MOL1         0.0755
      15    C6      20.432135   18.383929   24.315238 C.3        1 MOL1        -0.1958
      16    H10     20.504748   17.391151   24.774640 H          1 MOL1         0.0753
      17    H11     21.250098   18.986242   24.728627 H          1 MOL1         0.0753
      18    C7      19.105177   18.995395   24.756237 C.2        1 MOL1         0.6174
      19    O1      19.101954   20.148985   25.138840 O.co2      1 MOL1        -0.6695
      20    O2      18.112484   18.295090   24.721902 O.co2      1 MOL1        -0.6695
@<TRIPOS>BOND
    1     1     2    1
    2     1     3    1
    3     1     4    2
    4     4     5    1
    5     4     6    1
    6     6     7    1
    7     6     8    1
    8     6     9    1
    9     9    10    1
   10     9    11    1
   11     9    12    1
   12    12    13    1
   13    12    14    1
   14    12    15    1
   15    15    16    1
   16    15    17    1
   17    15    18    1
   18    18    19    1
   19    18    20    2
@<TRIPOS>SUBSTRUCTURE
       1 MOL1            1 RESIDUE      1      MOL     
@<SCITEGIC>MOL_PROPERTY
VM2 Rank
SciTegic.value.IntegerValue
49

@<SCITEGIC>MOL_PROPERTY
Conf_Id
SciTegic.value.IntegerValue
736

@<SCITEGIC>MOL_PROPERTY
Probability
SciTegic.value.DoubleValue
0.10

@<SCITEGIC>MOL_PROPERTY
Sum Probability
SciTegic.value.DoubleValue
99.58

@<SCITEGIC>MOL_PROPERTY
Delta G
SciTegic.value.DoubleValue
2.928

@<SCITEGIC>MOL_PROPERTY
G
SciTegic.value.DoubleValue
-18.961

@<SCITEGIC>MOL_PROPERTY
E
SciTegic.value.DoubleValue
-34.790

@<SCITEGIC>MOL_PROPERTY
-TS
SciTegic.value.DoubleValue
15.828

@<SCITEGIC>MOL_PROPERTY
U+W
SciTegic.value.DoubleValue
-50.886

@<SCITEGIC>MOL_PROPERTY
U
SciTegic.value.DoubleValue
11.075

@<SCITEGIC>MOL_PROPERTY
W
SciTegic.value.DoubleValue
-61.962

@<SCITEGIC>MOL_PROPERTY
W(PB)
SciTegic.value.DoubleValue
-64.098

@<SCITEGIC>MOL_PROPERTY
W(SA)
SciTegic.value.DoubleValue
2.136

@<SCITEGIC>MOL_PROPERTY
Valence
SciTegic.value.DoubleValue
8.972

@<SCITEGIC>MOL_PROPERTY
Coulomb
SciTegic.value.DoubleValue
1.262

@<SCITEGIC>MOL_PROPERTY
VdW
SciTegic.value.DoubleValue
0.841

@<SCITEGIC>MOL_PROPERTY
VdW6
SciTegic.value.DoubleValue
-8.354

@<SCITEGIC>MOL_PROPERTY
VdW12
SciTegic.value.DoubleValue
9.195

@<SCITEGIC>MOL_PROPERTY
Bond
SciTegic.value.DoubleValue
0.189

@<SCITEGIC>MOL_PROPERTY
Angle
SciTegic.value.DoubleValue
3.355

@<SCITEGIC>MOL_PROPERTY
Pdih
SciTegic.value.DoubleValue
5.428

@<SCITEGIC>MOL_PROPERTY
Idih
SciTegic.value.DoubleValue
0.001

@<SCITEGIC>MOL_PROPERTY
Tether
SciTegic.value.DoubleValue
0.000

@<TRIPOS>MOLECULE
guest-s22_vm2.mol2 : vm2 ligand conformer 50
          20          19           1
SMALL
USER_CHARGES
 
@<TRIPOS>ATOM
       1    C1      19.993428   18.678047   18.843136 C.2        1 MOL1        -0.2535
       2    H1      19.828176   19.670693   18.427437 H          1 MOL1         0.0845
       3    H2      20.402798   17.918468   18.179358 H          1 MOL1         0.0845
       4    C2      19.709068   18.399789   20.118043 C.2        1 MOL1        -0.1324
       5    H3      19.879758   17.399048   20.513777 H          1 MOL1         0.0833
       6    C3      19.133807   19.401113   21.096796 C.3        1 MOL1        -0.1813
       7    H4      18.316888   18.942256   21.668657 H          1 MOL1         0.0753
       8    H5      18.681227   20.237599   20.547542 H          1 MOL1         0.0753
       9    C4      20.204030   19.968142   22.060025 C.3        1 MOL1        -0.1855
      10    H6      20.965319   20.497259   21.470696 H          1 MOL1         0.0755
      11    H7      19.737349   20.725801   22.704334 H          1 MOL1         0.0755
      12    C5      20.906692   18.906882   22.945511 C.3        1 MOL1        -0.1855
      13    H8      21.660554   19.410175   23.566455 H          1 MOL1         0.0755
      14    H9      21.459173   18.204755   22.307170 H          1 MOL1         0.0755
      15    C6      19.950360   18.108511   23.872989 C.3        1 MOL1        -0.1958
      16    H10     19.229972   17.532506   23.281127 H          1 MOL1         0.0753
      17    H11     20.530080   17.379532   24.451023 H          1 MOL1         0.0753
      18    C7      19.184042   18.973038   24.869929 C.2        1 MOL1         0.6174
      19    O1      19.797329   19.447345   25.806077 O.co2      1 MOL1        -0.6695
      20    O2      17.992244   19.135133   24.695495 O.co2      1 MOL1        -0.6695
@<TRIPOS>BOND
    1     1     2    1
    2     1     3    1
    3     1     4    2
    4     4     5    1
    5     4     6    1
    6     6     7    1
    7     6     8    1
    8     6     9    1
    9     9    10    1
   10     9    11    1
   11     9    12    1
   12    12    13    1
   13    12    14    1
   14    12    15    1
   15    15    16    1
   16    15    17    1
   17    15    18    1
   18    18    19    1
   19    18    20    2
@<TRIPOS>SUBSTRUCTURE
       1 MOL1            1 RESIDUE      1      MOL     
@<SCITEGIC>MOL_PROPERTY
VM2 Rank
SciTegic.value.IntegerValue
50

@<SCITEGIC>MOL_PROPERTY
Conf_Id
SciTegic.value.IntegerValue
477

@<SCITEGIC>MOL_PROPERTY
Probability
SciTegic.value.DoubleValue
0.07

@<SCITEGIC>MOL_PROPERTY
Sum Probability
SciTegic.value.DoubleValue
99.65

@<SCITEGIC>MOL_PROPERTY
Delta G
SciTegic.value.DoubleValue
3.140

@<SCITEGIC>MOL_PROPERTY
G
SciTegic.value.DoubleValue
-18.749

@<SCITEGIC>MOL_PROPERTY
E
SciTegic.value.DoubleValue
-34.408

@<SCITEGIC>MOL_PROPERTY
-TS
SciTegic.value.DoubleValue
15.659

@<SCITEGIC>MOL_PROPERTY
U+W
SciTegic.value.DoubleValue
-50.505

@<SCITEGIC>MOL_PROPERTY
U
SciTegic.value.DoubleValue
10.403

@<SCITEGIC>MOL_PROPERTY
W
SciTegic.value.DoubleValue
-60.907

@<SCITEGIC>MOL_PROPERTY
W(PB)
SciTegic.value.DoubleValue
-63.052

@<SCITEGIC>MOL_PROPERTY
W(SA)
SciTegic.value.DoubleValue
2.145

@<SCITEGIC>MOL_PROPERTY
Valence
SciTegic.value.DoubleValue
10.022

@<SCITEGIC>MOL_PROPERTY
Coulomb
SciTegic.value.DoubleValue
0.092

@<SCITEGIC>MOL_PROPERTY
VdW
SciTegic.value.DoubleValue
0.289

@<SCITEGIC>MOL_PROPERTY
VdW6
SciTegic.value.DoubleValue
-8.408

@<SCITEGIC>MOL_PROPERTY
VdW12
SciTegic.value.DoubleValue
8.697

@<SCITEGIC>MOL_PROPERTY
Bond
SciTegic.value.DoubleValue
0.179

@<SCITEGIC>MOL_PROPERTY
Angle
SciTegic.value.DoubleValue
2.939

@<SCITEGIC>MOL_PROPERTY
Pdih
SciTegic.value.DoubleValue
6.902

@<SCITEGIC>MOL_PROPERTY
Idih
SciTegic.value.DoubleValue
0.001

@<SCITEGIC>MOL_PROPERTY
Tether
SciTegic.value.DoubleValue
0.000

@<TRIPOS>MOLECULE
guest-s22_vm2.mol2 : vm2 ligand conformer 51
          20          19           1
SMALL
USER_CHARGES
 
@<TRIPOS>ATOM
       1    C1      20.452452   18.816388   18.902374 C.2        1 MOL1        -0.2535
       2    H1      20.690730   18.005235   18.216518 H          1 MOL1         0.0845
       3    H2      20.142021   19.765270   18.467960 H          1 MOL1         0.0845
       4    C2      20.536108   18.649068   20.224751 C.2        1 MOL1        -0.1324
       5    H3      20.851313   17.691894   20.639103 H          1 MOL1         0.0833
       6    C3      20.226633   19.730513   21.237780 C.3        1 MOL1        -0.1813
       7    H4      20.263995   20.714673   20.751726 H          1 MOL1         0.0753
       8    H5      21.001510   19.751459   22.014992 H          1 MOL1         0.0753
       9    C4      18.831114   19.554320   21.882908 C.3        1 MOL1        -0.1855
      10    H6      18.644665   20.396460   22.563354 H          1 MOL1         0.0755
      11    H7      18.066902   19.623596   21.096768 H          1 MOL1         0.0755
      12    C5      18.636245   18.222536   22.652628 C.3        1 MOL1        -0.1855
      13    H8      18.721894   17.379694   21.954074 H          1 MOL1         0.0755
      14    H9      17.610119   18.189315   23.043966 H          1 MOL1         0.0755
      15    C6      19.625460   18.010586   23.831067 C.3        1 MOL1        -0.1958
      16    H10     19.420428   17.045066   24.307871 H          1 MOL1         0.0753
      17    H11     20.657412   17.962768   23.465242 H          1 MOL1         0.0753
      18    C7      19.540209   19.080392   24.915867 C.2        1 MOL1         0.6174
      19    O1      20.453129   19.876776   25.013002 O.co2      1 MOL1        -0.6695
      20    O2      18.569651   19.077422   25.647623 O.co2      1 MOL1        -0.6695
@<TRIPOS>BOND
    1     1     2    1
    2     1     3    1
    3     1     4    2
    4     4     5    1
    5     4     6    1
    6     6     7    1
    7     6     8    1
    8     6     9    1
    9     9    10    1
   10     9    11    1
   11     9    12    1
   12    12    13    1
   13    12    14    1
   14    12    15    1
   15    15    16    1
   16    15    17    1
   17    15    18    1
   18    18    19    1
   19    18    20    2
@<TRIPOS>SUBSTRUCTURE
       1 MOL1            1 RESIDUE      1      MOL     
@<SCITEGIC>MOL_PROPERTY
VM2 Rank
SciTegic.value.IntegerValue
51

@<SCITEGIC>MOL_PROPERTY
Conf_Id
SciTegic.value.IntegerValue
285

@<SCITEGIC>MOL_PROPERTY
Probability
SciTegic.value.DoubleValue
0.07

@<SCITEGIC>MOL_PROPERTY
Sum Probability
SciTegic.value.DoubleValue
99.72

@<SCITEGIC>MOL_PROPERTY
Delta G
SciTegic.value.DoubleValue
3.153

@<SCITEGIC>MOL_PROPERTY
G
SciTegic.value.DoubleValue
-18.737

@<SCITEGIC>MOL_PROPERTY
E
SciTegic.value.DoubleValue
-34.396

@<SCITEGIC>MOL_PROPERTY
-TS
SciTegic.value.DoubleValue
15.659

@<SCITEGIC>MOL_PROPERTY
U+W
SciTegic.value.DoubleValue
-50.492

@<SCITEGIC>MOL_PROPERTY
U
SciTegic.value.DoubleValue
10.403

@<SCITEGIC>MOL_PROPERTY
W
SciTegic.value.DoubleValue
-60.895

@<SCITEGIC>MOL_PROPERTY
W(PB)
SciTegic.value.DoubleValue
-63.043

@<SCITEGIC>MOL_PROPERTY
W(SA)
SciTegic.value.DoubleValue
2.148

@<SCITEGIC>MOL_PROPERTY
Valence
SciTegic.value.DoubleValue
10.022

@<SCITEGIC>MOL_PROPERTY
Coulomb
SciTegic.value.DoubleValue
0.092

@<SCITEGIC>MOL_PROPERTY
VdW
SciTegic.value.DoubleValue
0.289

@<SCITEGIC>MOL_PROPERTY
VdW6
SciTegic.value.DoubleValue
-8.408

@<SCITEGIC>MOL_PROPERTY
VdW12
SciTegic.value.DoubleValue
8.697

@<SCITEGIC>MOL_PROPERTY
Bond
SciTegic.value.DoubleValue
0.179

@<SCITEGIC>MOL_PROPERTY
Angle
SciTegic.value.DoubleValue
2.939

@<SCITEGIC>MOL_PROPERTY
Pdih
SciTegic.value.DoubleValue
6.902

@<SCITEGIC>MOL_PROPERTY
Idih
SciTegic.value.DoubleValue
0.001

@<SCITEGIC>MOL_PROPERTY
Tether
SciTegic.value.DoubleValue
0.000

@<TRIPOS>MOLECULE
guest-s22_vm2.mol2 : vm2 ligand conformer 52
          20          19           1
SMALL
USER_CHARGES
 
@<TRIPOS>ATOM
       1    C1      20.898359   17.948973   19.883084 C.2        1 MOL1        -0.2535
       2    H1      21.562698   17.644214   20.689915 H          1 MOL1         0.0845
       3    H2      20.856496   17.312605   19.000881 H          1 MOL1         0.0845
       4    C2      20.159460   19.058275   19.969719 C.2        1 MOL1        -0.1324
       5    H3      19.499112   19.344411   19.151598 H          1 MOL1         0.0833
       6    C3      20.162910   19.990709   21.162467 C.3        1 MOL1        -0.1813
       7    H4      20.356967   21.014113   20.815329 H          1 MOL1         0.0753
       8    H5      20.984322   19.744066   21.847980 H          1 MOL1         0.0753
       9    C4      18.816660   19.976190   21.925439 C.3        1 MOL1        -0.1855
      10    H6      18.856742   20.718064   22.734737 H          1 MOL1         0.0755
      11    H7      18.020091   20.309874   21.246628 H          1 MOL1         0.0755
      12    C5      18.425675   18.596295   22.514200 C.3        1 MOL1        -0.1855
      13    H8      18.311822   17.869921   21.698433 H          1 MOL1         0.0755
      14    H9      17.437813   18.681485   22.987423 H          1 MOL1         0.0755
      15    C6      19.430869   18.035439   23.556866 C.3        1 MOL1        -0.1958
      16    H10     19.082667   17.056726   23.906684 H          1 MOL1         0.0753
      17    H11     20.411290   17.869196   23.096514 H          1 MOL1         0.0753
      18    C7      19.611943   18.920215   24.786738 C.2        1 MOL1         0.6174
      19    O1      20.659058   19.524018   24.913649 O.co2      1 MOL1        -0.6695
      20    O2      18.706066   18.967886   25.595838 O.co2      1 MOL1        -0.6695
@<TRIPOS>BOND
    1     1     2    1
    2     1     3    1
    3     1     4    2
    4     4     5    1
    5     4     6    1
    6     6     7    1
    7     6     8    1
    8     6     9    1
    9     9    10    1
   10     9    11    1
   11     9    12    1
   12    12    13    1
   13    12    14    1
   14    12    15    1
   15    15    16    1
   16    15    17    1
   17    15    18    1
   18    18    19    1
   19    18    20    2
@<TRIPOS>SUBSTRUCTURE
       1 MOL1            1 RESIDUE      1      MOL     
@<SCITEGIC>MOL_PROPERTY
VM2 Rank
SciTegic.value.IntegerValue
52

@<SCITEGIC>MOL_PROPERTY
Conf_Id
SciTegic.value.IntegerValue
718

@<SCITEGIC>MOL_PROPERTY
Probability
SciTegic.value.DoubleValue
0.05

@<SCITEGIC>MOL_PROPERTY
Sum Probability
SciTegic.value.DoubleValue
99.77

@<SCITEGIC>MOL_PROPERTY
Delta G
SciTegic.value.DoubleValue
3.305

@<SCITEGIC>MOL_PROPERTY
G
SciTegic.value.DoubleValue
-18.585

@<SCITEGIC>MOL_PROPERTY
E
SciTegic.value.DoubleValue
-34.368

@<SCITEGIC>MOL_PROPERTY
-TS
SciTegic.value.DoubleValue
15.783

@<SCITEGIC>MOL_PROPERTY
U+W
SciTegic.value.DoubleValue
-50.464

@<SCITEGIC>MOL_PROPERTY
U
SciTegic.value.DoubleValue
10.910

@<SCITEGIC>MOL_PROPERTY
W
SciTegic.value.DoubleValue
-61.374

@<SCITEGIC>MOL_PROPERTY
W(PB)
SciTegic.value.DoubleValue
-63.513

@<SCITEGIC>MOL_PROPERTY
W(SA)
SciTegic.value.DoubleValue
2.139

@<SCITEGIC>MOL_PROPERTY
Valence
SciTegic.value.DoubleValue
9.972

@<SCITEGIC>MOL_PROPERTY
Coulomb
SciTegic.value.DoubleValue
0.850

@<SCITEGIC>MOL_PROPERTY
VdW
SciTegic.value.DoubleValue
0.088

@<SCITEGIC>MOL_PROPERTY
VdW6
SciTegic.value.DoubleValue
-8.717

@<SCITEGIC>MOL_PROPERTY
VdW12
SciTegic.value.DoubleValue
8.804

@<SCITEGIC>MOL_PROPERTY
Bond
SciTegic.value.DoubleValue
0.178

@<SCITEGIC>MOL_PROPERTY
Angle
SciTegic.value.DoubleValue
2.916

@<SCITEGIC>MOL_PROPERTY
Pdih
SciTegic.value.DoubleValue
6.877

@<SCITEGIC>MOL_PROPERTY
Idih
SciTegic.value.DoubleValue
0.001

@<SCITEGIC>MOL_PROPERTY
Tether
SciTegic.value.DoubleValue
0.000

@<TRIPOS>MOLECULE
guest-s22_vm2.mol2 : vm2 ligand conformer 53
          20          19           1
SMALL
USER_CHARGES
 
@<TRIPOS>ATOM
       1    C1      20.559375   17.988486   19.171110 C.2        1 MOL1        -0.2535
       2    H1      21.596090   17.933881   19.499443 H          1 MOL1         0.0845
       3    H2      20.350673   17.751952   18.129128 H          1 MOL1         0.0845
       4    C2      19.579372   18.334042   20.010088 C.2        1 MOL1        -0.1324
       5    H3      18.548041   18.383433   19.661528 H          1 MOL1         0.0833
       6    C3      19.792320   18.674668   21.468371 C.3        1 MOL1        -0.1813
       7    H4      20.790809   18.351743   21.793185 H          1 MOL1         0.0753
       8    H5      19.065878   18.119794   22.074538 H          1 MOL1         0.0753
       9    C4      19.635097   20.191856   21.712327 C.3        1 MOL1        -0.1855
      10    H6      20.266863   20.727958   20.990611 H          1 MOL1         0.0755
      11    H7      18.600587   20.494376   21.500009 H          1 MOL1         0.0755
      12    C5      20.032945   20.649573   23.137690 C.3        1 MOL1        -0.1855
      13    H8      20.019615   21.747782   23.152409 H          1 MOL1         0.0755
      14    H9      21.070531   20.357353   23.351366 H          1 MOL1         0.0755
      15    C6      19.095875   20.142962   24.269952 C.3        1 MOL1        -0.1958
      16    H10     19.237087   20.770392   25.157580 H          1 MOL1         0.0753
      17    H11     18.046145   20.252640   23.971910 H          1 MOL1         0.0753
      18    C7      19.336557   18.703029   24.718873 C.2        1 MOL1         0.6174
      19    O1      20.437151   18.406730   25.141339 O.co2      1 MOL1        -0.6695
      20    O2      18.402307   17.926653   24.678249 O.co2      1 MOL1        -0.6695
@<TRIPOS>BOND
    1     1     2    1
    2     1     3    1
    3     1     4    2
    4     4     5    1
    5     4     6    1
    6     6     7    1
    7     6     8    1
    8     6     9    1
    9     9    10    1
   10     9    11    1
   11     9    12    1
   12    12    13    1
   13    12    14    1
   14    12    15    1
   15    15    16    1
   16    15    17    1
   17    15    18    1
   18    18    19    1
   19    18    20    2
@<TRIPOS>SUBSTRUCTURE
       1 MOL1            1 RESIDUE      1      MOL     
@<SCITEGIC>MOL_PROPERTY
VM2 Rank
SciTegic.value.IntegerValue
53

@<SCITEGIC>MOL_PROPERTY
Conf_Id
SciTegic.value.IntegerValue
121

@<SCITEGIC>MOL_PROPERTY
Probability
SciTegic.value.DoubleValue
0.03

@<SCITEGIC>MOL_PROPERTY
Sum Probability
SciTegic.value.DoubleValue
99.80

@<SCITEGIC>MOL_PROPERTY
Delta G
SciTegic.value.DoubleValue
3.646

@<SCITEGIC>MOL_PROPERTY
G
SciTegic.value.DoubleValue
-18.244

@<SCITEGIC>MOL_PROPERTY
E
SciTegic.value.DoubleValue
-33.768

@<SCITEGIC>MOL_PROPERTY
-TS
SciTegic.value.DoubleValue
15.524

@<SCITEGIC>MOL_PROPERTY
U+W
SciTegic.value.DoubleValue
-49.864

@<SCITEGIC>MOL_PROPERTY
U
SciTegic.value.DoubleValue
11.756

@<SCITEGIC>MOL_PROPERTY
W
SciTegic.value.DoubleValue
-61.620

@<SCITEGIC>MOL_PROPERTY
W(PB)
SciTegic.value.DoubleValue
-63.781

@<SCITEGIC>MOL_PROPERTY
W(SA)
SciTegic.value.DoubleValue
2.162

@<SCITEGIC>MOL_PROPERTY
Valence
SciTegic.value.DoubleValue
10.982

@<SCITEGIC>MOL_PROPERTY
Coulomb
SciTegic.value.DoubleValue
0.363

@<SCITEGIC>MOL_PROPERTY
VdW
SciTegic.value.DoubleValue
0.411

@<SCITEGIC>MOL_PROPERTY
VdW6
SciTegic.value.DoubleValue
-8.036

@<SCITEGIC>MOL_PROPERTY
VdW12
SciTegic.value.DoubleValue
8.447

@<SCITEGIC>MOL_PROPERTY
Bond
SciTegic.value.DoubleValue
0.168

@<SCITEGIC>MOL_PROPERTY
Angle
SciTegic.value.DoubleValue
3.178

@<SCITEGIC>MOL_PROPERTY
Pdih
SciTegic.value.DoubleValue
7.632

@<SCITEGIC>MOL_PROPERTY
Idih
SciTegic.value.DoubleValue
0.005

@<SCITEGIC>MOL_PROPERTY
Tether
SciTegic.value.DoubleValue
0.000

@<TRIPOS>MOLECULE
guest-s22_vm2.mol2 : vm2 ligand conformer 54
          20          19           1
SMALL
USER_CHARGES
 
@<TRIPOS>ATOM
       1    C1      20.131248   19.887103   19.054526 C.2        1 MOL1        -0.2535
       2    H1      19.869140   19.888300   17.997866 H          1 MOL1         0.0845
       3    H2      21.035670   20.418130   19.347095 H          1 MOL1         0.0845
       4    C2      19.371594   19.255652   19.953355 C.2        1 MOL1        -0.1324
       5    H3      18.470402   18.729159   19.639932 H          1 MOL1         0.0833
       6    C3      19.671100   19.211386   21.435346 C.3        1 MOL1        -0.1813
       7    H4      18.761324   19.468496   21.991446 H          1 MOL1         0.0753
       8    H5      20.426415   19.965910   21.694110 H          1 MOL1         0.0753
       9    C4      20.171746   17.812700   21.858576 C.3        1 MOL1        -0.1855
      10    H6      19.372144   17.074177   21.710147 H          1 MOL1         0.0755
      11    H7      20.990964   17.518380   21.188004 H          1 MOL1         0.0755
      12    C5      20.689356   17.738811   23.316680 C.3        1 MOL1        -0.1855
      13    H8      21.496264   18.469417   23.467506 H          1 MOL1         0.0755
      14    H9      21.146579   16.750416   23.459785 H          1 MOL1         0.0755
      15    C6      19.596129   17.924273   24.406281 C.3        1 MOL1        -0.1958
      16    H10     18.702357   17.342362   24.150660 H          1 MOL1         0.0753
      17    H11     19.968578   17.525698   25.357024 H          1 MOL1         0.0753
      18    C7      19.186100   19.370322   24.677725 C.2        1 MOL1         0.6174
      19    O1      20.042745   20.155750   25.033867 O.co2      1 MOL1        -0.6695
      20    O2      18.010981   19.662003   24.571644 O.co2      1 MOL1        -0.6695
@<TRIPOS>BOND
    1     1     2    1
    2     1     3    1
    3     1     4    2
    4     4     5    1
    5     4     6    1
    6     6     7    1
    7     6     8    1
    8     6     9    1
    9     9    10    1
   10     9    11    1
   11     9    12    1
   12    12    13    1
   13    12    14    1
   14    12    15    1
   15    15    16    1
   16    15    17    1
   17    15    18    1
   18    18    19    1
   19    18    20    2
@<TRIPOS>SUBSTRUCTURE
       1 MOL1            1 RESIDUE      1      MOL     
@<SCITEGIC>MOL_PROPERTY
VM2 Rank
SciTegic.value.IntegerValue
54

@<SCITEGIC>MOL_PROPERTY
Conf_Id
SciTegic.value.IntegerValue
189

@<SCITEGIC>MOL_PROPERTY
Probability
SciTegic.value.DoubleValue
0.03

@<SCITEGIC>MOL_PROPERTY
Sum Probability
SciTegic.value.DoubleValue
99.83

@<SCITEGIC>MOL_PROPERTY
Delta G
SciTegic.value.DoubleValue
3.701

@<SCITEGIC>MOL_PROPERTY
G
SciTegic.value.DoubleValue
-18.189

@<SCITEGIC>MOL_PROPERTY
E
SciTegic.value.DoubleValue
-33.713

@<SCITEGIC>MOL_PROPERTY
-TS
SciTegic.value.DoubleValue
15.524

@<SCITEGIC>MOL_PROPERTY
U+W
SciTegic.value.DoubleValue
-49.809

@<SCITEGIC>MOL_PROPERTY
U
SciTegic.value.DoubleValue
11.755

@<SCITEGIC>MOL_PROPERTY
W
SciTegic.value.DoubleValue
-61.564

@<SCITEGIC>MOL_PROPERTY
W(PB)
SciTegic.value.DoubleValue
-63.745

@<SCITEGIC>MOL_PROPERTY
W(SA)
SciTegic.value.DoubleValue
2.181

@<SCITEGIC>MOL_PROPERTY
Valence
SciTegic.value.DoubleValue
10.982

@<SCITEGIC>MOL_PROPERTY
Coulomb
SciTegic.value.DoubleValue
0.362

@<SCITEGIC>MOL_PROPERTY
VdW
SciTegic.value.DoubleValue
0.411

@<SCITEGIC>MOL_PROPERTY
VdW6
SciTegic.value.DoubleValue
-8.036

@<SCITEGIC>MOL_PROPERTY
VdW12
SciTegic.value.DoubleValue
8.447

@<SCITEGIC>MOL_PROPERTY
Bond
SciTegic.value.DoubleValue
0.168

@<SCITEGIC>MOL_PROPERTY
Angle
SciTegic.value.DoubleValue
3.178

@<SCITEGIC>MOL_PROPERTY
Pdih
SciTegic.value.DoubleValue
7.632

@<SCITEGIC>MOL_PROPERTY
Idih
SciTegic.value.DoubleValue
0.005

@<SCITEGIC>MOL_PROPERTY
Tether
SciTegic.value.DoubleValue
0.000

@<TRIPOS>MOLECULE
guest-s22_vm2.mol2 : vm2 ligand conformer 55
          20          19           1
SMALL
USER_CHARGES
 
@<TRIPOS>ATOM
       1    C1      20.624864   19.076117   19.134993 C.2        1 MOL1        -0.2535
       2    H1      20.975681   19.476383   18.185324 H          1 MOL1         0.0845
       3    H2      20.663912   17.995784   19.256937 H          1 MOL1         0.0845
       4    C2      20.175080   19.891357   20.095749 C.2        1 MOL1        -0.1324
       5    H3      20.162622   20.966094   19.915908 H          1 MOL1         0.0833
       6    C3      19.654039   19.483310   21.463741 C.3        1 MOL1        -0.1813
       7    H4      18.678143   19.960379   21.625504 H          1 MOL1         0.0753
       8    H5      20.321706   19.903999   22.225190 H          1 MOL1         0.0753
       9    C4      19.508443   17.956774   21.677805 C.3        1 MOL1        -0.1855
      10    H6      18.923757   17.539204   20.846756 H          1 MOL1         0.0755
      11    H7      20.497707   17.481024   21.636232 H          1 MOL1         0.0755
      12    C5      18.800696   17.567720   22.999939 C.3        1 MOL1        -0.1855
      13    H8      18.626698   16.483399   22.978934 H          1 MOL1         0.0755
      14    H9      17.805626   18.031773   23.045689 H          1 MOL1         0.0755
      15    C6      19.600519   17.899642   24.291185 C.3        1 MOL1        -0.1958
      16    H10     19.211485   17.293525   25.117472 H          1 MOL1         0.0753
      17    H11     20.654275   17.621990   24.167461 H          1 MOL1         0.0753
      18    C7      19.520852   19.353910   24.751425 C.2        1 MOL1         0.6174
      19    O1      20.560913   19.963314   24.906658 O.co2      1 MOL1        -0.6695
      20    O2      18.425593   19.825855   24.986506 O.co2      1 MOL1        -0.6695
@<TRIPOS>BOND
    1     1     2    1
    2     1     3    1
    3     1     4    2
    4     4     5    1
    5     4     6    1
    6     6     7    1
    7     6     8    1
    8     6     9    1
    9     9    10    1
   10     9    11    1
   11     9    12    1
   12    12    13    1
   13    12    14    1
   14    12    15    1
   15    15    16    1
   16    15    17    1
   17    15    18    1
   18    18    19    1
   19    18    20    2
@<TRIPOS>SUBSTRUCTURE
       1 MOL1            1 RESIDUE      1      MOL     
@<SCITEGIC>MOL_PROPERTY
VM2 Rank
SciTegic.value.IntegerValue
55

@<SCITEGIC>MOL_PROPERTY
Conf_Id
SciTegic.value.IntegerValue
455

@<SCITEGIC>MOL_PROPERTY
Probability
SciTegic.value.DoubleValue
0.03

@<SCITEGIC>MOL_PROPERTY
Sum Probability
SciTegic.value.DoubleValue
99.86

@<SCITEGIC>MOL_PROPERTY
Delta G
SciTegic.value.DoubleValue
3.742

@<SCITEGIC>MOL_PROPERTY
G
SciTegic.value.DoubleValue
-18.148

@<SCITEGIC>MOL_PROPERTY
E
SciTegic.value.DoubleValue
-34.009

@<SCITEGIC>MOL_PROPERTY
-TS
SciTegic.value.DoubleValue
15.861

@<SCITEGIC>MOL_PROPERTY
U+W
SciTegic.value.DoubleValue
-50.106

@<SCITEGIC>MOL_PROPERTY
U
SciTegic.value.DoubleValue
11.478

@<SCITEGIC>MOL_PROPERTY
W
SciTegic.value.DoubleValue
-61.583

@<SCITEGIC>MOL_PROPERTY
W(PB)
SciTegic.value.DoubleValue
-63.742

@<SCITEGIC>MOL_PROPERTY
W(SA)
SciTegic.value.DoubleValue
2.159

@<SCITEGIC>MOL_PROPERTY
Valence
SciTegic.value.DoubleValue
9.964

@<SCITEGIC>MOL_PROPERTY
Coulomb
SciTegic.value.DoubleValue
0.355

@<SCITEGIC>MOL_PROPERTY
VdW
SciTegic.value.DoubleValue
1.159

@<SCITEGIC>MOL_PROPERTY
VdW6
SciTegic.value.DoubleValue
-8.702

@<SCITEGIC>MOL_PROPERTY
VdW12
SciTegic.value.DoubleValue
9.861

@<SCITEGIC>MOL_PROPERTY
Bond
SciTegic.value.DoubleValue
0.227

@<SCITEGIC>MOL_PROPERTY
Angle
SciTegic.value.DoubleValue
3.805

@<SCITEGIC>MOL_PROPERTY
Pdih
SciTegic.value.DoubleValue
5.927

@<SCITEGIC>MOL_PROPERTY
Idih
SciTegic.value.DoubleValue
0.004

@<SCITEGIC>MOL_PROPERTY
Tether
SciTegic.value.DoubleValue
0.000

@<TRIPOS>MOLECULE
guest-s22_vm2.mol2 : vm2 ligand conformer 56
          20          19           1
SMALL
USER_CHARGES
 
@<TRIPOS>ATOM
       1    C1      18.744498   18.677851   19.264211 C.2        1 MOL1        -0.2535
       2    H1      18.703523   18.670166   18.176335 H          1 MOL1         0.0845
       3    H2      17.995833   18.094692   19.798175 H          1 MOL1         0.0845
       4    C2      19.679507   19.375018   19.914934 C.2        1 MOL1        -0.1324
       5    H3      20.420042   19.952346   19.361871 H          1 MOL1         0.0833
       6    C3      19.797495   19.434465   21.421884 C.3        1 MOL1        -0.1813
       7    H4      18.872212   19.064209   21.880625 H          1 MOL1         0.0753
       8    H5      19.914851   20.478744   21.740954 H          1 MOL1         0.0753
       9    C4      20.999252   18.600326   21.918090 C.3        1 MOL1        -0.1855
      10    H6      20.826054   17.538680   21.694702 H          1 MOL1         0.0755
      11    H7      21.889911   18.893635   21.345529 H          1 MOL1         0.0755
      12    C5      21.313726   18.774818   23.424803 C.3        1 MOL1        -0.1855
      13    H8      21.496756   19.834428   23.651378 H          1 MOL1         0.0755
      14    H9      22.258644   18.254457   23.631727 H          1 MOL1         0.0755
      15    C6      20.232411   18.206276   24.386306 C.3        1 MOL1        -0.1958
      16    H10     19.899524   17.219464   24.042496 H          1 MOL1         0.0753
      17    H11     20.677504   18.059547   25.377180 H          1 MOL1         0.0753
      18    C7      19.009826   19.098370   24.592481 C.2        1 MOL1         0.6174
      19    O1      19.181705   20.223087   25.020390 O.co2      1 MOL1        -0.6695
      20    O2      17.912580   18.627788   24.364903 O.co2      1 MOL1        -0.6695
@<TRIPOS>BOND
    1     1     2    1
    2     1     3    1
    3     1     4    2
    4     4     5    1
    5     4     6    1
    6     6     7    1
    7     6     8    1
    8     6     9    1
    9     9    10    1
   10     9    11    1
   11     9    12    1
   12    12    13    1
   13    12    14    1
   14    12    15    1
   15    15    16    1
   16    15    17    1
   17    15    18    1
   18    18    19    1
   19    18    20    2
@<TRIPOS>SUBSTRUCTURE
       1 MOL1            1 RESIDUE      1      MOL     
@<SCITEGIC>MOL_PROPERTY
VM2 Rank
SciTegic.value.IntegerValue
56

@<SCITEGIC>MOL_PROPERTY
Conf_Id
SciTegic.value.IntegerValue
111

@<SCITEGIC>MOL_PROPERTY
Probability
SciTegic.value.DoubleValue
0.03

@<SCITEGIC>MOL_PROPERTY
Sum Probability
SciTegic.value.DoubleValue
99.88

@<SCITEGIC>MOL_PROPERTY
Delta G
SciTegic.value.DoubleValue
3.743

@<SCITEGIC>MOL_PROPERTY
G
SciTegic.value.DoubleValue
-18.146

@<SCITEGIC>MOL_PROPERTY
E
SciTegic.value.DoubleValue
-33.661

@<SCITEGIC>MOL_PROPERTY
-TS
SciTegic.value.DoubleValue
15.514

@<SCITEGIC>MOL_PROPERTY
U+W
SciTegic.value.DoubleValue
-49.757

@<SCITEGIC>MOL_PROPERTY
U
SciTegic.value.DoubleValue
12.063

@<SCITEGIC>MOL_PROPERTY
W
SciTegic.value.DoubleValue
-61.820

@<SCITEGIC>MOL_PROPERTY
W(PB)
SciTegic.value.DoubleValue
-64.024

@<SCITEGIC>MOL_PROPERTY
W(SA)
SciTegic.value.DoubleValue
2.204

@<SCITEGIC>MOL_PROPERTY
Valence
SciTegic.value.DoubleValue
10.980

@<SCITEGIC>MOL_PROPERTY
Coulomb
SciTegic.value.DoubleValue
0.681

@<SCITEGIC>MOL_PROPERTY
VdW
SciTegic.value.DoubleValue
0.402

@<SCITEGIC>MOL_PROPERTY
VdW6
SciTegic.value.DoubleValue
-8.075

@<SCITEGIC>MOL_PROPERTY
VdW12
SciTegic.value.DoubleValue
8.477

@<SCITEGIC>MOL_PROPERTY
Bond
SciTegic.value.DoubleValue
0.169

@<SCITEGIC>MOL_PROPERTY
Angle
SciTegic.value.DoubleValue
3.169

@<SCITEGIC>MOL_PROPERTY
Pdih
SciTegic.value.DoubleValue
7.637

@<SCITEGIC>MOL_PROPERTY
Idih
SciTegic.value.DoubleValue
0.005

@<SCITEGIC>MOL_PROPERTY
Tether
SciTegic.value.DoubleValue
0.000

@<TRIPOS>MOLECULE
guest-s22_vm2.mol2 : vm2 ligand conformer 57
          20          19           1
SMALL
USER_CHARGES
 
@<TRIPOS>ATOM
       1    C1      19.659329   18.785267   19.010248 C.2        1 MOL1        -0.2535
       2    H1      20.187823   17.852523   19.195166 H          1 MOL1         0.0845
       3    H2      19.379994   18.995665   17.979298 H          1 MOL1         0.0845
       4    C2      19.353856   19.643847   19.989790 C.2        1 MOL1        -0.1324
       5    H3      18.820397   20.561470   19.742915 H          1 MOL1         0.0833
       6    C3      19.676999   19.490109   21.466723 C.3        1 MOL1        -0.1813
       7    H4      18.732496   19.424669   22.020074 H          1 MOL1         0.0753
       8    H5      20.165925   20.408752   21.817694 H          1 MOL1         0.0753
       9    C4      20.575467   18.278287   21.815384 C.3        1 MOL1        -0.1855
      10    H6      20.046972   17.345026   21.577841 H          1 MOL1         0.0755
      11    H7      21.467606   18.305982   21.174926 H          1 MOL1         0.0755
      12    C5      21.049461   18.245315   23.290017 C.3        1 MOL1        -0.1855
      13    H8      21.588260   19.171554   23.533702 H          1 MOL1         0.0755
      14    H9      21.784650   17.434950   23.386330 H          1 MOL1         0.0755
      15    C6      19.923289   17.996905   24.332721 C.3        1 MOL1        -0.1958
      16    H10     19.253776   17.200223   23.986524 H          1 MOL1         0.0753
      17    H11     20.374073   17.643606   25.267307 H          1 MOL1         0.0753
      18    C7      19.089101   19.223839   24.695811 C.2        1 MOL1         0.6174
      19    O1      19.660453   20.197682   25.146117 O.co2      1 MOL1        -0.6695
      20    O2      17.883044   19.156750   24.561190 O.co2      1 MOL1        -0.6695
@<TRIPOS>BOND
    1     1     2    1
    2     1     3    1
    3     1     4    2
    4     4     5    1
    5     4     6    1
    6     6     7    1
    7     6     8    1
    8     6     9    1
    9     9    10    1
   10     9    11    1
   11     9    12    1
   12    12    13    1
   13    12    14    1
   14    12    15    1
   15    15    16    1
   16    15    17    1
   17    15    18    1
   18    18    19    1
   19    18    20    2
@<TRIPOS>SUBSTRUCTURE
       1 MOL1            1 RESIDUE      1      MOL     
@<SCITEGIC>MOL_PROPERTY
VM2 Rank
SciTegic.value.IntegerValue
57

@<SCITEGIC>MOL_PROPERTY
Conf_Id
SciTegic.value.IntegerValue
265

@<SCITEGIC>MOL_PROPERTY
Probability
SciTegic.value.DoubleValue
0.03

@<SCITEGIC>MOL_PROPERTY
Sum Probability
SciTegic.value.DoubleValue
99.91

@<SCITEGIC>MOL_PROPERTY
Delta G
SciTegic.value.DoubleValue
3.751

@<SCITEGIC>MOL_PROPERTY
G
SciTegic.value.DoubleValue
-18.138

@<SCITEGIC>MOL_PROPERTY
E
SciTegic.value.DoubleValue
-34.001

@<SCITEGIC>MOL_PROPERTY
-TS
SciTegic.value.DoubleValue
15.863

@<SCITEGIC>MOL_PROPERTY
U+W
SciTegic.value.DoubleValue
-50.098

@<SCITEGIC>MOL_PROPERTY
U
SciTegic.value.DoubleValue
11.477

@<SCITEGIC>MOL_PROPERTY
W
SciTegic.value.DoubleValue
-61.575

@<SCITEGIC>MOL_PROPERTY
W(PB)
SciTegic.value.DoubleValue
-63.705

@<SCITEGIC>MOL_PROPERTY
W(SA)
SciTegic.value.DoubleValue
2.130

@<SCITEGIC>MOL_PROPERTY
Valence
SciTegic.value.DoubleValue
9.964

@<SCITEGIC>MOL_PROPERTY
Coulomb
SciTegic.value.DoubleValue
0.354

@<SCITEGIC>MOL_PROPERTY
VdW
SciTegic.value.DoubleValue
1.159

@<SCITEGIC>MOL_PROPERTY
VdW6
SciTegic.value.DoubleValue
-8.702

@<SCITEGIC>MOL_PROPERTY
VdW12
SciTegic.value.DoubleValue
9.861

@<SCITEGIC>MOL_PROPERTY
Bond
SciTegic.value.DoubleValue
0.227

@<SCITEGIC>MOL_PROPERTY
Angle
SciTegic.value.DoubleValue
3.805

@<SCITEGIC>MOL_PROPERTY
Pdih
SciTegic.value.DoubleValue
5.927

@<SCITEGIC>MOL_PROPERTY
Idih
SciTegic.value.DoubleValue
0.004

@<SCITEGIC>MOL_PROPERTY
Tether
SciTegic.value.DoubleValue
0.000

@<TRIPOS>MOLECULE
guest-s22_vm2.mol2 : vm2 ligand conformer 58
          20          19           1
SMALL
USER_CHARGES
 
@<TRIPOS>ATOM
       1    C1      20.212615   17.571041   19.479301 C.2        1 MOL1        -0.2535
       2    H1      20.416395   17.378904   18.427269 H          1 MOL1         0.0845
       3    H2      19.753876   16.769115   20.055639 H          1 MOL1         0.0845
       4    C2      20.512905   18.746781   20.037139 C.2        1 MOL1        -0.1324
       5    H3      20.971533   19.536755   19.442851 H          1 MOL1         0.0833
       6    C3      20.260872   19.085012   21.489873 C.3        1 MOL1        -0.1813
       7    H4      21.162162   19.538134   21.923988 H          1 MOL1         0.0753
       8    H5      20.063653   18.165707   22.055263 H          1 MOL1         0.0753
       9    C4      19.068367   20.056136   21.635055 C.3        1 MOL1        -0.1855
      10    H6      19.222518   20.904848   20.954574 H          1 MOL1         0.0755
      11    H7      18.147359   19.558377   21.301934 H          1 MOL1         0.0755
      12    C5      18.874811   20.613516   23.067320 C.3        1 MOL1        -0.1855
      13    H8      18.099376   21.390120   23.022049 H          1 MOL1         0.0755
      14    H9      19.790712   21.120596   23.401390 H          1 MOL1         0.0755
      15    C6      18.437214   19.559598   24.123133 C.3        1 MOL1        -0.1958
      16    H10     18.000397   20.077620   24.984709 H          1 MOL1         0.0753
      17    H11     17.650683   18.914813   23.712723 H          1 MOL1         0.0753
      18    C7      19.560622   18.683067   24.673326 C.2        1 MOL1         0.6174
      19    O1      20.504178   19.226161   25.214057 O.co2      1 MOL1        -0.6695
      20    O2      19.439416   17.476688   24.588796 O.co2      1 MOL1        -0.6695
@<TRIPOS>BOND
    1     1     2    1
    2     1     3    1
    3     1     4    2
    4     4     5    1
    5     4     6    1
    6     6     7    1
    7     6     8    1
    8     6     9    1
    9     9    10    1
   10     9    11    1
   11     9    12    1
   12    12    13    1
   13    12    14    1
   14    12    15    1
   15    15    16    1
   16    15    17    1
   17    15    18    1
   18    18    19    1
   19    18    20    2
@<TRIPOS>SUBSTRUCTURE
       1 MOL1            1 RESIDUE      1      MOL     
@<SCITEGIC>MOL_PROPERTY
VM2 Rank
SciTegic.value.IntegerValue
58

@<SCITEGIC>MOL_PROPERTY
Conf_Id
SciTegic.value.IntegerValue
767

@<SCITEGIC>MOL_PROPERTY
Probability
SciTegic.value.DoubleValue
0.03

@<SCITEGIC>MOL_PROPERTY
Sum Probability
SciTegic.value.DoubleValue
99.93

@<SCITEGIC>MOL_PROPERTY
Delta G
SciTegic.value.DoubleValue
3.756

@<SCITEGIC>MOL_PROPERTY
G
SciTegic.value.DoubleValue
-18.134

@<SCITEGIC>MOL_PROPERTY
E
SciTegic.value.DoubleValue
-33.648

@<SCITEGIC>MOL_PROPERTY
-TS
SciTegic.value.DoubleValue
15.514

@<SCITEGIC>MOL_PROPERTY
U+W
SciTegic.value.DoubleValue
-49.745

@<SCITEGIC>MOL_PROPERTY
U
SciTegic.value.DoubleValue
12.064

@<SCITEGIC>MOL_PROPERTY
W
SciTegic.value.DoubleValue
-61.809

@<SCITEGIC>MOL_PROPERTY
W(PB)
SciTegic.value.DoubleValue
-63.984

@<SCITEGIC>MOL_PROPERTY
W(SA)
SciTegic.value.DoubleValue
2.176

@<SCITEGIC>MOL_PROPERTY
Valence
SciTegic.value.DoubleValue
10.981

@<SCITEGIC>MOL_PROPERTY
Coulomb
SciTegic.value.DoubleValue
0.682

@<SCITEGIC>MOL_PROPERTY
VdW
SciTegic.value.DoubleValue
0.402

@<SCITEGIC>MOL_PROPERTY
VdW6
SciTegic.value.DoubleValue
-8.075

@<SCITEGIC>MOL_PROPERTY
VdW12
SciTegic.value.DoubleValue
8.477

@<SCITEGIC>MOL_PROPERTY
Bond
SciTegic.value.DoubleValue
0.169

@<SCITEGIC>MOL_PROPERTY
Angle
SciTegic.value.DoubleValue
3.169

@<SCITEGIC>MOL_PROPERTY
Pdih
SciTegic.value.DoubleValue
7.637

@<SCITEGIC>MOL_PROPERTY
Idih
SciTegic.value.DoubleValue
0.005

@<SCITEGIC>MOL_PROPERTY
Tether
SciTegic.value.DoubleValue
0.000

@<TRIPOS>MOLECULE
guest-s22_vm2.mol2 : vm2 ligand conformer 59
          20          19           1
SMALL
USER_CHARGES
 
@<TRIPOS>ATOM
       1    C1      20.710576   18.946437   19.405950 C.2        1 MOL1        -0.2535
       2    H1      21.012990   17.943523   19.699221 H          1 MOL1         0.0845
       3    H2      21.290868   19.427818   18.620801 H          1 MOL1         0.0845
       4    C2      19.671157   19.570427   19.970662 C.2        1 MOL1        -0.1324
       5    H3      19.408380   20.574142   19.637788 H          1 MOL1         0.0833
       6    C3      18.781924   19.022978   21.074951 C.3        1 MOL1        -0.1813
       7    H4      17.863979   18.625111   20.622757 H          1 MOL1         0.0753
       8    H5      18.444105   19.854520   21.706614 H          1 MOL1         0.0753
       9    C4      19.417582   17.935169   21.979594 C.3        1 MOL1        -0.1855
      10    H6      18.653684   17.574783   22.682034 H          1 MOL1         0.0755
      11    H7      19.689184   17.064811   21.368012 H          1 MOL1         0.0755
      12    C5      20.658226   18.403112   22.785007 C.3        1 MOL1        -0.1855
      13    H8      21.457935   18.697693   22.093455 H          1 MOL1         0.0755
      14    H9      21.048797   17.549747   23.356181 H          1 MOL1         0.0755
      15    C6      20.384495   19.574866   23.767043 C.3        1 MOL1        -0.1958
      16    H10     21.313993   19.838412   24.284868 H          1 MOL1         0.0753
      17    H11     20.070440   20.471074   23.220067 H          1 MOL1         0.0753
      18    C7      19.341611   19.262616   24.836306 C.2        1 MOL1         0.6174
      19    O1      19.651348   18.503290   25.733522 O.co2      1 MOL1        -0.6695
      20    O2      18.254081   19.799104   24.754965 O.co2      1 MOL1        -0.6695
@<TRIPOS>BOND
    1     1     2    1
    2     1     3    1
    3     1     4    2
    4     4     5    1
    5     4     6    1
    6     6     7    1
    7     6     8    1
    8     6     9    1
    9     9    10    1
   10     9    11    1
   11     9    12    1
   12    12    13    1
   13    12    14    1
   14    12    15    1
   15    15    16    1
   16    15    17    1
   17    15    18    1
   18    18    19    1
   19    18    20    2
@<TRIPOS>SUBSTRUCTURE
       1 MOL1            1 RESIDUE      1      MOL     
@<SCITEGIC>MOL_PROPERTY
VM2 Rank
SciTegic.value.IntegerValue
59

@<SCITEGIC>MOL_PROPERTY
Conf_Id
SciTegic.value.IntegerValue
86

@<SCITEGIC>MOL_PROPERTY
Probability
SciTegic.value.DoubleValue
0.02

@<SCITEGIC>MOL_PROPERTY
Sum Probability
SciTegic.value.DoubleValue
99.96

@<SCITEGIC>MOL_PROPERTY
Delta G
SciTegic.value.DoubleValue
3.789

@<SCITEGIC>MOL_PROPERTY
G
SciTegic.value.DoubleValue
-18.100

@<SCITEGIC>MOL_PROPERTY
E
SciTegic.value.DoubleValue
-33.959

@<SCITEGIC>MOL_PROPERTY
-TS
SciTegic.value.DoubleValue
15.858

@<SCITEGIC>MOL_PROPERTY
U+W
SciTegic.value.DoubleValue
-50.055

@<SCITEGIC>MOL_PROPERTY
U
SciTegic.value.DoubleValue
11.092

@<SCITEGIC>MOL_PROPERTY
W
SciTegic.value.DoubleValue
-61.147

@<SCITEGIC>MOL_PROPERTY
W(PB)
SciTegic.value.DoubleValue
-63.273

@<SCITEGIC>MOL_PROPERTY
W(SA)
SciTegic.value.DoubleValue
2.126

@<SCITEGIC>MOL_PROPERTY
Valence
SciTegic.value.DoubleValue
9.664

@<SCITEGIC>MOL_PROPERTY
Coulomb
SciTegic.value.DoubleValue
0.659

@<SCITEGIC>MOL_PROPERTY
VdW
SciTegic.value.DoubleValue
0.769

@<SCITEGIC>MOL_PROPERTY
VdW6
SciTegic.value.DoubleValue
-9.171

@<SCITEGIC>MOL_PROPERTY
VdW12
SciTegic.value.DoubleValue
9.939

@<SCITEGIC>MOL_PROPERTY
Bond
SciTegic.value.DoubleValue
0.244

@<SCITEGIC>MOL_PROPERTY
Angle
SciTegic.value.DoubleValue
3.658

@<SCITEGIC>MOL_PROPERTY
Pdih
SciTegic.value.DoubleValue
5.762

@<SCITEGIC>MOL_PROPERTY
Idih
SciTegic.value.DoubleValue
0.001

@<SCITEGIC>MOL_PROPERTY
Tether
SciTegic.value.DoubleValue
0.000

@<TRIPOS>MOLECULE
guest-s22_vm2.mol2 : vm2 ligand conformer 60
          20          19           1
SMALL
USER_CHARGES
 
@<TRIPOS>ATOM
       1    C1      20.484201   18.401007   19.395415 C.2        1 MOL1        -0.2535
       2    H1      20.564038   17.676440   18.586989 H          1 MOL1         0.0845
       3    H2      21.403656   18.884978   19.717395 H          1 MOL1         0.0845
       4    C2      19.300705   18.677855   19.953402 C.2        1 MOL1        -0.1324
       5    H3      18.409230   18.166502   19.591340 H          1 MOL1         0.0833
       6    C3      19.045094   19.657124   21.087238 C.3        1 MOL1        -0.1813
       7    H4      18.209250   19.288673   21.695671 H          1 MOL1         0.0753
       8    H5      18.684647   20.602556   20.661049 H          1 MOL1         0.0753
       9    C4      20.251624   19.944840   22.018515 C.3        1 MOL1        -0.1855
      10    H6      21.067892   20.386929   21.432351 H          1 MOL1         0.0755
      11    H7      19.957598   20.716627   22.742900 H          1 MOL1         0.0755
      12    C5      20.785558   18.709868   22.790924 C.3        1 MOL1        -0.1855
      13    H8      21.657591   19.016671   23.384595 H          1 MOL1         0.0755
      14    H9      21.151342   17.958818   22.079107 H          1 MOL1         0.0755
      15    C6      19.749351   18.044346   23.737328 C.3        1 MOL1        -0.1958
      16    H10     18.900706   17.652347   23.165366 H          1 MOL1         0.0753
      17    H11     20.212160   17.183345   24.233364 H          1 MOL1         0.0753
      18    C7      19.219139   18.967511   24.830519 C.2        1 MOL1         0.6174
      19    O1      19.962923   19.254119   25.748206 O.co2      1 MOL1        -0.6695
      20    O2      18.072405   19.361330   24.746452 O.co2      1 MOL1        -0.6695
@<TRIPOS>BOND
    1     1     2    1
    2     1     3    1
    3     1     4    2
    4     4     5    1
    5     4     6    1
    6     6     7    1
    7     6     8    1
    8     6     9    1
    9     9    10    1
   10     9    11    1
   11     9    12    1
   12    12    13    1
   13    12    14    1
   14    12    15    1
   15    15    16    1
   16    15    17    1
   17    15    18    1
   18    18    19    1
   19    18    20    2
@<TRIPOS>SUBSTRUCTURE
       1 MOL1            1 RESIDUE      1      MOL     
@<SCITEGIC>MOL_PROPERTY
VM2 Rank
SciTegic.value.IntegerValue
60

@<SCITEGIC>MOL_PROPERTY
Conf_Id
SciTegic.value.IntegerValue
168

@<SCITEGIC>MOL_PROPERTY
Probability
SciTegic.value.DoubleValue
0.02

@<SCITEGIC>MOL_PROPERTY
Sum Probability
SciTegic.value.DoubleValue
99.98

@<SCITEGIC>MOL_PROPERTY
Delta G
SciTegic.value.DoubleValue
3.790

@<SCITEGIC>MOL_PROPERTY
G
SciTegic.value.DoubleValue
-18.100

@<SCITEGIC>MOL_PROPERTY
E
SciTegic.value.DoubleValue
-33.957

@<SCITEGIC>MOL_PROPERTY
-TS
SciTegic.value.DoubleValue
15.857

@<SCITEGIC>MOL_PROPERTY
U+W
SciTegic.value.DoubleValue
-50.053

@<SCITEGIC>MOL_PROPERTY
U
SciTegic.value.DoubleValue
11.091

@<SCITEGIC>MOL_PROPERTY
W
SciTegic.value.DoubleValue
-61.144

@<SCITEGIC>MOL_PROPERTY
W(PB)
SciTegic.value.DoubleValue
-63.247

@<SCITEGIC>MOL_PROPERTY
W(SA)
SciTegic.value.DoubleValue
2.103

@<SCITEGIC>MOL_PROPERTY
Valence
SciTegic.value.DoubleValue
9.664

@<SCITEGIC>MOL_PROPERTY
Coulomb
SciTegic.value.DoubleValue
0.658

@<SCITEGIC>MOL_PROPERTY
VdW
SciTegic.value.DoubleValue
0.769

@<SCITEGIC>MOL_PROPERTY
VdW6
SciTegic.value.DoubleValue
-9.171

@<SCITEGIC>MOL_PROPERTY
VdW12
SciTegic.value.DoubleValue
9.939

@<SCITEGIC>MOL_PROPERTY
Bond
SciTegic.value.DoubleValue
0.244

@<SCITEGIC>MOL_PROPERTY
Angle
SciTegic.value.DoubleValue
3.658

@<SCITEGIC>MOL_PROPERTY
Pdih
SciTegic.value.DoubleValue
5.762

@<SCITEGIC>MOL_PROPERTY
Idih
SciTegic.value.DoubleValue
0.001

@<SCITEGIC>MOL_PROPERTY
Tether
SciTegic.value.DoubleValue
0.000

@<TRIPOS>MOLECULE
guest-s22_vm2.mol2 : vm2 ligand conformer 61
          20          19           1
SMALL
USER_CHARGES
 
@<TRIPOS>ATOM
       1    C1      21.228171   17.909076   20.296081 C.2        1 MOL1        -0.2535
       2    H1      22.308261   17.806109   20.384260 H          1 MOL1         0.0845
       3    H2      20.661055   17.023382   20.014558 H          1 MOL1         0.0845
       4    C2      20.624498   19.076823   20.531465 C.2        1 MOL1        -0.1324
       5    H3      21.209953   19.953578   20.806090 H          1 MOL1         0.0833
       6    C3      19.132333   19.296590   20.418000 C.3        1 MOL1        -0.1813
       7    H4      18.715295   18.577939   19.699601 H          1 MOL1         0.0753
       8    H5      18.933615   20.291541   19.997963 H          1 MOL1         0.0753
       9    C4      18.379005   19.135917   21.761255 C.3        1 MOL1        -0.1855
      10    H6      17.302971   19.170375   21.542993 H          1 MOL1         0.0755
      11    H7      18.568390   18.139135   22.182816 H          1 MOL1         0.0755
      12    C5      18.689892   20.238586   22.806569 C.3        1 MOL1        -0.1855
      13    H8      17.808859   20.373435   23.449385 H          1 MOL1         0.0755
      14    H9      18.841110   21.199183   22.296126 H          1 MOL1         0.0755
      15    C6      19.908809   19.933188   23.720394 C.3        1 MOL1        -0.1958
      16    H10     20.806091   19.730910   23.127251 H          1 MOL1         0.0753
      17    H11     20.131265   20.814540   24.332986 H          1 MOL1         0.0753
      18    C7      19.687111   18.765870   24.678842 C.2        1 MOL1         0.6174
      19    O1      20.298283   17.733551   24.485269 O.co2      1 MOL1        -0.6695
      20    O2      18.922897   18.928398   25.610124 O.co2      1 MOL1        -0.6695
@<TRIPOS>BOND
    1     1     2    1
    2     1     3    1
    3     1     4    2
    4     4     5    1
    5     4     6    1
    6     6     7    1
    7     6     8    1
    8     6     9    1
    9     9    10    1
   10     9    11    1
   11     9    12    1
   12    12    13    1
   13    12    14    1
   14    12    15    1
   15    15    16    1
   16    15    17    1
   17    15    18    1
   18    18    19    1
   19    18    20    2
@<TRIPOS>SUBSTRUCTURE
       1 MOL1            1 RESIDUE      1      MOL     
@<SCITEGIC>MOL_PROPERTY
VM2 Rank
SciTegic.value.IntegerValue
61

@<SCITEGIC>MOL_PROPERTY
Conf_Id
SciTegic.value.IntegerValue
374

@<SCITEGIC>MOL_PROPERTY
Probability
SciTegic.value.DoubleValue
0.00

@<SCITEGIC>MOL_PROPERTY
Sum Probability
SciTegic.value.DoubleValue
99.98

@<SCITEGIC>MOL_PROPERTY
Delta G
SciTegic.value.DoubleValue
4.993

@<SCITEGIC>MOL_PROPERTY
G
SciTegic.value.DoubleValue
-16.896

@<SCITEGIC>MOL_PROPERTY
E
SciTegic.value.DoubleValue
-32.113

@<SCITEGIC>MOL_PROPERTY
-TS
SciTegic.value.DoubleValue
15.217

@<SCITEGIC>MOL_PROPERTY
U+W
SciTegic.value.DoubleValue
-48.209

@<SCITEGIC>MOL_PROPERTY
U
SciTegic.value.DoubleValue
14.184

@<SCITEGIC>MOL_PROPERTY
W
SciTegic.value.DoubleValue
-62.393

@<SCITEGIC>MOL_PROPERTY
W(PB)
SciTegic.value.DoubleValue
-64.543

@<SCITEGIC>MOL_PROPERTY
W(SA)
SciTegic.value.DoubleValue
2.150

@<SCITEGIC>MOL_PROPERTY
Valence
SciTegic.value.DoubleValue
11.819

@<SCITEGIC>MOL_PROPERTY
Coulomb
SciTegic.value.DoubleValue
2.081

@<SCITEGIC>MOL_PROPERTY
VdW
SciTegic.value.DoubleValue
0.284

@<SCITEGIC>MOL_PROPERTY
VdW6
SciTegic.value.DoubleValue
-8.249

@<SCITEGIC>MOL_PROPERTY
VdW12
SciTegic.value.DoubleValue
8.533

@<SCITEGIC>MOL_PROPERTY
Bond
SciTegic.value.DoubleValue
0.194

@<SCITEGIC>MOL_PROPERTY
Angle
SciTegic.value.DoubleValue
3.123

@<SCITEGIC>MOL_PROPERTY
Pdih
SciTegic.value.DoubleValue
8.500

@<SCITEGIC>MOL_PROPERTY
Idih
SciTegic.value.DoubleValue
0.002

@<SCITEGIC>MOL_PROPERTY
Tether
SciTegic.value.DoubleValue
0.000

@<TRIPOS>MOLECULE
guest-s22_vm2.mol2 : vm2 ligand conformer 62
          20          19           1
SMALL
USER_CHARGES
 
@<TRIPOS>ATOM
       1    C1      21.502793   18.317876   20.340350 C.2        1 MOL1        -0.2535
       2    H1      22.127375   19.205451   20.254108 H          1 MOL1         0.0845
       3    H2      22.001991   17.350547   20.333097 H          1 MOL1         0.0845
       4    C2      20.175595   18.408970   20.457425 C.2        1 MOL1        -0.1324
       5    H3      19.566955   17.508867   20.536466 H          1 MOL1         0.0833
       6    C3      19.413911   19.715695   20.464107 C.3        1 MOL1        -0.1813
       7    H4      18.466826   19.597118   19.921139 H          1 MOL1         0.0753
       8    H5      19.986874   20.470285   19.908421 H          1 MOL1         0.0753
       9    C4      19.136784   20.263474   21.885652 C.3        1 MOL1        -0.1855
      10    H6      20.081840   20.391377   22.431239 H          1 MOL1         0.0755
      11    H7      18.714872   21.271654   21.775016 H          1 MOL1         0.0755
      12    C5      18.137798   19.416052   22.715778 C.3        1 MOL1        -0.1855
      13    H8      17.365763   19.001739   22.053605 H          1 MOL1         0.0755
      14    H9      17.610953   20.078482   23.416661 H          1 MOL1         0.0755
      15    C6      18.792969   18.271444   23.537192 C.3        1 MOL1        -0.1958
      16    H10     18.007143   17.651453   23.983989 H          1 MOL1         0.0753
      17    H11     19.383067   17.611472   22.893706 H          1 MOL1         0.0753
      18    C7      19.682127   18.758820   24.678357 C.2        1 MOL1         0.6174
      19    O1      20.883829   18.606221   24.581867 O.co2      1 MOL1        -0.6695
      20    O2      19.145194   19.259449   25.647273 O.co2      1 MOL1        -0.6695
@<TRIPOS>BOND
    1     1     2    1
    2     1     3    1
    3     1     4    2
    4     4     5    1
    5     4     6    1
    6     6     7    1
    7     6     8    1
    8     6     9    1
    9     9    10    1
   10     9    11    1
   11     9    12    1
   12    12    13    1
   13    12    14    1
   14    12    15    1
   15    15    16    1
   16    15    17    1
   17    15    18    1
   18    18    19    1
   19    18    20    2
@<TRIPOS>SUBSTRUCTURE
       1 MOL1            1 RESIDUE      1      MOL     
@<SCITEGIC>MOL_PROPERTY
VM2 Rank
SciTegic.value.IntegerValue
62

@<SCITEGIC>MOL_PROPERTY
Conf_Id
SciTegic.value.IntegerValue
722

@<SCITEGIC>MOL_PROPERTY
Probability
SciTegic.value.DoubleValue
0.00

@<SCITEGIC>MOL_PROPERTY
Sum Probability
SciTegic.value.DoubleValue
99.99

@<SCITEGIC>MOL_PROPERTY
Delta G
SciTegic.value.DoubleValue
5.002

@<SCITEGIC>MOL_PROPERTY
G
SciTegic.value.DoubleValue
-16.888

@<SCITEGIC>MOL_PROPERTY
E
SciTegic.value.DoubleValue
-32.106

@<SCITEGIC>MOL_PROPERTY
-TS
SciTegic.value.DoubleValue
15.219

@<SCITEGIC>MOL_PROPERTY
U+W
SciTegic.value.DoubleValue
-48.203

@<SCITEGIC>MOL_PROPERTY
U
SciTegic.value.DoubleValue
14.181

@<SCITEGIC>MOL_PROPERTY
W
SciTegic.value.DoubleValue
-62.384

@<SCITEGIC>MOL_PROPERTY
W(PB)
SciTegic.value.DoubleValue
-64.528

@<SCITEGIC>MOL_PROPERTY
W(SA)
SciTegic.value.DoubleValue
2.144

@<SCITEGIC>MOL_PROPERTY
Valence
SciTegic.value.DoubleValue
11.820

@<SCITEGIC>MOL_PROPERTY
Coulomb
SciTegic.value.DoubleValue
2.077

@<SCITEGIC>MOL_PROPERTY
VdW
SciTegic.value.DoubleValue
0.285

@<SCITEGIC>MOL_PROPERTY
VdW6
SciTegic.value.DoubleValue
-8.249

@<SCITEGIC>MOL_PROPERTY
VdW12
SciTegic.value.DoubleValue
8.533

@<SCITEGIC>MOL_PROPERTY
Bond
SciTegic.value.DoubleValue
0.194

@<SCITEGIC>MOL_PROPERTY
Angle
SciTegic.value.DoubleValue
3.123

@<SCITEGIC>MOL_PROPERTY
Pdih
SciTegic.value.DoubleValue
8.501

@<SCITEGIC>MOL_PROPERTY
Idih
SciTegic.value.DoubleValue
0.002

@<SCITEGIC>MOL_PROPERTY
Tether
SciTegic.value.DoubleValue
0.000

@<TRIPOS>MOLECULE
guest-s22_vm2.mol2 : vm2 ligand conformer 63
          20          19           1
SMALL
USER_CHARGES
 
@<TRIPOS>ATOM
       1    C1      20.555010   17.849472   19.696476 C.2        1 MOL1        -0.2535
       2    H1      20.089635   18.274925   18.808883 H          1 MOL1         0.0845
       3    H2      21.399913   17.179399   19.547356 H          1 MOL1         0.0845
       4    C2      20.111470   18.138180   20.922766 C.2        1 MOL1        -0.1324
       5    H3      20.589273   17.699322   21.798691 H          1 MOL1         0.0833
       6    C3      18.940434   19.054222   21.207322 C.3        1 MOL1        -0.1813
       7    H4      18.294811   18.612968   21.976128 H          1 MOL1         0.0753
       8    H5      18.315130   19.142082   20.308746 H          1 MOL1         0.0753
       9    C4      19.389050   20.472481   21.631800 C.3        1 MOL1        -0.1855
      10    H6      19.957749   20.917225   20.803653 H          1 MOL1         0.0755
      11    H7      18.500769   21.105040   21.763642 H          1 MOL1         0.0755
      12    C5      20.256097   20.538359   22.916064 C.3        1 MOL1        -0.1855
      13    H8      20.607327   21.573201   23.025703 H          1 MOL1         0.0755
      14    H9      21.161610   19.927257   22.800166 H          1 MOL1         0.0755
      15    C6      19.513271   20.146112   24.224169 C.3        1 MOL1        -0.1958
      16    H10     20.054805   20.564632   25.080396 H          1 MOL1         0.0753
      17    H11     18.510347   20.589434   24.240546 H          1 MOL1         0.0753
      18    C7      19.397660   18.645235   24.482004 C.2        1 MOL1         0.6174
      19    O1      20.421661   18.004754   24.619494 O.co2      1 MOL1        -0.6695
      20    O2      18.286347   18.169185   24.607905 O.co2      1 MOL1        -0.6695
@<TRIPOS>BOND
    1     1     2    1
    2     1     3    1
    3     1     4    2
    4     4     5    1
    5     4     6    1
    6     6     7    1
    7     6     8    1
    8     6     9    1
    9     9    10    1
   10     9    11    1
   11     9    12    1
   12    12    13    1
   13    12    14    1
   14    12    15    1
   15    15    16    1
   16    15    17    1
   17    15    18    1
   18    18    19    1
   19    18    20    2
@<TRIPOS>SUBSTRUCTURE
       1 MOL1            1 RESIDUE      1      MOL     
@<SCITEGIC>MOL_PROPERTY
VM2 Rank
SciTegic.value.IntegerValue
63

@<SCITEGIC>MOL_PROPERTY
Conf_Id
SciTegic.value.IntegerValue
352

@<SCITEGIC>MOL_PROPERTY
Probability
SciTegic.value.DoubleValue
0.00

@<SCITEGIC>MOL_PROPERTY
Sum Probability
SciTegic.value.DoubleValue
99.99

@<SCITEGIC>MOL_PROPERTY
Delta G
SciTegic.value.DoubleValue
5.030

@<SCITEGIC>MOL_PROPERTY
G
SciTegic.value.DoubleValue
-16.860

@<SCITEGIC>MOL_PROPERTY
E
SciTegic.value.DoubleValue
-33.012

@<SCITEGIC>MOL_PROPERTY
-TS
SciTegic.value.DoubleValue
16.152

@<SCITEGIC>MOL_PROPERTY
U+W
SciTegic.value.DoubleValue
-49.108

@<SCITEGIC>MOL_PROPERTY
U
SciTegic.value.DoubleValue
13.083

@<SCITEGIC>MOL_PROPERTY
W
SciTegic.value.DoubleValue
-62.192

@<SCITEGIC>MOL_PROPERTY
W(PB)
SciTegic.value.DoubleValue
-64.313

@<SCITEGIC>MOL_PROPERTY
W(SA)
SciTegic.value.DoubleValue
2.122

@<SCITEGIC>MOL_PROPERTY
Valence
SciTegic.value.DoubleValue
11.308

@<SCITEGIC>MOL_PROPERTY
Coulomb
SciTegic.value.DoubleValue
1.656

@<SCITEGIC>MOL_PROPERTY
VdW
SciTegic.value.DoubleValue
0.119

@<SCITEGIC>MOL_PROPERTY
VdW6
SciTegic.value.DoubleValue
-9.164

@<SCITEGIC>MOL_PROPERTY
VdW12
SciTegic.value.DoubleValue
9.283

@<SCITEGIC>MOL_PROPERTY
Bond
SciTegic.value.DoubleValue
0.195

@<SCITEGIC>MOL_PROPERTY
Angle
SciTegic.value.DoubleValue
3.447

@<SCITEGIC>MOL_PROPERTY
Pdih
SciTegic.value.DoubleValue
7.656

@<SCITEGIC>MOL_PROPERTY
Idih
SciTegic.value.DoubleValue
0.011

@<SCITEGIC>MOL_PROPERTY
Tether
SciTegic.value.DoubleValue
0.000

@<TRIPOS>MOLECULE
guest-s22_vm2.mol2 : vm2 ligand conformer 64
          20          19           1
SMALL
USER_CHARGES
 
@<TRIPOS>ATOM
       1    C1      20.252656   17.758212   19.657367 C.2        1 MOL1        -0.2535
       2    H1      20.602837   18.429558   18.875015 H          1 MOL1         0.0845
       3    H2      19.971450   16.748595   19.362932 H          1 MOL1         0.0845
       4    C2      20.166853   18.154938   20.929812 C.2        1 MOL1        -0.1324
       5    H3      19.816689   17.466434   21.698894 H          1 MOL1         0.0833
       6    C3      20.545328   19.538207   21.414327 C.3        1 MOL1        -0.1813
       7    H4      21.210642   20.015295   20.682271 H          1 MOL1         0.0753
       8    H5      21.126719   19.466906   22.341415 H          1 MOL1         0.0753
       9    C4      19.312706   20.449481   21.621986 C.3        1 MOL1        -0.1855
      10    H6      19.653293   21.452597   21.912362 H          1 MOL1         0.0755
      11    H7      18.805175   20.569723   20.655034 H          1 MOL1         0.0755
      12    C5      18.279104   19.942178   22.661098 C.3        1 MOL1        -0.1855
      13    H8      17.909270   18.946471   22.380703 H          1 MOL1         0.0755
      14    H9      17.407038   20.608110   22.612963 H          1 MOL1         0.0755
      15    C6      18.786577   19.926975   24.130459 C.3        1 MOL1        -0.1958
      16    H10     19.349497   20.842465   24.348774 H          1 MOL1         0.0753
      17    H11     17.922923   19.921789   24.805453 H          1 MOL1         0.0753
      18    C7      19.636917   18.717370   24.512889 C.2        1 MOL1         0.6174
      19    O1      20.762269   18.915853   24.927234 O.co2      1 MOL1        -0.6695
      20    O2      19.128590   17.614785   24.452829 O.co2      1 MOL1        -0.6695
@<TRIPOS>BOND
    1     1     2    1
    2     1     3    1
    3     1     4    2
    4     4     5    1
    5     4     6    1
    6     6     7    1
    7     6     8    1
    8     6     9    1
    9     9    10    1
   10     9    11    1
   11     9    12    1
   12    12    13    1
   13    12    14    1
   14    12    15    1
   15    15    16    1
   16    15    17    1
   17    15    18    1
   18    18    19    1
   19    18    20    2
@<TRIPOS>SUBSTRUCTURE
       1 MOL1            1 RESIDUE      1      MOL     
@<SCITEGIC>MOL_PROPERTY
VM2 Rank
SciTegic.value.IntegerValue
64

@<SCITEGIC>MOL_PROPERTY
Conf_Id
SciTegic.value.IntegerValue
350

@<SCITEGIC>MOL_PROPERTY
Probability
SciTegic.value.DoubleValue
0.00

@<SCITEGIC>MOL_PROPERTY
Sum Probability
SciTegic.value.DoubleValue
99.99

@<SCITEGIC>MOL_PROPERTY
Delta G
SciTegic.value.DoubleValue
5.105

@<SCITEGIC>MOL_PROPERTY
G
SciTegic.value.DoubleValue
-16.785

@<SCITEGIC>MOL_PROPERTY
E
SciTegic.value.DoubleValue
-32.937

@<SCITEGIC>MOL_PROPERTY
-TS
SciTegic.value.DoubleValue
16.152

@<SCITEGIC>MOL_PROPERTY
U+W
SciTegic.value.DoubleValue
-49.034

@<SCITEGIC>MOL_PROPERTY
U
SciTegic.value.DoubleValue
13.083

@<SCITEGIC>MOL_PROPERTY
W
SciTegic.value.DoubleValue
-62.116

@<SCITEGIC>MOL_PROPERTY
W(PB)
SciTegic.value.DoubleValue
-64.210

@<SCITEGIC>MOL_PROPERTY
W(SA)
SciTegic.value.DoubleValue
2.094

@<SCITEGIC>MOL_PROPERTY
Valence
SciTegic.value.DoubleValue
11.308

@<SCITEGIC>MOL_PROPERTY
Coulomb
SciTegic.value.DoubleValue
1.656

@<SCITEGIC>MOL_PROPERTY
VdW
SciTegic.value.DoubleValue
0.119

@<SCITEGIC>MOL_PROPERTY
VdW6
SciTegic.value.DoubleValue
-9.164

@<SCITEGIC>MOL_PROPERTY
VdW12
SciTegic.value.DoubleValue
9.282

@<SCITEGIC>MOL_PROPERTY
Bond
SciTegic.value.DoubleValue
0.195

@<SCITEGIC>MOL_PROPERTY
Angle
SciTegic.value.DoubleValue
3.446

@<SCITEGIC>MOL_PROPERTY
Pdih
SciTegic.value.DoubleValue
7.656

@<SCITEGIC>MOL_PROPERTY
Idih
SciTegic.value.DoubleValue
0.011

@<SCITEGIC>MOL_PROPERTY
Tether
SciTegic.value.DoubleValue
0.000

@<TRIPOS>MOLECULE
guest-s22_vm2.mol2 : vm2 ligand conformer 65
          20          19           1
SMALL
USER_CHARGES
 
@<TRIPOS>ATOM
       1    C1      21.139359   17.935321   20.328126 C.2        1 MOL1        -0.2535
       2    H1      20.471340   17.350115   19.698437 H          1 MOL1         0.0845
       3    H2      22.120760   17.516298   20.543204 H          1 MOL1         0.0845
       4    C2      20.772068   19.120335   20.823589 C.2        1 MOL1        -0.1324
       5    H3      21.453798   19.685960   21.458696 H          1 MOL1         0.0833
       6    C3      19.423533   19.761433   20.577838 C.3        1 MOL1        -0.1813
       7    H4      18.795801   19.121722   19.943042 H          1 MOL1         0.0753
       8    H5      19.583340   20.690594   20.014961 H          1 MOL1         0.0753
       9    C4      18.662424   20.117387   21.878877 C.3        1 MOL1        -0.1855
      10    H6      19.310144   20.699864   22.548263 H          1 MOL1         0.0755
      11    H7      17.836038   20.787587   21.605662 H          1 MOL1         0.0755
      12    C5      18.054064   18.905092   22.631107 C.3        1 MOL1        -0.1855
      13    H8      17.538692   18.251229   21.914904 H          1 MOL1         0.0755
      14    H9      17.279354   19.274964   23.316984 H          1 MOL1         0.0755
      15    C6      19.067730   18.068675   23.459358 C.3        1 MOL1        -0.1958
      16    H10     18.544694   17.223546   23.921559 H          1 MOL1         0.0753
      17    H11     19.839106   17.636314   22.814893 H          1 MOL1         0.0753
      18    C7      19.746610   18.846653   24.583516 C.2        1 MOL1         0.6174
      19    O1      20.924626   19.122467   24.468495 O.co2      1 MOL1        -0.6695
      20    O2      19.080585   19.140638   25.557094 O.co2      1 MOL1        -0.6695
@<TRIPOS>BOND
    1     1     2    1
    2     1     3    1
    3     1     4    2
    4     4     5    1
    5     4     6    1
    6     6     7    1
    7     6     8    1
    8     6     9    1
    9     9    10    1
   10     9    11    1
   11     9    12    1
   12    12    13    1
   13    12    14    1
   14    12    15    1
   15    15    16    1
   16    15    17    1
   17    15    18    1
   18    18    19    1
   19    18    20    2
@<TRIPOS>SUBSTRUCTURE
       1 MOL1            1 RESIDUE      1      MOL     
@<SCITEGIC>MOL_PROPERTY
VM2 Rank
SciTegic.value.IntegerValue
65

@<SCITEGIC>MOL_PROPERTY
Conf_Id
SciTegic.value.IntegerValue
755

@<SCITEGIC>MOL_PROPERTY
Probability
SciTegic.value.DoubleValue
0.00

@<SCITEGIC>MOL_PROPERTY
Sum Probability
SciTegic.value.DoubleValue
99.99

@<SCITEGIC>MOL_PROPERTY
Delta G
SciTegic.value.DoubleValue
5.331

@<SCITEGIC>MOL_PROPERTY
G
SciTegic.value.DoubleValue
-16.559

@<SCITEGIC>MOL_PROPERTY
E
SciTegic.value.DoubleValue
-32.231

@<SCITEGIC>MOL_PROPERTY
-TS
SciTegic.value.DoubleValue
15.672

@<SCITEGIC>MOL_PROPERTY
U+W
SciTegic.value.DoubleValue
-48.327

@<SCITEGIC>MOL_PROPERTY
U
SciTegic.value.DoubleValue
13.663

@<SCITEGIC>MOL_PROPERTY
W
SciTegic.value.DoubleValue
-61.990

@<SCITEGIC>MOL_PROPERTY
W(PB)
SciTegic.value.DoubleValue
-64.088

@<SCITEGIC>MOL_PROPERTY
W(SA)
SciTegic.value.DoubleValue
2.098

@<SCITEGIC>MOL_PROPERTY
Valence
SciTegic.value.DoubleValue
11.349

@<SCITEGIC>MOL_PROPERTY
Coulomb
SciTegic.value.DoubleValue
2.220

@<SCITEGIC>MOL_PROPERTY
VdW
SciTegic.value.DoubleValue
0.093

@<SCITEGIC>MOL_PROPERTY
VdW6
SciTegic.value.DoubleValue
-8.851

@<SCITEGIC>MOL_PROPERTY
VdW12
SciTegic.value.DoubleValue
8.944

@<SCITEGIC>MOL_PROPERTY
Bond
SciTegic.value.DoubleValue
0.196

@<SCITEGIC>MOL_PROPERTY
Angle
SciTegic.value.DoubleValue
3.358

@<SCITEGIC>MOL_PROPERTY
Pdih
SciTegic.value.DoubleValue
7.794

@<SCITEGIC>MOL_PROPERTY
Idih
SciTegic.value.DoubleValue
0.001

@<SCITEGIC>MOL_PROPERTY
Tether
SciTegic.value.DoubleValue
0.000

@<TRIPOS>MOLECULE
guest-s22_vm2.mol2 : vm2 ligand conformer 66
          20          19           1
SMALL
USER_CHARGES
 
@<TRIPOS>ATOM
       1    C1      19.587526   17.467426   20.128022 C.2        1 MOL1        -0.2535
       2    H1      20.591033   17.386256   19.713768 H          1 MOL1         0.0845
       3    H2      18.974756   16.567754   20.137476 H          1 MOL1         0.0845
       4    C2      19.122893   18.623097   20.610916 C.2        1 MOL1        -0.1324
       5    H3      18.117738   18.680047   21.028612 H          1 MOL1         0.0833
       6    C3      19.917726   19.910438   20.641612 C.3        1 MOL1        -0.1813
       7    H4      19.414168   20.639572   19.993149 H          1 MOL1         0.0753
       8    H5      20.919712   19.762093   20.217038 H          1 MOL1         0.0753
       9    C4      20.034159   20.531019   22.055833 C.3        1 MOL1        -0.1855
      10    H6      20.398758   21.560335   21.936226 H          1 MOL1         0.0755
      11    H7      19.039173   20.618179   22.513334 H          1 MOL1         0.0755
      12    C5      21.009233   19.796185   23.012316 C.3        1 MOL1        -0.1855
      13    H8      21.272302   20.478980   23.832070 H          1 MOL1         0.0755
      14    H9      21.947365   19.580610   22.483608 H          1 MOL1         0.0755
      15    C6      20.454953   18.486969   23.638287 C.3        1 MOL1        -0.1958
      16    H10     20.218969   17.750857   22.863858 H          1 MOL1         0.0753
      17    H11     21.228896   18.032930   24.267811 H          1 MOL1         0.0753
      18    C7      19.222437   18.688588   24.515848 C.2        1 MOL1         0.6174
      19    O1      19.372209   19.228545   25.594682 O.co2      1 MOL1        -0.6695
      20    O2      18.149863   18.285733   24.110484 O.co2      1 MOL1        -0.6695
@<TRIPOS>BOND
    1     1     2    1
    2     1     3    1
    3     1     4    2
    4     4     5    1
    5     4     6    1
    6     6     7    1
    7     6     8    1
    8     6     9    1
    9     9    10    1
   10     9    11    1
   11     9    12    1
   12    12    13    1
   13    12    14    1
   14    12    15    1
   15    15    16    1
   16    15    17    1
   17    15    18    1
   18    18    19    1
   19    18    20    2
@<TRIPOS>SUBSTRUCTURE
       1 MOL1            1 RESIDUE      1      MOL     
@<SCITEGIC>MOL_PROPERTY
VM2 Rank
SciTegic.value.IntegerValue
66

@<SCITEGIC>MOL_PROPERTY
Conf_Id
SciTegic.value.IntegerValue
192

@<SCITEGIC>MOL_PROPERTY
Probability
SciTegic.value.DoubleValue
0.00

@<SCITEGIC>MOL_PROPERTY
Sum Probability
SciTegic.value.DoubleValue
100.00

@<SCITEGIC>MOL_PROPERTY
Delta G
SciTegic.value.DoubleValue
5.362

@<SCITEGIC>MOL_PROPERTY
G
SciTegic.value.DoubleValue
-16.528

@<SCITEGIC>MOL_PROPERTY
E
SciTegic.value.DoubleValue
-32.200

@<SCITEGIC>MOL_PROPERTY
-TS
SciTegic.value.DoubleValue
15.672

@<SCITEGIC>MOL_PROPERTY
U+W
SciTegic.value.DoubleValue
-48.297

@<SCITEGIC>MOL_PROPERTY
U
SciTegic.value.DoubleValue
13.663

@<SCITEGIC>MOL_PROPERTY
W
SciTegic.value.DoubleValue
-61.959

@<SCITEGIC>MOL_PROPERTY
W(PB)
SciTegic.value.DoubleValue
-64.071

@<SCITEGIC>MOL_PROPERTY
W(SA)
SciTegic.value.DoubleValue
2.112

@<SCITEGIC>MOL_PROPERTY
Valence
SciTegic.value.DoubleValue
11.349

@<SCITEGIC>MOL_PROPERTY
Coulomb
SciTegic.value.DoubleValue
2.220

@<SCITEGIC>MOL_PROPERTY
VdW
SciTegic.value.DoubleValue
0.094

@<SCITEGIC>MOL_PROPERTY
VdW6
SciTegic.value.DoubleValue
-8.851

@<SCITEGIC>MOL_PROPERTY
VdW12
SciTegic.value.DoubleValue
8.945

@<SCITEGIC>MOL_PROPERTY
Bond
SciTegic.value.DoubleValue
0.196

@<SCITEGIC>MOL_PROPERTY
Angle
SciTegic.value.DoubleValue
3.357

@<SCITEGIC>MOL_PROPERTY
Pdih
SciTegic.value.DoubleValue
7.794

@<SCITEGIC>MOL_PROPERTY
Idih
SciTegic.value.DoubleValue
0.001

@<SCITEGIC>MOL_PROPERTY
Tether
SciTegic.value.DoubleValue
0.000

@<TRIPOS>MOLECULE
guest-s22_vm2.mol2 : vm2 ligand conformer 67
          20          19           1
SMALL
USER_CHARGES
 
@<TRIPOS>ATOM
       1    C1      21.180144   19.346559   20.237114 C.2        1 MOL1        -0.2535
       2    H1      22.113956   19.867371   20.033199 H          1 MOL1         0.0845
       3    H2      21.116581   18.305249   19.928976 H          1 MOL1         0.0845
       4    C2      20.162353   19.972784   20.837388 C.2        1 MOL1        -0.1324
       5    H3      20.274289   21.016499   21.129762 H          1 MOL1         0.0833
       6    C3      18.817001   19.360800   21.188145 C.3        1 MOL1        -0.1813
       7    H4      18.116216   19.550152   20.364512 H          1 MOL1         0.0753
       8    H5      18.392652   19.898095   22.044491 H          1 MOL1         0.0753
       9    C4      18.837102   17.844339   21.508141 C.3        1 MOL1        -0.1855
      10    H6      17.808182   17.508531   21.695268 H          1 MOL1         0.0755
      11    H7      19.168374   17.295370   20.616944 H          1 MOL1         0.0755
      12    C5      19.725776   17.435262   22.712282 C.3        1 MOL1        -0.1855
      13    H8      20.759422   17.774993   22.561975 H          1 MOL1         0.0755
      14    H9      19.771179   16.338163   22.733209 H          1 MOL1         0.0755
      15    C6      19.207753   17.917515   24.096423 C.3        1 MOL1        -0.1958
      16    H10     18.120998   17.787472   24.164370 H          1 MOL1         0.0753
      17    H11     19.647705   17.288986   24.879363 H          1 MOL1         0.0753
      18    C7      19.559887   19.359614   24.455912 C.2        1 MOL1         0.6174
      19    O1      20.731876   19.643605   24.608812 O.co2      1 MOL1        -0.6695
      20    O2      18.649108   20.137524   24.663783 O.co2      1 MOL1        -0.6695
@<TRIPOS>BOND
    1     1     2    1
    2     1     3    1
    3     1     4    2
    4     4     5    1
    5     4     6    1
    6     6     7    1
    7     6     8    1
    8     6     9    1
    9     9    10    1
   10     9    11    1
   11     9    12    1
   12    12    13    1
   13    12    14    1
   14    12    15    1
   15    15    16    1
   16    15    17    1
   17    15    18    1
   18    18    19    1
   19    18    20    2
@<TRIPOS>SUBSTRUCTURE
       1 MOL1            1 RESIDUE      1      MOL     
@<SCITEGIC>MOL_PROPERTY
VM2 Rank
SciTegic.value.IntegerValue
67

@<SCITEGIC>MOL_PROPERTY
Conf_Id
SciTegic.value.IntegerValue
672

@<SCITEGIC>MOL_PROPERTY
Probability
SciTegic.value.DoubleValue
0.00

@<SCITEGIC>MOL_PROPERTY
Sum Probability
SciTegic.value.DoubleValue
100.00

@<SCITEGIC>MOL_PROPERTY
Delta G
SciTegic.value.DoubleValue
5.387

@<SCITEGIC>MOL_PROPERTY
G
SciTegic.value.DoubleValue
-16.502

@<SCITEGIC>MOL_PROPERTY
E
SciTegic.value.DoubleValue
-32.129

@<SCITEGIC>MOL_PROPERTY
-TS
SciTegic.value.DoubleValue
15.627

@<SCITEGIC>MOL_PROPERTY
U+W
SciTegic.value.DoubleValue
-48.226

@<SCITEGIC>MOL_PROPERTY
U
SciTegic.value.DoubleValue
14.666

@<SCITEGIC>MOL_PROPERTY
W
SciTegic.value.DoubleValue
-62.892

@<SCITEGIC>MOL_PROPERTY
W(PB)
SciTegic.value.DoubleValue
-64.995

@<SCITEGIC>MOL_PROPERTY
W(SA)
SciTegic.value.DoubleValue
2.103

@<SCITEGIC>MOL_PROPERTY
Valence
SciTegic.value.DoubleValue
11.116

@<SCITEGIC>MOL_PROPERTY
Coulomb
SciTegic.value.DoubleValue
3.067

@<SCITEGIC>MOL_PROPERTY
VdW
SciTegic.value.DoubleValue
0.483

@<SCITEGIC>MOL_PROPERTY
VdW6
SciTegic.value.DoubleValue
-9.660

@<SCITEGIC>MOL_PROPERTY
VdW12
SciTegic.value.DoubleValue
10.143

@<SCITEGIC>MOL_PROPERTY
Bond
SciTegic.value.DoubleValue
0.245

@<SCITEGIC>MOL_PROPERTY
Angle
SciTegic.value.DoubleValue
3.970

@<SCITEGIC>MOL_PROPERTY
Pdih
SciTegic.value.DoubleValue
6.882

@<SCITEGIC>MOL_PROPERTY
Idih
SciTegic.value.DoubleValue
0.019

@<SCITEGIC>MOL_PROPERTY
Tether
SciTegic.value.DoubleValue
0.000

@<TRIPOS>MOLECULE
guest-s22_vm2.mol2 : vm2 ligand conformer 68
          20          19           1
SMALL
USER_CHARGES
 
@<TRIPOS>ATOM
       1    C1      21.628605   19.312158   20.288542 C.2        1 MOL1        -0.2535
       2    H1      22.677654   19.135889   20.519919 H          1 MOL1         0.0845
       3    H2      21.401148   20.059444   19.530132 H          1 MOL1         0.0845
       4    C2      20.661671   18.638663   20.917465 C.2        1 MOL1        -0.1324
       5    H3      20.918021   17.895330   21.670314 H          1 MOL1         0.0833
       6    C3      19.184280   18.829642   20.643840 C.3        1 MOL1        -0.1813
       7    H4      18.681170   17.857626   20.555496 H          1 MOL1         0.0753
       8    H5      19.064809   19.320410   19.668409 H          1 MOL1         0.0753
       9    C4      18.485147   19.702056   21.715590 C.3        1 MOL1        -0.1855
      10    H6      19.190072   20.442951   22.118082 H          1 MOL1         0.0755
      11    H7      17.694524   20.281515   21.219715 H          1 MOL1         0.0755
      12    C5      17.823973   18.904425   22.868672 C.3        1 MOL1        -0.1855
      13    H8      17.083962   18.210365   22.448008 H          1 MOL1         0.0755
      14    H9      17.258872   19.604841   23.499148 H          1 MOL1         0.0755
      15    C6      18.806161   18.110312   23.771750 C.3        1 MOL1        -0.1958
      16    H10     18.235639   17.574704   24.539049 H          1 MOL1         0.0753
      17    H11     19.329607   17.345796   23.188035 H          1 MOL1         0.0753
      18    C7      19.835949   18.969589   24.502524 C.2        1 MOL1         0.6174
      19    O1      21.010636   18.681542   24.384976 O.co2      1 MOL1        -0.6695
      20    O2      19.434577   19.869613   25.214642 O.co2      1 MOL1        -0.6695
@<TRIPOS>BOND
    1     1     2    1
    2     1     3    1
    3     1     4    2
    4     4     5    1
    5     4     6    1
    6     6     7    1
    7     6     8    1
    8     6     9    1
    9     9    10    1
   10     9    11    1
   11     9    12    1
   12    12    13    1
   13    12    14    1
   14    12    15    1
   15    15    16    1
   16    15    17    1
   17    15    18    1
   18    18    19    1
   19    18    20    2
@<TRIPOS>SUBSTRUCTURE
       1 MOL1            1 RESIDUE      1      MOL     
@<SCITEGIC>MOL_PROPERTY
VM2 Rank
SciTegic.value.IntegerValue
68

@<SCITEGIC>MOL_PROPERTY
Conf_Id
SciTegic.value.IntegerValue
355

@<SCITEGIC>MOL_PROPERTY
Probability
SciTegic.value.DoubleValue
0.00

@<SCITEGIC>MOL_PROPERTY
Sum Probability
SciTegic.value.DoubleValue
100.00

@<SCITEGIC>MOL_PROPERTY
Delta G
SciTegic.value.DoubleValue
5.588

@<SCITEGIC>MOL_PROPERTY
G
SciTegic.value.DoubleValue
-16.302

@<SCITEGIC>MOL_PROPERTY
E
SciTegic.value.DoubleValue
-31.903

@<SCITEGIC>MOL_PROPERTY
-TS
SciTegic.value.DoubleValue
15.601

@<SCITEGIC>MOL_PROPERTY
U+W
SciTegic.value.DoubleValue
-48.000

@<SCITEGIC>MOL_PROPERTY
U
SciTegic.value.DoubleValue
14.801

@<SCITEGIC>MOL_PROPERTY
W
SciTegic.value.DoubleValue
-62.800

@<SCITEGIC>MOL_PROPERTY
W(PB)
SciTegic.value.DoubleValue
-64.944

@<SCITEGIC>MOL_PROPERTY
W(SA)
SciTegic.value.DoubleValue
2.143

@<SCITEGIC>MOL_PROPERTY
Valence
SciTegic.value.DoubleValue
11.949

@<SCITEGIC>MOL_PROPERTY
Coulomb
SciTegic.value.DoubleValue
2.730

@<SCITEGIC>MOL_PROPERTY
VdW
SciTegic.value.DoubleValue
0.121

@<SCITEGIC>MOL_PROPERTY
VdW6
SciTegic.value.DoubleValue
-8.856

@<SCITEGIC>MOL_PROPERTY
VdW12
SciTegic.value.DoubleValue
8.977

@<SCITEGIC>MOL_PROPERTY
Bond
SciTegic.value.DoubleValue
0.186

@<SCITEGIC>MOL_PROPERTY
Angle
SciTegic.value.DoubleValue
3.315

@<SCITEGIC>MOL_PROPERTY
Pdih
SciTegic.value.DoubleValue
8.441

@<SCITEGIC>MOL_PROPERTY
Idih
SciTegic.value.DoubleValue
0.007

@<SCITEGIC>MOL_PROPERTY
Tether
SciTegic.value.DoubleValue
0.000

@<TRIPOS>MOLECULE
guest-s22_vm2.mol2 : vm2 ligand conformer 69
          20          19           1
SMALL
USER_CHARGES
 
@<TRIPOS>ATOM
       1    C1      20.204995   17.311634   20.823149 C.2        1 MOL1        -0.2535
       2    H1      20.555559   17.050650   21.820843 H          1 MOL1         0.0845
       3    H2      19.910684   16.495559   20.165780 H          1 MOL1         0.0845
       4    C2      20.129753   18.583375   20.422593 C.2        1 MOL1        -0.1324
       5    H3      19.771881   18.823902   19.421959 H          1 MOL1         0.0833
       6    C3      20.520473   19.769358   21.278696 C.3        1 MOL1        -0.1813
       7    H4      21.219453   20.398735   20.712305 H          1 MOL1         0.0753
       8    H5      21.066562   19.442894   22.171681 H          1 MOL1         0.0753
       9    C4      19.299503   20.630167   21.679789 C.3        1 MOL1        -0.1855
      10    H6      19.648376   21.551191   22.166154 H          1 MOL1         0.0755
      11    H7      18.786561   20.949344   20.762192 H          1 MOL1         0.0755
      12    C5      18.272310   19.921671   22.600650 C.3        1 MOL1        -0.1855
      13    H8      18.001723   18.937585   22.193769 H          1 MOL1         0.0755
      14    H9      17.349290   20.516729   22.586690 H          1 MOL1         0.0755
      15    C6      18.720153   19.782147   24.082792 C.3        1 MOL1        -0.1958
      16    H10     19.173904   20.716429   24.434546 H          1 MOL1         0.0753
      17    H11     17.834874   19.611574   24.706486 H          1 MOL1         0.0753
      18    C7      19.677704   18.628434   24.369811 C.2        1 MOL1         0.6174
      19    O1      20.803030   18.896119   24.743700 O.co2      1 MOL1        -0.6695
      20    O2      19.243078   17.495095   24.306821 O.co2      1 MOL1        -0.6695
@<TRIPOS>BOND
    1     1     2    1
    2     1     3    1
    3     1     4    2
    4     4     5    1
    5     4     6    1
    6     6     7    1
    7     6     8    1
    8     6     9    1
    9     9    10    1
   10     9    11    1
   11     9    12    1
   12    12    13    1
   13    12    14    1
   14    12    15    1
   15    15    16    1
   16    15    17    1
   17    15    18    1
   18    18    19    1
   19    18    20    2
@<TRIPOS>SUBSTRUCTURE
       1 MOL1            1 RESIDUE      1      MOL     
@<SCITEGIC>MOL_PROPERTY
VM2 Rank
SciTegic.value.IntegerValue
69

@<SCITEGIC>MOL_PROPERTY
Conf_Id
SciTegic.value.IntegerValue
375

@<SCITEGIC>MOL_PROPERTY
Probability
SciTegic.value.DoubleValue
0.00

@<SCITEGIC>MOL_PROPERTY
Sum Probability
SciTegic.value.DoubleValue
100.00

@<SCITEGIC>MOL_PROPERTY
Delta G
SciTegic.value.DoubleValue
5.853

@<SCITEGIC>MOL_PROPERTY
G
SciTegic.value.DoubleValue
-16.036

@<SCITEGIC>MOL_PROPERTY
E
SciTegic.value.DoubleValue
-32.089

@<SCITEGIC>MOL_PROPERTY
-TS
SciTegic.value.DoubleValue
16.052

@<SCITEGIC>MOL_PROPERTY
U+W
SciTegic.value.DoubleValue
-48.185

@<SCITEGIC>MOL_PROPERTY
U
SciTegic.value.DoubleValue
14.642

@<SCITEGIC>MOL_PROPERTY
W
SciTegic.value.DoubleValue
-62.827

@<SCITEGIC>MOL_PROPERTY
W(PB)
SciTegic.value.DoubleValue
-64.920

@<SCITEGIC>MOL_PROPERTY
W(SA)
SciTegic.value.DoubleValue
2.093

@<SCITEGIC>MOL_PROPERTY
Valence
SciTegic.value.DoubleValue
11.577

@<SCITEGIC>MOL_PROPERTY
Coulomb
SciTegic.value.DoubleValue
3.283

@<SCITEGIC>MOL_PROPERTY
VdW
SciTegic.value.DoubleValue
-0.219

@<SCITEGIC>MOL_PROPERTY
VdW6
SciTegic.value.DoubleValue
-9.345

@<SCITEGIC>MOL_PROPERTY
VdW12
SciTegic.value.DoubleValue
9.125

@<SCITEGIC>MOL_PROPERTY
Bond
SciTegic.value.DoubleValue
0.192

@<SCITEGIC>MOL_PROPERTY
Angle
SciTegic.value.DoubleValue
3.435

@<SCITEGIC>MOL_PROPERTY
Pdih
SciTegic.value.DoubleValue
7.929

@<SCITEGIC>MOL_PROPERTY
Idih
SciTegic.value.DoubleValue
0.022

@<SCITEGIC>MOL_PROPERTY
Tether
SciTegic.value.DoubleValue
0.000

@<TRIPOS>MOLECULE
guest-s22_vm2.mol2 : vm2 ligand conformer 70
          20          19           1
SMALL
USER_CHARGES
 
@<TRIPOS>ATOM
       1    C1      18.159649   19.086656   20.590728 C.2        1 MOL1        -0.2535
       2    H1      17.728338   19.504187   21.499595 H          1 MOL1         0.0845
       3    H2      17.481205   18.603841   19.889776 H          1 MOL1         0.0845
       4    C2      19.471031   19.154992   20.347754 C.2        1 MOL1        -0.1324
       5    H3      19.883586   18.726934   19.434652 H          1 MOL1         0.0833
       6    C3      20.474673   19.809157   21.273442 C.3        1 MOL1        -0.1813
       7    H4      19.966562   20.397668   22.046547 H          1 MOL1         0.0753
       8    H5      21.073549   20.525349   20.695598 H          1 MOL1         0.0753
       9    C4      21.430749   18.780658   21.922086 C.3        1 MOL1        -0.1855
      10    H6      21.930540   18.220959   21.119644 H          1 MOL1         0.0755
      11    H7      22.227072   19.313364   22.459341 H          1 MOL1         0.0755
      12    C5      20.751915   17.769826   22.882544 C.3        1 MOL1        -0.1855
      13    H8      21.460794   16.948676   23.054171 H          1 MOL1         0.0755
      14    H9      19.873023   17.313652   22.406468 H          1 MOL1         0.0755
      15    C6      20.364560   18.355074   24.269703 C.3        1 MOL1        -0.1958
      16    H10     20.233849   17.529642   24.979201 H          1 MOL1         0.0753
      17    H11     21.177344   18.977763   24.662311 H          1 MOL1         0.0753
      18    C7      19.066906   19.158502   24.300220 C.2        1 MOL1         0.6174
      19    O1      19.132766   20.345608   24.553690 O.co2      1 MOL1        -0.6695
      20    O2      18.018752   18.557527   24.167834 O.co2      1 MOL1        -0.6695
@<TRIPOS>BOND
    1     1     2    1
    2     1     3    1
    3     1     4    2
    4     4     5    1
    5     4     6    1
    6     6     7    1
    7     6     8    1
    8     6     9    1
    9     9    10    1
   10     9    11    1
   11     9    12    1
   12    12    13    1
   13    12    14    1
   14    12    15    1
   15    15    16    1
   16    15    17    1
   17    15    18    1
   18    18    19    1
   19    18    20    2
@<TRIPOS>SUBSTRUCTURE
       1 MOL1            1 RESIDUE      1      MOL     
@<SCITEGIC>MOL_PROPERTY
VM2 Rank
SciTegic.value.IntegerValue
70

@<SCITEGIC>MOL_PROPERTY
Conf_Id
SciTegic.value.IntegerValue
112

@<SCITEGIC>MOL_PROPERTY
Probability
SciTegic.value.DoubleValue
0.00

@<SCITEGIC>MOL_PROPERTY
Sum Probability
SciTegic.value.DoubleValue
100.00

@<SCITEGIC>MOL_PROPERTY
Delta G
SciTegic.value.DoubleValue
5.863

@<SCITEGIC>MOL_PROPERTY
G
SciTegic.value.DoubleValue
-16.027

@<SCITEGIC>MOL_PROPERTY
E
SciTegic.value.DoubleValue
-32.080

@<SCITEGIC>MOL_PROPERTY
-TS
SciTegic.value.DoubleValue
16.053

@<SCITEGIC>MOL_PROPERTY
U+W
SciTegic.value.DoubleValue
-48.176

@<SCITEGIC>MOL_PROPERTY
U
SciTegic.value.DoubleValue
14.640

@<SCITEGIC>MOL_PROPERTY
W
SciTegic.value.DoubleValue
-62.816

@<SCITEGIC>MOL_PROPERTY
W(PB)
SciTegic.value.DoubleValue
-64.895

@<SCITEGIC>MOL_PROPERTY
W(SA)
SciTegic.value.DoubleValue
2.079

@<SCITEGIC>MOL_PROPERTY
Valence
SciTegic.value.DoubleValue
11.577

@<SCITEGIC>MOL_PROPERTY
Coulomb
SciTegic.value.DoubleValue
3.282

@<SCITEGIC>MOL_PROPERTY
VdW
SciTegic.value.DoubleValue
-0.219

@<SCITEGIC>MOL_PROPERTY
VdW6
SciTegic.value.DoubleValue
-9.345

@<SCITEGIC>MOL_PROPERTY
VdW12
SciTegic.value.DoubleValue
9.126

@<SCITEGIC>MOL_PROPERTY
Bond
SciTegic.value.DoubleValue
0.192

@<SCITEGIC>MOL_PROPERTY
Angle
SciTegic.value.DoubleValue
3.435

@<SCITEGIC>MOL_PROPERTY
Pdih
SciTegic.value.DoubleValue
7.929

@<SCITEGIC>MOL_PROPERTY
Idih
SciTegic.value.DoubleValue
0.021

@<SCITEGIC>MOL_PROPERTY
Tether
SciTegic.value.DoubleValue
0.000

@<TRIPOS>MOLECULE
guest-s22_vm2.mol2 : vm2 ligand conformer 71
          20          19           1
SMALL
USER_CHARGES
 
@<TRIPOS>ATOM
       1    C1      21.344718   19.290064   19.918061 C.2        1 MOL1        -0.2535
       2    H1      20.837687   19.279850   18.954595 H          1 MOL1         0.0845
       3    H2      22.430158   19.206762   19.914154 H          1 MOL1         0.0845
       4    C2      20.665248   19.397266   21.063011 C.2        1 MOL1        -0.1324
       5    H3      21.196584   19.408445   22.012377 H          1 MOL1         0.0833
       6    C3      19.158177   19.523721   21.142421 C.3        1 MOL1        -0.1813
       7    H4      18.781043   19.883358   20.175506 H          1 MOL1         0.0753
       8    H5      18.871558   20.286468   21.878888 H          1 MOL1         0.0753
       9    C4      18.470123   18.174879   21.462836 C.3        1 MOL1        -0.1855
      10    H6      17.535640   18.123708   20.887502 H          1 MOL1         0.0755
      11    H7      19.088959   17.343197   21.098332 H          1 MOL1         0.0755
      12    C5      18.111052   17.955158   22.954715 C.3        1 MOL1        -0.1855
      13    H8      17.580469   16.996231   23.027887 H          1 MOL1         0.0755
      14    H9      17.390803   18.717560   23.282129 H          1 MOL1         0.0755
      15    C6      19.320547   17.908429   23.931743 C.3        1 MOL1        -0.1958
      16    H10     19.038754   17.327098   24.817040 H          1 MOL1         0.0753
      17    H11     20.162681   17.381882   23.466705 H          1 MOL1         0.0753
      18    C7      19.808321   19.260875   24.453875 C.2        1 MOL1         0.6174
      19    O1      21.005909   19.416173   24.590242 O.co2      1 MOL1        -0.6695
      20    O2      18.986905   20.091435   24.791096 O.co2      1 MOL1        -0.6695
@<TRIPOS>BOND
    1     1     2    1
    2     1     3    1
    3     1     4    2
    4     4     5    1
    5     4     6    1
    6     6     7    1
    7     6     8    1
    8     6     9    1
    9     9    10    1
   10     9    11    1
   11     9    12    1
   12    12    13    1
   13    12    14    1
   14    12    15    1
   15    15    16    1
   16    15    17    1
   17    15    18    1
   18    18    19    1
   19    18    20    2
@<TRIPOS>SUBSTRUCTURE
       1 MOL1            1 RESIDUE      1      MOL     
@<SCITEGIC>MOL_PROPERTY
VM2 Rank
SciTegic.value.IntegerValue
71

@<SCITEGIC>MOL_PROPERTY
Conf_Id
SciTegic.value.IntegerValue
191

@<SCITEGIC>MOL_PROPERTY
Probability
SciTegic.value.DoubleValue
0.00

@<SCITEGIC>MOL_PROPERTY
Sum Probability
SciTegic.value.DoubleValue
100.00

@<SCITEGIC>MOL_PROPERTY
Delta G
SciTegic.value.DoubleValue
6.779

@<SCITEGIC>MOL_PROPERTY
G
SciTegic.value.DoubleValue
-15.111

@<SCITEGIC>MOL_PROPERTY
E
SciTegic.value.DoubleValue
-30.721

@<SCITEGIC>MOL_PROPERTY
-TS
SciTegic.value.DoubleValue
15.610

@<SCITEGIC>MOL_PROPERTY
U+W
SciTegic.value.DoubleValue
-46.817

@<SCITEGIC>MOL_PROPERTY
U
SciTegic.value.DoubleValue
15.456

@<SCITEGIC>MOL_PROPERTY
W
SciTegic.value.DoubleValue
-62.273

@<SCITEGIC>MOL_PROPERTY
W(PB)
SciTegic.value.DoubleValue
-64.363

@<SCITEGIC>MOL_PROPERTY
W(SA)
SciTegic.value.DoubleValue
2.091

@<SCITEGIC>MOL_PROPERTY
Valence
SciTegic.value.DoubleValue
13.615

@<SCITEGIC>MOL_PROPERTY
Coulomb
SciTegic.value.DoubleValue
1.409

@<SCITEGIC>MOL_PROPERTY
VdW
SciTegic.value.DoubleValue
0.431

@<SCITEGIC>MOL_PROPERTY
VdW6
SciTegic.value.DoubleValue
-9.298

@<SCITEGIC>MOL_PROPERTY
VdW12
SciTegic.value.DoubleValue
9.730

@<SCITEGIC>MOL_PROPERTY
Bond
SciTegic.value.DoubleValue
0.212

@<SCITEGIC>MOL_PROPERTY
Angle
SciTegic.value.DoubleValue
3.796

@<SCITEGIC>MOL_PROPERTY
Pdih
SciTegic.value.DoubleValue
9.592

@<SCITEGIC>MOL_PROPERTY
Idih
SciTegic.value.DoubleValue
0.016

@<SCITEGIC>MOL_PROPERTY
Tether
SciTegic.value.DoubleValue
0.000

@<TRIPOS>MOLECULE
guest-s22_vm2.mol2 : vm2 ligand conformer 72
          20          19           1
SMALL
USER_CHARGES
 
@<TRIPOS>ATOM
       1    C1      18.780212   18.516301   19.587608 C.2        1 MOL1        -0.2535
       2    H1      17.951586   17.856217   19.337007 H          1 MOL1         0.0845
       3    H2      19.419388   18.850359   18.771943 H          1 MOL1         0.0845
       4    C2      19.002219   18.896474   20.848664 C.2        1 MOL1        -0.1324
       5    H3      18.346263   18.550920   21.644934 H          1 MOL1         0.0833
       6    C3      20.129605   19.816824   21.267603 C.3        1 MOL1        -0.1813
       7    H4      19.774057   20.558903   21.995079 H          1 MOL1         0.0753
       8    H5      20.462967   20.390437   20.392199 H          1 MOL1         0.0753
       9    C4      21.343640   19.041237   21.833319 C.3        1 MOL1        -0.1855
      10    H6      21.382558   18.034808   21.393887 H          1 MOL1         0.0755
      11    H7      22.258609   19.547560   21.496635 H          1 MOL1         0.0755
      12    C5      21.405045   18.948093   23.379431 C.3        1 MOL1        -0.1855
      13    H8      21.494195   19.954422   23.811366 H          1 MOL1         0.0755
      14    H9      22.337566   18.430164   23.641285 H          1 MOL1         0.0755
      15    C6      20.228193   18.181949   24.048536 C.3        1 MOL1        -0.1958
      16    H10     19.944363   17.316237   23.438056 H          1 MOL1         0.0753
      17    H11     20.565577   17.786924   25.013539 H          1 MOL1         0.0753
      18    C7      18.977360   19.010275   24.346800 C.2        1 MOL1         0.6174
      19    O1      19.108880   20.127974   24.806934 O.co2      1 MOL1        -0.6695
      20    O2      17.895846   18.478874   24.189105 O.co2      1 MOL1        -0.6695
@<TRIPOS>BOND
    1     1     2    1
    2     1     3    1
    3     1     4    2
    4     4     5    1
    5     4     6    1
    6     6     7    1
    7     6     8    1
    8     6     9    1
    9     9    10    1
   10     9    11    1
   11     9    12    1
   12    12    13    1
   13    12    14    1
   14    12    15    1
   15    15    16    1
   16    15    17    1
   17    15    18    1
   18    18    19    1
   19    18    20    2
@<TRIPOS>SUBSTRUCTURE
       1 MOL1            1 RESIDUE      1      MOL     
@<SCITEGIC>MOL_PROPERTY
VM2 Rank
SciTegic.value.IntegerValue
72

@<SCITEGIC>MOL_PROPERTY
Conf_Id
SciTegic.value.IntegerValue
671

@<SCITEGIC>MOL_PROPERTY
Probability
SciTegic.value.DoubleValue
0.00

@<SCITEGIC>MOL_PROPERTY
Sum Probability
SciTegic.value.DoubleValue
100.00

@<SCITEGIC>MOL_PROPERTY
Delta G
SciTegic.value.DoubleValue
6.794

@<SCITEGIC>MOL_PROPERTY
G
SciTegic.value.DoubleValue
-15.096

@<SCITEGIC>MOL_PROPERTY
E
SciTegic.value.DoubleValue
-30.704

@<SCITEGIC>MOL_PROPERTY
-TS
SciTegic.value.DoubleValue
15.609

@<SCITEGIC>MOL_PROPERTY
U+W
SciTegic.value.DoubleValue
-46.801

@<SCITEGIC>MOL_PROPERTY
U
SciTegic.value.DoubleValue
15.456

@<SCITEGIC>MOL_PROPERTY
W
SciTegic.value.DoubleValue
-62.257

@<SCITEGIC>MOL_PROPERTY
W(PB)
SciTegic.value.DoubleValue
-64.377

@<SCITEGIC>MOL_PROPERTY
W(SA)
SciTegic.value.DoubleValue
2.121

@<SCITEGIC>MOL_PROPERTY
Valence
SciTegic.value.DoubleValue
13.615

@<SCITEGIC>MOL_PROPERTY
Coulomb
SciTegic.value.DoubleValue
1.410

@<SCITEGIC>MOL_PROPERTY
VdW
SciTegic.value.DoubleValue
0.431

@<SCITEGIC>MOL_PROPERTY
VdW6
SciTegic.value.DoubleValue
-9.299

@<SCITEGIC>MOL_PROPERTY
VdW12
SciTegic.value.DoubleValue
9.730

@<SCITEGIC>MOL_PROPERTY
Bond
SciTegic.value.DoubleValue
0.212

@<SCITEGIC>MOL_PROPERTY
Angle
SciTegic.value.DoubleValue
3.796

@<SCITEGIC>MOL_PROPERTY
Pdih
SciTegic.value.DoubleValue
9.592

@<SCITEGIC>MOL_PROPERTY
Idih
SciTegic.value.DoubleValue
0.016

@<SCITEGIC>MOL_PROPERTY
Tether
SciTegic.value.DoubleValue
0.000

