VeraChem MOL file


 20 19  0  0  0  0  0  0  0  0999 V2000     
   20.4456   18.0661   18.7399 C   0  0  0  0  0  0  0  0  0  0  0  0
   20.5838   17.2884   19.4880 H   0  0  0  0  0  0  0  0  0  0  0  0
   20.6599   17.7975   17.7069 H   0  0  0  0  0  0  0  0  0  0  0  0
   20.0331   19.2995   19.0536 C   0  0  0  0  0  0  0  0  0  0  0  0
   19.9132   20.0361   18.2595 H   0  0  0  0  0  0  0  0  0  0  0  0
   19.6972   19.8197   20.4413 C   0  0  0  0  0  0  0  0  0  0  0  0
   18.6643   20.1927   20.4377 H   0  0  0  0  0  0  0  0  0  0  0  0
   20.3271   20.6942   20.6523 H   0  0  0  0  0  0  0  0  0  0  0  0
   19.8605   18.7897   21.5834 C   0  0  0  0  0  0  0  0  0  0  0  0
   19.2167   17.9209   21.3888 H   0  0  0  0  0  0  0  0  0  0  0  0
   20.8976   18.4278   21.6057 H   0  0  0  0  0  0  0  0  0  0  0  0
   19.5002   19.3965   22.9571 C   0  0  0  0  0  0  0  0  0  0  0  0
   18.4635   19.7606   22.9412 H   0  0  0  0  0  0  0  0  0  0  0  0
   20.1409   20.2665   23.1577 H   0  0  0  0  0  0  0  0  0  0  0  0
   19.6629   18.3671   24.1024 C   0  0  0  0  0  0  0  0  0  0  0  0
   19.0191   17.4974   23.9243 H   0  0  0  0  0  0  0  0  0  0  0  0
   20.6966   18.0031   24.1406 H   0  0  0  0  0  0  0  0  0  0  0  0
   19.3130   18.9430   25.4699 C   0  0  0  0  0  0  0  0  0  0  0  0
   20.1972   19.4750   26.1115 O   0  5  0  0  0  0  0  0  0  0  0  0
   18.1613   18.8615   25.8489 O   0  0  0  0  0  0  0  0  0  0  0  0
  1  2  1  0  0  0  0
  1  3  1  0  0  0  0
  1  4  2  0  0  0  0
  4  5  1  0  0  0  0
  4  6  1  0  0  0  0
  6  7  1  0  0  0  0
  6  8  1  0  0  0  0
  6  9  1  0  0  0  0
  9 10  1  0  0  0  0
  9 11  1  0  0  0  0
  9 12  1  0  0  0  0
 12 13  1  0  0  0  0
 12 14  1  0  0  0  0
 12 15  1  0  0  0  0
 15 16  1  0  0  0  0
 15 17  1  0  0  0  0
 15 18  1  0  0  0  0
 18 19  1  0  0  0  0
 18 20  2  0  0  0  0
M  END
> <VM2 Rank>
1

> <Conf_Id>
423

> <Probability>
13.68

> <Sum Probability>
13.68

> <Delta G>
0.000

> <G>
-21.890

> <E>
-37.139

> <-TS>
15.249

> <U+W>
-53.235

> <U>
6.572

> <W>
-59.803

> <W(PB)>
-62.038

> <W(SA)>
2.234

> <Valence>
7.989

> <Coulomb>
-2.698

> <VdW>
1.281

> <VdW6>
-6.467

> <VdW12>
7.748

> <Bond>
0.136

> <Angle>
2.854

> <Pdih>
4.998

> <Idih>
0.001

> <Tether>
0.000

$$$$
VeraChem MOL file


 20 19  0  0  0  0  0  0  0  0999 V2000     
   19.7354   18.4518   18.2413 C   0  0  0  0  0  0  0  0  0  0  0  0
   20.2194   18.0463   17.3543 H   0  0  0  0  0  0  0  0  0  0  0  0
   18.6526   18.3592   18.3077 H   0  0  0  0  0  0  0  0  0  0  0  0
   20.4463   19.0372   19.2086 C   0  0  0  0  0  0  0  0  0  0  0  0
   21.5296   19.1191   19.1229 H   0  0  0  0  0  0  0  0  0  0  0  0
   19.8446   19.6233   20.4664 C   0  0  0  0  0  0  0  0  0  0  0  0
   18.7575   19.7332   20.3525 H   0  0  0  0  0  0  0  0  0  0  0  0
   20.2484   20.6312   20.6317 H   0  0  0  0  0  0  0  0  0  0  0  0
   20.1459   18.7374   21.6932 C   0  0  0  0  0  0  0  0  0  0  0  0
   19.7435   17.7294   21.5212 H   0  0  0  0  0  0  0  0  0  0  0  0
   21.2333   18.6314   21.8095 H   0  0  0  0  0  0  0  0  0  0  0  0
   19.5410   19.3233   22.9876 C   0  0  0  0  0  0  0  0  0  0  0  0
   18.4530   19.4284   22.8737 H   0  0  0  0  0  0  0  0  0  0  0  0
   19.9424   20.3314   23.1611 H   0  0  0  0  0  0  0  0  0  0  0  0
   19.8425   18.4339   24.2189 C   0  0  0  0  0  0  0  0  0  0  0  0
   19.4362   17.4267   24.0671 H   0  0  0  0  0  0  0  0  0  0  0  0
   20.9257   18.3296   24.3547 H   0  0  0  0  0  0  0  0  0  0  0  0
   19.2549   18.9920   25.5101 C   0  0  0  0  0  0  0  0  0  0  0  0
   19.9341   19.7574   26.1654 O   0  5  0  0  0  0  0  0  0  0  0  0
   18.1264   18.6617   25.8165 O   0  0  0  0  0  0  0  0  0  0  0  0
  1  2  1  0  0  0  0
  1  3  1  0  0  0  0
  1  4  2  0  0  0  0
  4  5  1  0  0  0  0
  4  6  1  0  0  0  0
  6  7  1  0  0  0  0
  6  8  1  0  0  0  0
  6  9  1  0  0  0  0
  9 10  1  0  0  0  0
  9 11  1  0  0  0  0
  9 12  1  0  0  0  0
 12 13  1  0  0  0  0
 12 14  1  0  0  0  0
 12 15  1  0  0  0  0
 15 16  1  0  0  0  0
 15 17  1  0  0  0  0
 15 18  1  0  0  0  0
 18 19  1  0  0  0  0
 18 20  2  0  0  0  0
M  END
> <VM2 Rank>
2

> <Conf_Id>
514

> <Probability>
13.51

> <Sum Probability>
27.19

> <Delta G>
0.007

> <G>
-21.882

> <E>
-36.774

> <-TS>
14.892

> <U+W>
-52.870

> <U>
6.632

> <W>
-59.503

> <W(PB)>
-61.758

> <W(SA)>
2.255

> <Valence>
9.076

> <Coulomb>
-3.008

> <VdW>
0.564

> <VdW6>
-5.773

> <VdW12>
6.337

> <Bond>
0.084

> <Angle>
2.239

> <Pdih>
6.752

> <Idih>
0.001

> <Tether>
0.000

$$$$
VeraChem MOL file


 20 19  0  0  0  0  0  0  0  0999 V2000     
   19.8357   18.3568   18.2569 C   0  0  0  0  0  0  0  0  0  0  0  0
   19.7747   17.2937   18.4840 H   0  0  0  0  0  0  0  0  0  0  0  0
   19.5626   18.6706   17.2508 H   0  0  0  0  0  0  0  0  0  0  0  0
   20.2277   19.2448   19.1742 C   0  0  0  0  0  0  0  0  0  0  0  0
   20.2812   20.3048   18.9266 H   0  0  0  0  0  0  0  0  0  0  0  0
   20.6226   18.8840   20.5889 C   0  0  0  0  0  0  0  0  0  0  0  0
   21.5741   19.3714   20.8404 H   0  0  0  0  0  0  0  0  0  0  0  0
   20.7903   17.8015   20.6726 H   0  0  0  0  0  0  0  0  0  0  0  0
   19.5374   19.3154   21.5975 C   0  0  0  0  0  0  0  0  0  0  0  0
   19.3732   20.3987   21.5166 H   0  0  0  0  0  0  0  0  0  0  0  0
   18.5870   18.8283   21.3391 H   0  0  0  0  0  0  0  0  0  0  0  0
   19.9263   18.9570   23.0483 C   0  0  0  0  0  0  0  0  0  0  0  0
   20.8769   19.4434   23.3082 H   0  0  0  0  0  0  0  0  0  0  0  0
   20.0893   17.8734   23.1314 H   0  0  0  0  0  0  0  0  0  0  0  0
   18.8372   19.3894   24.0606 C   0  0  0  0  0  0  0  0  0  0  0  0
   18.6717   20.4717   23.9998 H   0  0  0  0  0  0  0  0  0  0  0  0
   17.8841   18.9018   23.8228 H   0  0  0  0  0  0  0  0  0  0  0  0
   19.1983   19.0457   25.5013 C   0  0  0  0  0  0  0  0  0  0  0  0
   19.8214   19.8649   26.1473 O   0  5  0  0  0  0  0  0  0  0  0  0
   18.8643   17.9600   25.9330 O   0  0  0  0  0  0  0  0  0  0  0  0
  1  2  1  0  0  0  0
  1  3  1  0  0  0  0
  1  4  2  0  0  0  0
  4  5  1  0  0  0  0
  4  6  1  0  0  0  0
  6  7  1  0  0  0  0
  6  8  1  0  0  0  0
  6  9  1  0  0  0  0
  9 10  1  0  0  0  0
  9 11  1  0  0  0  0
  9 12  1  0  0  0  0
 12 13  1  0  0  0  0
 12 14  1  0  0  0  0
 12 15  1  0  0  0  0
 15 16  1  0  0  0  0
 15 17  1  0  0  0  0
 15 18  1  0  0  0  0
 18 19  1  0  0  0  0
 18 20  2  0  0  0  0
M  END
> <VM2 Rank>
3

> <Conf_Id>
74

> <Probability>
12.21

> <Sum Probability>
39.39

> <Delta G>
0.068

> <G>
-21.822

> <E>
-36.714

> <-TS>
14.893

> <U+W>
-52.811

> <U>
6.633

> <W>
-59.443

> <W(PB)>
-61.703

> <W(SA)>
2.259

> <Valence>
9.076

> <Coulomb>
-3.007

> <VdW>
0.564

> <VdW6>
-5.773

> <VdW12>
6.337

> <Bond>
0.084

> <Angle>
2.239

> <Pdih>
6.752

> <Idih>
0.001

> <Tether>
0.000

$$$$
VeraChem MOL file


 20 19  0  0  0  0  0  0  0  0999 V2000     
   19.2311   18.4037   18.7285 C   0  0  0  0  0  0  0  0  0  0  0  0
   20.0634   17.8372   18.3140 H   0  0  0  0  0  0  0  0  0  0  0  0
   18.2507   18.2556   18.2788 H   0  0  0  0  0  0  0  0  0  0  0  0
   19.4013   19.2463   19.7506 C   0  0  0  0  0  0  0  0  0  0  0  0
   18.5550   19.8059   20.1482 H   0  0  0  0  0  0  0  0  0  0  0  0
   20.7333   19.5076   20.4208 C   0  0  0  0  0  0  0  0  0  0  0  0
   20.8634   20.5852   20.5874 H   0  0  0  0  0  0  0  0  0  0  0  0
   21.5500   19.1990   19.7542 H   0  0  0  0  0  0  0  0  0  0  0  0
   20.8757   18.7516   21.7610 C   0  0  0  0  0  0  0  0  0  0  0  0
   20.7291   17.6761   21.5905 H   0  0  0  0  0  0  0  0  0  0  0  0
   21.9036   18.8743   22.1288 H   0  0  0  0  0  0  0  0  0  0  0  0
   19.8878   19.2504   22.8405 C   0  0  0  0  0  0  0  0  0  0  0  0
   18.8540   19.0972   22.5023 H   0  0  0  0  0  0  0  0  0  0  0  0
   20.0179   20.3310   22.9911 H   0  0  0  0  0  0  0  0  0  0  0  0
   20.0917   18.5178   24.1895 C   0  0  0  0  0  0  0  0  0  0  0  0
   19.9533   17.4379   24.0582 H   0  0  0  0  0  0  0  0  0  0  0  0
   21.1145   18.6720   24.5539 H   0  0  0  0  0  0  0  0  0  0  0  0
   19.1276   18.9910   25.2714 C   0  0  0  0  0  0  0  0  0  0  0  0
   19.4623   19.9293   25.9673 O   0  5  0  0  0  0  0  0  0  0  0  0
   18.0601   18.4203   25.3783 O   0  0  0  0  0  0  0  0  0  0  0  0
  1  2  1  0  0  0  0
  1  3  1  0  0  0  0
  1  4  2  0  0  0  0
  4  5  1  0  0  0  0
  4  6  1  0  0  0  0
  6  7  1  0  0  0  0
  6  8  1  0  0  0  0
  6  9  1  0  0  0  0
  9 10  1  0  0  0  0
  9 11  1  0  0  0  0
  9 12  1  0  0  0  0
 12 13  1  0  0  0  0
 12 14  1  0  0  0  0
 12 15  1  0  0  0  0
 15 16  1  0  0  0  0
 15 17  1  0  0  0  0
 15 18  1  0  0  0  0
 18 19  1  0  0  0  0
 18 20  2  0  0  0  0
M  END
> <VM2 Rank>
4

> <Conf_Id>
692

> <Probability>
4.88

> <Sum Probability>
44.28

> <Delta G>
0.614

> <G>
-21.276

> <E>
-36.308

> <-TS>
15.032

> <U+W>
-52.404

> <U>
7.828

> <W>
-60.232

> <W(PB)>
-62.486

> <W(SA)>
2.254

> <Valence>
9.301

> <Coulomb>
-2.080

> <VdW>
0.608

> <VdW6>
-6.341

> <VdW12>
6.949

> <Bond>
0.103

> <Angle>
2.334

> <Pdih>
6.862

> <Idih>
0.001

> <Tether>
0.000

$$$$
VeraChem MOL file


 20 19  0  0  0  0  0  0  0  0999 V2000     
   21.2428   19.0104   18.9880 C   0  0  0  0  0  0  0  0  0  0  0  0
   20.9772   18.1128   18.4319 H   0  0  0  0  0  0  0  0  0  0  0  0
   22.2182   19.4519   18.7906 H   0  0  0  0  0  0  0  0  0  0  0  0
   20.4088   19.5501   19.8806 C   0  0  0  0  0  0  0  0  0  0  0  0
   20.6933   20.4506   20.4241 H   0  0  0  0  0  0  0  0  0  0  0  0
   19.0371   18.9960   20.2020 C   0  0  0  0  0  0  0  0  0  0  0  0
   18.7024   18.3403   19.3869 H   0  0  0  0  0  0  0  0  0  0  0  0
   18.3067   19.8143   20.2576 H   0  0  0  0  0  0  0  0  0  0  0  0
   19.0218   18.1925   21.5219 C   0  0  0  0  0  0  0  0  0  0  0  0
   18.0410   17.7097   21.6305 H   0  0  0  0  0  0  0  0  0  0  0  0
   19.7653   17.3854   21.4662 H   0  0  0  0  0  0  0  0  0  0  0  0
   19.2948   19.0715   22.7640 C   0  0  0  0  0  0  0  0  0  0  0  0
   18.5666   19.8934   22.8039 H   0  0  0  0  0  0  0  0  0  0  0  0
   20.2901   19.5302   22.6875 H   0  0  0  0  0  0  0  0  0  0  0  0
   19.2151   18.2535   24.0764 C   0  0  0  0  0  0  0  0  0  0  0  0
   18.2222   17.7999   24.1808 H   0  0  0  0  0  0  0  0  0  0  0  0
   19.9452   17.4355   24.0572 H   0  0  0  0  0  0  0  0  0  0  0  0
   19.4824   19.0980   25.3172 C   0  0  0  0  0  0  0  0  0  0  0  0
   20.6283   19.1943   25.7098 O   0  5  0  0  0  0  0  0  0  0  0  0
   18.5398   19.6516   25.8480 O   0  0  0  0  0  0  0  0  0  0  0  0
  1  2  1  0  0  0  0
  1  3  1  0  0  0  0
  1  4  2  0  0  0  0
  4  5  1  0  0  0  0
  4  6  1  0  0  0  0
  6  7  1  0  0  0  0
  6  8  1  0  0  0  0
  6  9  1  0  0  0  0
  9 10  1  0  0  0  0
  9 11  1  0  0  0  0
  9 12  1  0  0  0  0
 12 13  1  0  0  0  0
 12 14  1  0  0  0  0
 12 15  1  0  0  0  0
 15 16  1  0  0  0  0
 15 17  1  0  0  0  0
 15 18  1  0  0  0  0
 18 19  1  0  0  0  0
 18 20  2  0  0  0  0
M  END
> <VM2 Rank>
5

> <Conf_Id>
132

> <Probability>
4.69

> <Sum Probability>
48.97

> <Delta G>
0.638

> <G>
-21.252

> <E>
-36.284

> <-TS>
15.032

> <U+W>
-52.381

> <U>
7.828

> <W>
-60.209

> <W(PB)>
-62.451

> <W(SA)>
2.242

> <Valence>
9.300

> <Coulomb>
-2.080

> <VdW>
0.608

> <VdW6>
-6.341

> <VdW12>
6.949

> <Bond>
0.103

> <Angle>
2.334

> <Pdih>
6.862

> <Idih>
0.001

> <Tether>
0.000

$$$$
VeraChem MOL file


 20 19  0  0  0  0  0  0  0  0999 V2000     
   19.7219   18.9161   18.3063 C   0  0  0  0  0  0  0  0  0  0  0  0
   20.2157   18.8211   17.3407 H   0  0  0  0  0  0  0  0  0  0  0  0
   18.7435   19.3935   18.3238 H   0  0  0  0  0  0  0  0  0  0  0  0
   20.2984   18.4655   19.4235 C   0  0  0  0  0  0  0  0  0  0  0  0
   21.2789   17.9914   19.3844 H   0  0  0  0  0  0  0  0  0  0  0  0
   19.6742   18.5615   20.7979 C   0  0  0  0  0  0  0  0  0  0  0  0
   19.7367   17.5831   21.2907 H   0  0  0  0  0  0  0  0  0  0  0  0
   18.6069   18.8073   20.7138 H   0  0  0  0  0  0  0  0  0  0  0  0
   20.3832   19.6338   21.6555 C   0  0  0  0  0  0  0  0  0  0  0  0
   21.4373   19.3576   21.7953 H   0  0  0  0  0  0  0  0  0  0  0  0
   20.3822   20.5844   21.1045 H   0  0  0  0  0  0  0  0  0  0  0  0
   19.7173   19.8615   23.0335 C   0  0  0  0  0  0  0  0  0  0  0  0
   18.6663   20.1507   22.8948 H   0  0  0  0  0  0  0  0  0  0  0  0
   20.2100   20.7109   23.5266 H   0  0  0  0  0  0  0  0  0  0  0  0
   19.7958   18.6281   23.9702 C   0  0  0  0  0  0  0  0  0  0  0  0
   19.2357   17.7859   23.5485 H   0  0  0  0  0  0  0  0  0  0  0  0
   20.8372   18.3035   24.0824 H   0  0  0  0  0  0  0  0  0  0  0  0
   19.2353   18.9075   25.3601 C   0  0  0  0  0  0  0  0  0  0  0  0
   19.9949   19.3259   26.2114 O   0  5  0  0  0  0  0  0  0  0  0  0
   18.0500   18.7183   25.5496 O   0  0  0  0  0  0  0  0  0  0  0  0
  1  2  1  0  0  0  0
  1  3  1  0  0  0  0
  1  4  2  0  0  0  0
  4  5  1  0  0  0  0
  4  6  1  0  0  0  0
  6  7  1  0  0  0  0
  6  8  1  0  0  0  0
  6  9  1  0  0  0  0
  9 10  1  0  0  0  0
  9 11  1  0  0  0  0
  9 12  1  0  0  0  0
 12 13  1  0  0  0  0
 12 14  1  0  0  0  0
 12 15  1  0  0  0  0
 15 16  1  0  0  0  0
 15 17  1  0  0  0  0
 15 18  1  0  0  0  0
 18 19  1  0  0  0  0
 18 20  2  0  0  0  0
M  END
> <VM2 Rank>
6

> <Conf_Id>
182

> <Probability>
3.98

> <Sum Probability>
52.95

> <Delta G>
0.736

> <G>
-21.153

> <E>
-36.159

> <-TS>
15.006

> <U+W>
-52.256

> <U>
7.491

> <W>
-59.747

> <W(PB)>
-61.973

> <W(SA)>
2.226

> <Valence>
9.604

> <Coulomb>
-2.799

> <VdW>
0.686

> <VdW6>
-6.435

> <VdW12>
7.121

> <Bond>
0.124

> <Angle>
2.493

> <Pdih>
6.986

> <Idih>
0.001

> <Tether>
0.000

$$$$
VeraChem MOL file


 20 19  0  0  0  0  0  0  0  0999 V2000     
   18.6393   19.5606   19.3943 C   0  0  0  0  0  0  0  0  0  0  0  0
   18.7041   20.6147   19.6592 H   0  0  0  0  0  0  0  0  0  0  0  0
   17.7307   19.2234   18.8985 H   0  0  0  0  0  0  0  0  0  0  0  0
   19.6322   18.7104   19.6688 C   0  0  0  0  0  0  0  0  0  0  0  0
   19.5464   17.6585   19.3974 H   0  0  0  0  0  0  0  0  0  0  0  0
   20.9227   19.1046   20.3552 C   0  0  0  0  0  0  0  0  0  0  0  0
   21.0142   20.1980   20.4081 H   0  0  0  0  0  0  0  0  0  0  0  0
   21.7711   18.7517   19.7539 H   0  0  0  0  0  0  0  0  0  0  0  0
   21.0364   18.5081   21.7762 C   0  0  0  0  0  0  0  0  0  0  0  0
   20.9441   17.4146   21.7233 H   0  0  0  0  0  0  0  0  0  0  0  0
   22.0394   18.7204   22.1708 H   0  0  0  0  0  0  0  0  0  0  0  0
   19.9773   19.0767   22.7481 C   0  0  0  0  0  0  0  0  0  0  0  0
   18.9685   18.8473   22.3780 H   0  0  0  0  0  0  0  0  0  0  0  0
   20.0603   20.1716   22.7865 H   0  0  0  0  0  0  0  0  0  0  0  0
   20.1375   18.5003   24.1765 C   0  0  0  0  0  0  0  0  0  0  0  0
   20.0445   17.4079   24.1562 H   0  0  0  0  0  0  0  0  0  0  0  0
   21.1341   18.7340   24.5699 H   0  0  0  0  0  0  0  0  0  0  0  0
   19.1032   19.0462   25.1544 C   0  0  0  0  0  0  0  0  0  0  0  0
   19.3632   20.0730   25.7501 O   0  5  0  0  0  0  0  0  0  0  0  0
   18.0592   18.4381   25.2844 O   0  0  0  0  0  0  0  0  0  0  0  0
  1  2  1  0  0  0  0
  1  3  1  0  0  0  0
  1  4  2  0  0  0  0
  4  5  1  0  0  0  0
  4  6  1  0  0  0  0
  6  7  1  0  0  0  0
  6  8  1  0  0  0  0
  6  9  1  0  0  0  0
  9 10  1  0  0  0  0
  9 11  1  0  0  0  0
  9 12  1  0  0  0  0
 12 13  1  0  0  0  0
 12 14  1  0  0  0  0
 12 15  1  0  0  0  0
 15 16  1  0  0  0  0
 15 17  1  0  0  0  0
 15 18  1  0  0  0  0
 18 19  1  0  0  0  0
 18 20  2  0  0  0  0
M  END
> <VM2 Rank>
7

> <Conf_Id>
679

> <Probability>
3.88

> <Sum Probability>
56.83

> <Delta G>
0.751

> <G>
-21.139

> <E>
-36.251

> <-TS>
15.112

> <U+W>
-52.347

> <U>
8.428

> <W>
-60.775

> <W(PB)>
-62.983

> <W(SA)>
2.208

> <Valence>
9.231

> <Coulomb>
-1.304

> <VdW>
0.502

> <VdW6>
-6.515

> <VdW12>
7.017

> <Bond>
0.103

> <Angle>
2.328

> <Pdih>
6.799

> <Idih>
0.000

> <Tether>
0.000

$$$$
VeraChem MOL file


 20 19  0  0  0  0  0  0  0  0999 V2000     
   20.3965   17.5036   19.6230 C   0  0  0  0  0  0  0  0  0  0  0  0
   21.4119   17.4449   20.0114 H   0  0  0  0  0  0  0  0  0  0  0  0
   19.9724   16.5992   19.1904 H   0  0  0  0  0  0  0  0  0  0  0  0
   19.6938   18.6382   19.6769 C   0  0  0  0  0  0  0  0  0  0  0  0
   18.6778   18.6750   19.2847 H   0  0  0  0  0  0  0  0  0  0  0  0
   20.2149   19.9331   20.2631 C   0  0  0  0  0  0  0  0  0  0  0  0
   20.0721   20.7406   19.5327 H   0  0  0  0  0  0  0  0  0  0  0  0
   21.2963   19.8676   20.4448 H   0  0  0  0  0  0  0  0  0  0  0  0
   19.4934   20.3144   21.5753 C   0  0  0  0  0  0  0  0  0  0  0  0
   19.8214   21.3170   21.8820 H   0  0  0  0  0  0  0  0  0  0  0  0
   18.4118   20.3791   21.3936 H   0  0  0  0  0  0  0  0  0  0  0  0
   19.7731   19.3157   22.7216 C   0  0  0  0  0  0  0  0  0  0  0  0
   20.8562   19.2397   22.8901 H   0  0  0  0  0  0  0  0  0  0  0  0
   19.4248   18.3131   22.4375 H   0  0  0  0  0  0  0  0  0  0  0  0
   19.0781   19.7406   24.0386 C   0  0  0  0  0  0  0  0  0  0  0  0
   19.4261   20.7336   24.3475 H   0  0  0  0  0  0  0  0  0  0  0  0
   17.9938   19.8086   23.8892 H   0  0  0  0  0  0  0  0  0  0  0  0
   19.3389   18.7703   25.1851 C   0  0  0  0  0  0  0  0  0  0  0  0
   20.3231   18.9493   25.8752 O   0  5  0  0  0  0  0  0  0  0  0  0
   18.5592   17.8528   25.3492 O   0  0  0  0  0  0  0  0  0  0  0  0
  1  2  1  0  0  0  0
  1  3  1  0  0  0  0
  1  4  2  0  0  0  0
  4  5  1  0  0  0  0
  4  6  1  0  0  0  0
  6  7  1  0  0  0  0
  6  8  1  0  0  0  0
  6  9  1  0  0  0  0
  9 10  1  0  0  0  0
  9 11  1  0  0  0  0
  9 12  1  0  0  0  0
 12 13  1  0  0  0  0
 12 14  1  0  0  0  0
 12 15  1  0  0  0  0
 15 16  1  0  0  0  0
 15 17  1  0  0  0  0
 15 18  1  0  0  0  0
 18 19  1  0  0  0  0
 18 20  2  0  0  0  0
M  END
> <VM2 Rank>
8

> <Conf_Id>
541

> <Probability>
3.82

> <Sum Probability>
60.65

> <Delta G>
0.760

> <G>
-21.129

> <E>
-36.241

> <-TS>
15.112

> <U+W>
-52.338

> <U>
8.428

> <W>
-60.766

> <W(PB)>
-62.975

> <W(SA)>
2.209

> <Valence>
9.230

> <Coulomb>
-1.303

> <VdW>
0.501

> <VdW6>
-6.515

> <VdW12>
7.017

> <Bond>
0.103

> <Angle>
2.328

> <Pdih>
6.799

> <Idih>
0.000

> <Tether>
0.000

$$$$
VeraChem MOL file


 20 19  0  0  0  0  0  0  0  0999 V2000     
   19.8311   18.5362   18.3333 C   0  0  0  0  0  0  0  0  0  0  0  0
   20.2354   18.7512   17.3456 H   0  0  0  0  0  0  0  0  0  0  0  0
   19.2540   17.6203   18.4500 H   0  0  0  0  0  0  0  0  0  0  0  0
   20.0392   19.3653   19.3595 C   0  0  0  0  0  0  0  0  0  0  0  0
   20.6204   20.2767   19.2217 H   0  0  0  0  0  0  0  0  0  0  0  0
   19.5094   19.1340   20.7572 C   0  0  0  0  0  0  0  0  0  0  0  0
   18.7384   18.3516   20.7463 H   0  0  0  0  0  0  0  0  0  0  0  0
   19.0256   20.0515   21.1151 H   0  0  0  0  0  0  0  0  0  0  0  0
   20.6458   18.7230   21.7203 C   0  0  0  0  0  0  0  0  0  0  0  0
   21.1693   17.8538   21.2988 H   0  0  0  0  0  0  0  0  0  0  0  0
   21.3874   19.5311   21.7830 H   0  0  0  0  0  0  0  0  0  0  0  0
   20.1502   18.3597   23.1404 C   0  0  0  0  0  0  0  0  0  0  0  0
   20.9991   17.9734   23.7215 H   0  0  0  0  0  0  0  0  0  0  0  0
   19.4182   17.5424   23.0804 H   0  0  0  0  0  0  0  0  0  0  0  0
   19.5279   19.5574   23.9041 C   0  0  0  0  0  0  0  0  0  0  0  0
   20.2341   20.3957   23.9335 H   0  0  0  0  0  0  0  0  0  0  0  0
   18.6231   19.9112   23.3972 H   0  0  0  0  0  0  0  0  0  0  0  0
   19.1486   19.2081   25.3387 C   0  0  0  0  0  0  0  0  0  0  0  0
   19.9818   19.3713   26.2082 O   0  5  0  0  0  0  0  0  0  0  0  0
   18.0371   18.7630   25.5463 O   0  0  0  0  0  0  0  0  0  0  0  0
  1  2  1  0  0  0  0
  1  3  1  0  0  0  0
  1  4  2  0  0  0  0
  4  5  1  0  0  0  0
  4  6  1  0  0  0  0
  6  7  1  0  0  0  0
  6  8  1  0  0  0  0
  6  9  1  0  0  0  0
  9 10  1  0  0  0  0
  9 11  1  0  0  0  0
  9 12  1  0  0  0  0
 12 13  1  0  0  0  0
 12 14  1  0  0  0  0
 12 15  1  0  0  0  0
 15 16  1  0  0  0  0
 15 17  1  0  0  0  0
 15 18  1  0  0  0  0
 18 19  1  0  0  0  0
 18 20  2  0  0  0  0
M  END
> <VM2 Rank>
9

> <Conf_Id>
628

> <Probability>
3.76

> <Sum Probability>
64.41

> <Delta G>
0.770

> <G>
-21.119

> <E>
-36.125

> <-TS>
15.006

> <U+W>
-52.222

> <U>
7.491

> <W>
-59.713

> <W(PB)>
-61.947

> <W(SA)>
2.234

> <Valence>
9.604

> <Coulomb>
-2.798

> <VdW>
0.686

> <VdW6>
-6.435

> <VdW12>
7.121

> <Bond>
0.124

> <Angle>
2.493

> <Pdih>
6.986

> <Idih>
0.001

> <Tether>
0.000

$$$$
VeraChem MOL file


 20 19  0  0  0  0  0  0  0  0999 V2000     
   20.7498   18.7253   18.7013 C   0  0  0  0  0  0  0  0  0  0  0  0
   20.8794   18.5156   17.6409 H   0  0  0  0  0  0  0  0  0  0  0  0
   21.6420   19.0003   19.2597 H   0  0  0  0  0  0  0  0  0  0  0  0
   19.5428   18.6403   19.2720 C   0  0  0  0  0  0  0  0  0  0  0  0
   18.6863   18.3581   18.6602 H   0  0  0  0  0  0  0  0  0  0  0  0
   19.2063   18.9025   20.7306 C   0  0  0  0  0  0  0  0  0  0  0  0
   18.7971   17.9806   21.1623 H   0  0  0  0  0  0  0  0  0  0  0  0
   18.3932   19.6392   20.7761 H   0  0  0  0  0  0  0  0  0  0  0  0
   20.3899   19.4064   21.5934 C   0  0  0  0  0  0  0  0  0  0  0  0
   21.1833   18.6468   21.6152 H   0  0  0  0  0  0  0  0  0  0  0  0
   20.8204   20.3000   21.1211 H   0  0  0  0  0  0  0  0  0  0  0  0
   19.9850   19.7700   23.0421 C   0  0  0  0  0  0  0  0  0  0  0  0
   19.1954   20.5339   23.0269 H   0  0  0  0  0  0  0  0  0  0  0  0
   20.8488   20.2277   23.5441 H   0  0  0  0  0  0  0  0  0  0  0  0
   19.5123   18.5524   23.8783 C   0  0  0  0  0  0  0  0  0  0  0  0
   18.5949   18.1262   23.4571 H   0  0  0  0  0  0  0  0  0  0  0  0
   20.2745   17.7643   23.8638 H   0  0  0  0  0  0  0  0  0  0  0  0
   19.2305   18.9108   25.3330 C   0  0  0  0  0  0  0  0  0  0  0  0
   20.1422   18.8246   26.1319 O   0  5  0  0  0  0  0  0  0  0  0  0
   18.1122   19.2857   25.6254 O   0  0  0  0  0  0  0  0  0  0  0  0
  1  2  1  0  0  0  0
  1  3  1  0  0  0  0
  1  4  2  0  0  0  0
  4  5  1  0  0  0  0
  4  6  1  0  0  0  0
  6  7  1  0  0  0  0
  6  8  1  0  0  0  0
  6  9  1  0  0  0  0
  9 10  1  0  0  0  0
  9 11  1  0  0  0  0
  9 12  1  0  0  0  0
 12 13  1  0  0  0  0
 12 14  1  0  0  0  0
 12 15  1  0  0  0  0
 15 16  1  0  0  0  0
 15 17  1  0  0  0  0
 15 18  1  0  0  0  0
 18 19  1  0  0  0  0
 18 20  2  0  0  0  0
M  END
> <VM2 Rank>
10

> <Conf_Id>
312

> <Probability>
3.63

> <Sum Probability>
68.04

> <Delta G>
0.791

> <G>
-21.099

> <E>
-36.455

> <-TS>
15.356

> <U+W>
-52.551

> <U>
7.428

> <W>
-59.979

> <W(PB)>
-62.177

> <W(SA)>
2.198

> <Valence>
8.549

> <Coulomb>
-2.540

> <VdW>
1.419

> <VdW6>
-7.115

> <VdW12>
8.535

> <Bond>
0.184

> <Angle>
3.112

> <Pdih>
5.251

> <Idih>
0.001

> <Tether>
0.000

$$$$
VeraChem MOL file


 20 19  0  0  0  0  0  0  0  0999 V2000     
   20.5532   17.9816   18.7232 C   0  0  0  0  0  0  0  0  0  0  0  0
   20.4879   17.8983   17.6397 H   0  0  0  0  0  0  0  0  0  0  0  0
   20.8525   17.0931   19.2769 H   0  0  0  0  0  0  0  0  0  0  0  0
   20.2735   19.1299   19.3452 C   0  0  0  0  0  0  0  0  0  0  0  0
   19.9750   20.0076   18.7722 H   0  0  0  0  0  0  0  0  0  0  0  0
   20.3431   19.3212   20.8440 C   0  0  0  0  0  0  0  0  0  0  0  0
   20.8982   20.2412   21.0708 H   0  0  0  0  0  0  0  0  0  0  0  0
   20.9013   18.4934   21.2998 H   0  0  0  0  0  0  0  0  0  0  0  0
   18.9280   19.4046   21.4593 C   0  0  0  0  0  0  0  0  0  0  0  0
   18.3600   20.1883   20.9394 H   0  0  0  0  0  0  0  0  0  0  0  0
   18.3926   18.4623   21.2787 H   0  0  0  0  0  0  0  0  0  0  0  0
   18.9308   19.7206   22.9740 C   0  0  0  0  0  0  0  0  0  0  0  0
   17.8938   19.8751   23.3032 H   0  0  0  0  0  0  0  0  0  0  0  0
   19.4577   20.6677   23.1551 H   0  0  0  0  0  0  0  0  0  0  0  0
   19.5657   18.6009   23.8389 C   0  0  0  0  0  0  0  0  0  0  0  0
   19.0765   17.6411   23.6342 H   0  0  0  0  0  0  0  0  0  0  0  0
   20.6284   18.4825   23.5992 H   0  0  0  0  0  0  0  0  0  0  0  0
   19.4563   18.8778   25.3340 C   0  0  0  0  0  0  0  0  0  0  0  0
   20.3462   19.5109   25.8669 O   0  5  0  0  0  0  0  0  0  0  0  0
   18.4743   18.4704   25.9225 O   0  0  0  0  0  0  0  0  0  0  0  0
  1  2  1  0  0  0  0
  1  3  1  0  0  0  0
  1  4  2  0  0  0  0
  4  5  1  0  0  0  0
  4  6  1  0  0  0  0
  6  7  1  0  0  0  0
  6  8  1  0  0  0  0
  6  9  1  0  0  0  0
  9 10  1  0  0  0  0
  9 11  1  0  0  0  0
  9 12  1  0  0  0  0
 12 13  1  0  0  0  0
 12 14  1  0  0  0  0
 12 15  1  0  0  0  0
 15 16  1  0  0  0  0
 15 17  1  0  0  0  0
 15 18  1  0  0  0  0
 18 19  1  0  0  0  0
 18 20  2  0  0  0  0
M  END
> <VM2 Rank>
11

> <Conf_Id>
666

> <Probability>
3.43

> <Sum Probability>
71.47

> <Delta G>
0.825

> <G>
-21.065

> <E>
-36.060

> <-TS>
14.995

> <U+W>
-52.157

> <U>
7.601

> <W>
-59.758

> <W(PB)>
-62.006

> <W(SA)>
2.248

> <Valence>
9.602

> <Coulomb>
-2.686

> <VdW>
0.686

> <VdW6>
-6.453

> <VdW12>
7.139

> <Bond>
0.125

> <Angle>
2.485

> <Pdih>
6.991

> <Idih>
0.001

> <Tether>
0.000

$$$$
VeraChem MOL file


 20 19  0  0  0  0  0  0  0  0999 V2000     
   20.4091   17.9382   18.7046 C   0  0  0  0  0  0  0  0  0  0  0  0
   20.7592   17.9803   17.6746 H   0  0  0  0  0  0  0  0  0  0  0  0
   20.5234   16.9938   19.2344 H   0  0  0  0  0  0  0  0  0  0  0  0
   19.8637   19.0063   19.2923 C   0  0  0  0  0  0  0  0  0  0  0  0
   19.7590   19.9425   18.7443 H   0  0  0  0  0  0  0  0  0  0  0  0
   19.3544   19.0228   20.7165 C   0  0  0  0  0  0  0  0  0  0  0  0
   19.2496   17.9949   21.0867 H   0  0  0  0  0  0  0  0  0  0  0  0
   18.3532   19.4731   20.7426 H   0  0  0  0  0  0  0  0  0  0  0  0
   20.3056   19.8202   21.6369 C   0  0  0  0  0  0  0  0  0  0  0  0
   21.2923   19.3372   21.6528 H   0  0  0  0  0  0  0  0  0  0  0  0
   20.4574   20.8211   21.2099 H   0  0  0  0  0  0  0  0  0  0  0  0
   19.7785   19.9764   23.0834 C   0  0  0  0  0  0  0  0  0  0  0  0
   18.7959   20.4680   23.0697 H   0  0  0  0  0  0  0  0  0  0  0  0
   20.4531   20.6472   23.6333 H   0  0  0  0  0  0  0  0  0  0  0  0
   19.6754   18.6340   23.8531 C   0  0  0  0  0  0  0  0  0  0  0  0
   18.9395   17.9732   23.3814 H   0  0  0  0  0  0  0  0  0  0  0  0
   20.6400   18.1127   23.8357 H   0  0  0  0  0  0  0  0  0  0  0  0
   19.2647   18.8200   25.3093 C   0  0  0  0  0  0  0  0  0  0  0  0
   20.1408   18.9724   26.1375 O   0  5  0  0  0  0  0  0  0  0  0  0
   18.0788   18.8277   25.5745 O   0  0  0  0  0  0  0  0  0  0  0  0
  1  2  1  0  0  0  0
  1  3  1  0  0  0  0
  1  4  2  0  0  0  0
  4  5  1  0  0  0  0
  4  6  1  0  0  0  0
  6  7  1  0  0  0  0
  6  8  1  0  0  0  0
  6  9  1  0  0  0  0
  9 10  1  0  0  0  0
  9 11  1  0  0  0  0
  9 12  1  0  0  0  0
 12 13  1  0  0  0  0
 12 14  1  0  0  0  0
 12 15  1  0  0  0  0
 15 16  1  0  0  0  0
 15 17  1  0  0  0  0
 15 18  1  0  0  0  0
 18 19  1  0  0  0  0
 18 20  2  0  0  0  0
M  END
> <VM2 Rank>
12

> <Conf_Id>
230

> <Probability>
3.25

> <Sum Probability>
74.72

> <Delta G>
0.856

> <G>
-21.034

> <E>
-36.029

> <-TS>
14.996

> <U+W>
-52.126

> <U>
7.601

> <W>
-59.727

> <W(PB)>
-61.964

> <W(SA)>
2.236

> <Valence>
9.602

> <Coulomb>
-2.686

> <VdW>
0.685

> <VdW6>
-6.453

> <VdW12>
7.139

> <Bond>
0.125

> <Angle>
2.485

> <Pdih>
6.991

> <Idih>
0.001

> <Tether>
0.000

$$$$
VeraChem MOL file


 20 19  0  0  0  0  0  0  0  0999 V2000     
   19.8502   18.4541   18.5853 C   0  0  0  0  0  0  0  0  0  0  0  0
   20.1069   18.2829   17.5412 H   0  0  0  0  0  0  0  0  0  0  0  0
   18.8514   18.1591   18.8998 H   0  0  0  0  0  0  0  0  0  0  0  0
   20.7363   19.0000   19.4260 C   0  0  0  0  0  0  0  0  0  0  0  0
   21.7225   19.2735   19.0518 H   0  0  0  0  0  0  0  0  0  0  0  0
   20.5249   19.3000   20.9007 C   0  0  0  0  0  0  0  0  0  0  0  0
   20.7686   20.3552   21.0825 H   0  0  0  0  0  0  0  0  0  0  0  0
   21.2559   18.7218   21.4795 H   0  0  0  0  0  0  0  0  0  0  0  0
   19.0958   19.0163   21.4264 C   0  0  0  0  0  0  0  0  0  0  0  0
   18.3725   19.5622   20.8054 H   0  0  0  0  0  0  0  0  0  0  0  0
   18.8648   17.9480   21.3162 H   0  0  0  0  0  0  0  0  0  0  0  0
   18.8867   19.4390   22.9004 C   0  0  0  0  0  0  0  0  0  0  0  0
   17.8246   19.3161   23.1540 H   0  0  0  0  0  0  0  0  0  0  0  0
   19.1108   20.5084   23.0160 H   0  0  0  0  0  0  0  0  0  0  0  0
   19.7357   18.6198   23.9071 C   0  0  0  0  0  0  0  0  0  0  0  0
   19.5538   17.5471   23.7708 H   0  0  0  0  0  0  0  0  0  0  0  0
   20.8051   18.7924   23.7422 H   0  0  0  0  0  0  0  0  0  0  0  0
   19.4287   18.9706   25.3586 C   0  0  0  0  0  0  0  0  0  0  0  0
   20.0578   19.8722   25.8764 O   0  5  0  0  0  0  0  0  0  0  0  0
   18.5549   18.3462   25.9272 O   0  0  0  0  0  0  0  0  0  0  0  0
  1  2  1  0  0  0  0
  1  3  1  0  0  0  0
  1  4  2  0  0  0  0
  4  5  1  0  0  0  0
  4  6  1  0  0  0  0
  6  7  1  0  0  0  0
  6  8  1  0  0  0  0
  6  9  1  0  0  0  0
  9 10  1  0  0  0  0
  9 11  1  0  0  0  0
  9 12  1  0  0  0  0
 12 13  1  0  0  0  0
 12 14  1  0  0  0  0
 12 15  1  0  0  0  0
 15 16  1  0  0  0  0
 15 17  1  0  0  0  0
 15 18  1  0  0  0  0
 18 19  1  0  0  0  0
 18 20  2  0  0  0  0
M  END
> <VM2 Rank>
13

> <Conf_Id>
510

> <Probability>
3.04

> <Sum Probability>
77.76

> <Delta G>
0.896

> <G>
-20.994

> <E>
-36.350

> <-TS>
15.356

> <U+W>
-52.446

> <U>
7.428

> <W>
-59.874

> <W(PB)>
-62.078

> <W(SA)>
2.204

> <Valence>
8.548

> <Coulomb>
-2.540

> <VdW>
1.420

> <VdW6>
-7.116

> <VdW12>
8.535

> <Bond>
0.184

> <Angle>
3.112

> <Pdih>
5.252

> <Idih>
0.001

> <Tether>
0.000

$$$$
VeraChem MOL file


 20 19  0  0  0  0  0  0  0  0999 V2000     
   19.8559   17.5665   19.8301 C   0  0  0  0  0  0  0  0  0  0  0  0
   20.1963   16.6519   19.3479 H   0  0  0  0  0  0  0  0  0  0  0  0
   18.9626   17.4944   20.4465 H   0  0  0  0  0  0  0  0  0  0  0  0
   20.5160   18.7172   19.6578 C   0  0  0  0  0  0  0  0  0  0  0  0
   21.4041   18.7279   19.0265 H   0  0  0  0  0  0  0  0  0  0  0  0
   20.1672   20.0675   20.2642 C   0  0  0  0  0  0  0  0  0  0  0  0
   19.7574   20.7102   19.4738 H   0  0  0  0  0  0  0  0  0  0  0  0
   21.0940   20.5616   20.5852 H   0  0  0  0  0  0  0  0  0  0  0  0
   19.1838   20.0451   21.4606 C   0  0  0  0  0  0  0  0  0  0  0  0
   18.9017   21.0799   21.6981 H   0  0  0  0  0  0  0  0  0  0  0  0
   18.2545   19.5345   21.1756 H   0  0  0  0  0  0  0  0  0  0  0  0
   19.7916   19.3954   22.7257 C   0  0  0  0  0  0  0  0  0  0  0  0
   20.7034   19.9354   23.0159 H   0  0  0  0  0  0  0  0  0  0  0  0
   20.0924   18.3608   22.5132 H   0  0  0  0  0  0  0  0  0  0  0  0
   18.7950   19.4011   23.9109 C   0  0  0  0  0  0  0  0  0  0  0  0
   18.4978   20.4289   24.1512 H   0  0  0  0  0  0  0  0  0  0  0  0
   17.8836   18.8543   23.6409 H   0  0  0  0  0  0  0  0  0  0  0  0
   19.3716   18.7681   25.1722 C   0  0  0  0  0  0  0  0  0  0  0  0
   19.9889   19.4795   25.9401 O   0  5  0  0  0  0  0  0  0  0  0  0
   19.2010   17.5776   25.3465 O   0  0  0  0  0  0  0  0  0  0  0  0
  1  2  1  0  0  0  0
  1  3  1  0  0  0  0
  1  4  2  0  0  0  0
  4  5  1  0  0  0  0
  4  6  1  0  0  0  0
  6  7  1  0  0  0  0
  6  8  1  0  0  0  0
  6  9  1  0  0  0  0
  9 10  1  0  0  0  0
  9 11  1  0  0  0  0
  9 12  1  0  0  0  0
 12 13  1  0  0  0  0
 12 14  1  0  0  0  0
 12 15  1  0  0  0  0
 15 16  1  0  0  0  0
 15 17  1  0  0  0  0
 15 18  1  0  0  0  0
 18 19  1  0  0  0  0
 18 20  2  0  0  0  0
M  END
> <VM2 Rank>
14

> <Conf_Id>
642

> <Probability>
1.70

> <Sum Probability>
79.46

> <Delta G>
1.244

> <G>
-20.646

> <E>
-36.099

> <-TS>
15.454

> <U+W>
-52.196

> <U>
8.773

> <W>
-60.969

> <W(PB)>
-63.158

> <W(SA)>
2.189

> <Valence>
8.762

> <Coulomb>
-1.079

> <VdW>
1.090

> <VdW6>
-7.279

> <VdW12>
8.369

> <Bond>
0.166

> <Angle>
3.199

> <Pdih>
5.396

> <Idih>
0.000

> <Tether>
0.000

$$$$
VeraChem MOL file


 20 19  0  0  0  0  0  0  0  0999 V2000     
   20.9386   17.8930   19.9699 C   0  0  0  0  0  0  0  0  0  0  0  0
   21.2747   16.9770   19.4872 H   0  0  0  0  0  0  0  0  0  0  0  0
   21.5540   18.2758   20.7810 H   0  0  0  0  0  0  0  0  0  0  0  0
   19.8204   18.5074   19.5681 C   0  0  0  0  0  0  0  0  0  0  0  0
   19.2460   18.0771   18.7481 H   0  0  0  0  0  0  0  0  0  0  0  0
   19.2248   19.7833   20.1426 C   0  0  0  0  0  0  0  0  0  0  0  0
   18.1342   19.6690   20.2034 H   0  0  0  0  0  0  0  0  0  0  0  0
   19.3891   20.5992   19.4263 H   0  0  0  0  0  0  0  0  0  0  0  0
   19.7507   20.2161   21.5337 C   0  0  0  0  0  0  0  0  0  0  0  0
   20.8439   20.3155   21.5096 H   0  0  0  0  0  0  0  0  0  0  0  0
   19.3591   21.2178   21.7572 H   0  0  0  0  0  0  0  0  0  0  0  0
   19.3202   19.2531   22.6648 C   0  0  0  0  0  0  0  0  0  0  0  0
   19.6908   18.2397   22.4614 H   0  0  0  0  0  0  0  0  0  0  0  0
   18.2238   19.1874   22.6959 H   0  0  0  0  0  0  0  0  0  0  0  0
   19.8438   19.7175   24.0461 C   0  0  0  0  0  0  0  0  0  0  0  0
   20.9388   19.7759   24.0351 H   0  0  0  0  0  0  0  0  0  0  0  0
   19.4675   20.7214   24.2763 H   0  0  0  0  0  0  0  0  0  0  0  0
   19.4303   18.7858   25.1798 C   0  0  0  0  0  0  0  0  0  0  0  0
   20.1756   17.8717   25.4723 O   0  5  0  0  0  0  0  0  0  0  0  0
   18.3666   18.9900   25.7307 O   0  0  0  0  0  0  0  0  0  0  0  0
  1  2  1  0  0  0  0
  1  3  1  0  0  0  0
  1  4  2  0  0  0  0
  4  5  1  0  0  0  0
  4  6  1  0  0  0  0
  6  7  1  0  0  0  0
  6  8  1  0  0  0  0
  6  9  1  0  0  0  0
  9 10  1  0  0  0  0
  9 11  1  0  0  0  0
  9 12  1  0  0  0  0
 12 13  1  0  0  0  0
 12 14  1  0  0  0  0
 12 15  1  0  0  0  0
 15 16  1  0  0  0  0
 15 17  1  0  0  0  0
 15 18  1  0  0  0  0
 18 19  1  0  0  0  0
 18 20  2  0  0  0  0
M  END
> <VM2 Rank>
15

> <Conf_Id>
713

> <Probability>
1.54

> <Sum Probability>
81.00

> <Delta G>
1.301

> <G>
-20.589

> <E>
-36.043

> <-TS>
15.454

> <U+W>
-52.139

> <U>
8.773

> <W>
-60.912

> <W(PB)>
-63.120

> <W(SA)>
2.208

> <Valence>
8.761

> <Coulomb>
-1.079

> <VdW>
1.090

> <VdW6>
-7.280

> <VdW12>
8.370

> <Bond>
0.166

> <Angle>
3.199

> <Pdih>
5.396

> <Idih>
0.000

> <Tether>
0.000

$$$$
VeraChem MOL file


 20 19  0  0  0  0  0  0  0  0999 V2000     
   19.5299   18.5192   18.5564 C   0  0  0  0  0  0  0  0  0  0  0  0
   18.7846   18.5317   17.7629 H   0  0  0  0  0  0  0  0  0  0  0  0
   20.3348   17.7904   18.4763 H   0  0  0  0  0  0  0  0  0  0  0  0
   19.4544   19.3649   19.5873 C   0  0  0  0  0  0  0  0  0  0  0  0
   18.6398   20.0862   19.6491 H   0  0  0  0  0  0  0  0  0  0  0  0
   20.4511   19.4067   20.7242 C   0  0  0  0  0  0  0  0  0  0  0  0
   20.7665   20.4442   20.8983 H   0  0  0  0  0  0  0  0  0  0  0  0
   21.3549   18.8418   20.4585 H   0  0  0  0  0  0  0  0  0  0  0  0
   19.8440   18.8269   22.0189 C   0  0  0  0  0  0  0  0  0  0  0  0
   18.9415   19.3951   22.2837 H   0  0  0  0  0  0  0  0  0  0  0  0
   19.5254   17.7908   21.8396 H   0  0  0  0  0  0  0  0  0  0  0  0
   20.8491   18.8650   23.1922 C   0  0  0  0  0  0  0  0  0  0  0  0
   21.1617   19.9014   23.3813 H   0  0  0  0  0  0  0  0  0  0  0  0
   21.7536   18.3080   22.9125 H   0  0  0  0  0  0  0  0  0  0  0  0
   20.2675   18.2582   24.4955 C   0  0  0  0  0  0  0  0  0  0  0  0
   19.9250   17.2319   24.3158 H   0  0  0  0  0  0  0  0  0  0  0  0
   21.0547   18.2015   25.2565 H   0  0  0  0  0  0  0  0  0  0  0  0
   19.1136   19.0595   25.0914 C   0  0  0  0  0  0  0  0  0  0  0  0
   19.3760   20.0917   25.6770 O   0  5  0  0  0  0  0  0  0  0  0  0
   17.9854   18.6258   24.9650 O   0  0  0  0  0  0  0  0  0  0  0  0
  1  2  1  0  0  0  0
  1  3  1  0  0  0  0
  1  4  2  0  0  0  0
  4  5  1  0  0  0  0
  4  6  1  0  0  0  0
  6  7  1  0  0  0  0
  6  8  1  0  0  0  0
  6  9  1  0  0  0  0
  9 10  1  0  0  0  0
  9 11  1  0  0  0  0
  9 12  1  0  0  0  0
 12 13  1  0  0  0  0
 12 14  1  0  0  0  0
 12 15  1  0  0  0  0
 15 16  1  0  0  0  0
 15 17  1  0  0  0  0
 15 18  1  0  0  0  0
 18 19  1  0  0  0  0
 18 20  2  0  0  0  0
M  END
> <VM2 Rank>
16

> <Conf_Id>
665

> <Probability>
1.45

> <Sum Probability>
82.46

> <Delta G>
1.337

> <G>
-20.553

> <E>
-35.757

> <-TS>
15.205

> <U+W>
-51.854

> <U>
8.963

> <W>
-60.816

> <W(PB)>
-63.056

> <W(SA)>
2.240

> <Valence>
9.327

> <Coulomb>
-0.781

> <VdW>
0.417

> <VdW6>
-6.635

> <VdW12>
7.052

> <Bond>
0.105

> <Angle>
2.399

> <Pdih>
6.822

> <Idih>
0.000

> <Tether>
0.000

$$$$
VeraChem MOL file


 20 19  0  0  0  0  0  0  0  0999 V2000     
   19.1055   19.7953   18.8824 C   0  0  0  0  0  0  0  0  0  0  0  0
   19.3074   20.8260   19.1693 H   0  0  0  0  0  0  0  0  0  0  0  0
   18.4273   19.6316   18.0466 H   0  0  0  0  0  0  0  0  0  0  0  0
   19.6636   18.7688   19.5294 C   0  0  0  0  0  0  0  0  0  0  0  0
   19.4476   17.7444   19.2268 H   0  0  0  0  0  0  0  0  0  0  0  0
   20.6140   18.9182   20.6965 C   0  0  0  0  0  0  0  0  0  0  0  0
   20.9717   19.9546   20.7654 H   0  0  0  0  0  0  0  0  0  0  0  0
   21.4987   18.2887   20.5325 H   0  0  0  0  0  0  0  0  0  0  0  0
   19.9340   18.5206   22.0234 C   0  0  0  0  0  0  0  0  0  0  0  0
   19.0464   19.1498   22.1778 H   0  0  0  0  0  0  0  0  0  0  0  0
   19.5797   17.4828   21.9567 H   0  0  0  0  0  0  0  0  0  0  0  0
   20.8934   18.6646   23.2263 C   0  0  0  0  0  0  0  0  0  0  0  0
   21.2389   19.7049   23.3045 H   0  0  0  0  0  0  0  0  0  0  0  0
   21.7856   18.0474   23.0541 H   0  0  0  0  0  0  0  0  0  0  0  0
   20.2383   18.2391   24.5660 C   0  0  0  0  0  0  0  0  0  0  0  0
   19.8637   17.2107   24.4949 H   0  0  0  0  0  0  0  0  0  0  0  0
   20.9923   18.2480   25.3618 H   0  0  0  0  0  0  0  0  0  0  0  0
   19.0938   19.1447   25.0118 C   0  0  0  0  0  0  0  0  0  0  0  0
   19.3727   20.2311   25.4798 O   0  5  0  0  0  0  0  0  0  0  0  0
   17.9557   18.7356   24.8924 O   0  0  0  0  0  0  0  0  0  0  0  0
  1  2  1  0  0  0  0
  1  3  1  0  0  0  0
  1  4  2  0  0  0  0
  4  5  1  0  0  0  0
  4  6  1  0  0  0  0
  6  7  1  0  0  0  0
  6  8  1  0  0  0  0
  6  9  1  0  0  0  0
  9 10  1  0  0  0  0
  9 11  1  0  0  0  0
  9 12  1  0  0  0  0
 12 13  1  0  0  0  0
 12 14  1  0  0  0  0
 12 15  1  0  0  0  0
 15 16  1  0  0  0  0
 15 17  1  0  0  0  0
 15 18  1  0  0  0  0
 18 19  1  0  0  0  0
 18 20  2  0  0  0  0
M  END
> <VM2 Rank>
17

> <Conf_Id>
73

> <Probability>
1.32

> <Sum Probability>
83.78

> <Delta G>
1.394

> <G>
-20.496

> <E>
-35.703

> <-TS>
15.207

> <U+W>
-51.799

> <U>
9.411

> <W>
-61.210

> <W(PB)>
-63.461

> <W(SA)>
2.251

> <Valence>
9.330

> <Coulomb>
-0.325

> <VdW>
0.406

> <VdW6>
-6.640

> <VdW12>
7.046

> <Bond>
0.105

> <Angle>
2.401

> <Pdih>
6.823

> <Idih>
0.000

> <Tether>
0.000

$$$$
VeraChem MOL file


 20 19  0  0  0  0  0  0  0  0999 V2000     
   19.9492   18.1919   18.6169 C   0  0  0  0  0  0  0  0  0  0  0  0
   19.0815   18.7666   18.2967 H   0  0  0  0  0  0  0  0  0  0  0  0
   20.2713   17.3724   17.9767 H   0  0  0  0  0  0  0  0  0  0  0  0
   20.5944   18.4762   19.7511 C   0  0  0  0  0  0  0  0  0  0  0  0
   21.4603   17.8880   20.0541 H   0  0  0  0  0  0  0  0  0  0  0  0
   20.2064   19.5976   20.6891 C   0  0  0  0  0  0  0  0  0  0  0  0
   19.5060   20.2831   20.1929 H   0  0  0  0  0  0  0  0  0  0  0  0
   21.0971   20.1866   20.9457 H   0  0  0  0  0  0  0  0  0  0  0  0
   19.5614   19.0474   21.9784 C   0  0  0  0  0  0  0  0  0  0  0  0
   18.6736   18.4550   21.7173 H   0  0  0  0  0  0  0  0  0  0  0  0
   20.2647   18.3638   22.4738 H   0  0  0  0  0  0  0  0  0  0  0  0
   19.1615   20.1809   22.9498 C   0  0  0  0  0  0  0  0  0  0  0  0
   18.4713   20.8673   22.4409 H   0  0  0  0  0  0  0  0  0  0  0  0
   20.0493   20.7689   23.2215 H   0  0  0  0  0  0  0  0  0  0  0  0
   18.4832   19.6495   24.2391 C   0  0  0  0  0  0  0  0  0  0  0  0
   18.1152   20.4936   24.8342 H   0  0  0  0  0  0  0  0  0  0  0  0
   17.6102   19.0369   23.9832 H   0  0  0  0  0  0  0  0  0  0  0  0
   19.4084   18.8296   25.1338 C   0  0  0  0  0  0  0  0  0  0  0  0
   20.2339   19.4228   25.7999 O   0  5  0  0  0  0  0  0  0  0  0  0
   19.2726   17.6220   25.1499 O   0  0  0  0  0  0  0  0  0  0  0  0
  1  2  1  0  0  0  0
  1  3  1  0  0  0  0
  1  4  2  0  0  0  0
  4  5  1  0  0  0  0
  4  6  1  0  0  0  0
  6  7  1  0  0  0  0
  6  8  1  0  0  0  0
  6  9  1  0  0  0  0
  9 10  1  0  0  0  0
  9 11  1  0  0  0  0
  9 12  1  0  0  0  0
 12 13  1  0  0  0  0
 12 14  1  0  0  0  0
 12 15  1  0  0  0  0
 15 16  1  0  0  0  0
 15 17  1  0  0  0  0
 15 18  1  0  0  0  0
 18 19  1  0  0  0  0
 18 20  2  0  0  0  0
M  END
> <VM2 Rank>
18

> <Conf_Id>
40

> <Probability>
1.31

> <Sum Probability>
85.09

> <Delta G>
1.399

> <G>
-20.491

> <E>
-35.696

> <-TS>
15.205

> <U+W>
-51.793

> <U>
8.964

> <W>
-60.756

> <W(PB)>
-63.007

> <W(SA)>
2.251

> <Valence>
9.327

> <Coulomb>
-0.779

> <VdW>
0.417

> <VdW6>
-6.635

> <VdW12>
7.052

> <Bond>
0.105

> <Angle>
2.400

> <Pdih>
6.822

> <Idih>
0.000

> <Tether>
0.000

$$$$
VeraChem MOL file


 20 19  0  0  0  0  0  0  0  0999 V2000     
   20.6147   17.7280   19.1008 C   0  0  0  0  0  0  0  0  0  0  0  0
   20.3334   17.0205   18.3226 H   0  0  0  0  0  0  0  0  0  0  0  0
   21.6233   17.6540   19.5044 H   0  0  0  0  0  0  0  0  0  0  0  0
   19.7523   18.6472   19.5423 C   0  0  0  0  0  0  0  0  0  0  0  0
   18.7469   18.7037   19.1257 H   0  0  0  0  0  0  0  0  0  0  0  0
   20.0713   19.6615   20.6180 C   0  0  0  0  0  0  0  0  0  0  0  0
   19.7664   20.6616   20.2817 H   0  0  0  0  0  0  0  0  0  0  0  0
   21.1552   19.7033   20.7920 H   0  0  0  0  0  0  0  0  0  0  0  0
   19.3522   19.3177   21.9392 C   0  0  0  0  0  0  0  0  0  0  0  0
   18.2678   19.2798   21.7669 H   0  0  0  0  0  0  0  0  0  0  0  0
   19.6569   18.3137   22.2663 H   0  0  0  0  0  0  0  0  0  0  0  0
   19.6651   20.3471   23.0485 C   0  0  0  0  0  0  0  0  0  0  0  0
   19.3750   21.3493   22.7050 H   0  0  0  0  0  0  0  0  0  0  0  0
   20.7480   20.3774   23.2335 H   0  0  0  0  0  0  0  0  0  0  0  0
   18.9260   20.0367   24.3760 C   0  0  0  0  0  0  0  0  0  0  0  0
   19.0885   20.8561   25.0861 H   0  0  0  0  0  0  0  0  0  0  0  0
   17.8447   19.9765   24.2026 H   0  0  0  0  0  0  0  0  0  0  0  0
   19.3832   18.7482   25.0538 C   0  0  0  0  0  0  0  0  0  0  0  0
   20.4502   18.7551   25.6358 O   0  5  0  0  0  0  0  0  0  0  0  0
   18.6559   17.7764   24.9936 O   0  0  0  0  0  0  0  0  0  0  0  0
  1  2  1  0  0  0  0
  1  3  1  0  0  0  0
  1  4  2  0  0  0  0
  4  5  1  0  0  0  0
  4  6  1  0  0  0  0
  6  7  1  0  0  0  0
  6  8  1  0  0  0  0
  6  9  1  0  0  0  0
  9 10  1  0  0  0  0
  9 11  1  0  0  0  0
  9 12  1  0  0  0  0
 12 13  1  0  0  0  0
 12 14  1  0  0  0  0
 12 15  1  0  0  0  0
 15 16  1  0  0  0  0
 15 17  1  0  0  0  0
 15 18  1  0  0  0  0
 18 19  1  0  0  0  0
 18 20  2  0  0  0  0
M  END
> <VM2 Rank>
19

> <Conf_Id>
174

> <Probability>
1.29

> <Sum Probability>
86.37

> <Delta G>
1.408

> <G>
-20.481

> <E>
-35.688

> <-TS>
15.207

> <U+W>
-51.785

> <U>
9.412

> <W>
-61.197

> <W(PB)>
-63.440

> <W(SA)>
2.243

> <Valence>
9.329

> <Coulomb>
-0.324

> <VdW>
0.406

> <VdW6>
-6.640

> <VdW12>
7.047

> <Bond>
0.105

> <Angle>
2.401

> <Pdih>
6.822

> <Idih>
0.000

> <Tether>
0.000

$$$$
VeraChem MOL file


 20 19  0  0  0  0  0  0  0  0999 V2000     
   21.5010   19.1885   19.6828 C   0  0  0  0  0  0  0  0  0  0  0  0
   22.2195   19.3603   18.8832 H   0  0  0  0  0  0  0  0  0  0  0  0
   21.9036   18.8941   20.6497 H   0  0  0  0  0  0  0  0  0  0  0  0
   20.1892   19.3381   19.4664 C   0  0  0  0  0  0  0  0  0  0  0  0
   19.8460   19.6351   18.4757 H   0  0  0  0  0  0  0  0  0  0  0  0
   19.0729   19.1349   20.4772 C   0  0  0  0  0  0  0  0  0  0  0  0
   18.3750   18.3830   20.0854 H   0  0  0  0  0  0  0  0  0  0  0  0
   18.4937   20.0647   20.5551 H   0  0  0  0  0  0  0  0  0  0  0  0
   19.5384   18.7081   21.8891 C   0  0  0  0  0  0  0  0  0  0  0  0
   20.1020   17.7675   21.8217 H   0  0  0  0  0  0  0  0  0  0  0  0
   20.2225   19.4670   22.2931 H   0  0  0  0  0  0  0  0  0  0  0  0
   18.3451   18.5223   22.8536 C   0  0  0  0  0  0  0  0  0  0  0  0
   17.6536   17.7781   22.4359 H   0  0  0  0  0  0  0  0  0  0  0  0
   17.7840   19.4635   22.9374 H   0  0  0  0  0  0  0  0  0  0  0  0
   18.7872   18.0607   24.2666 C   0  0  0  0  0  0  0  0  0  0  0  0
   17.9017   17.8336   24.8718 H   0  0  0  0  0  0  0  0  0  0  0  0
   19.3705   17.1345   24.1973 H   0  0  0  0  0  0  0  0  0  0  0  0
   19.6078   19.0970   25.0292 C   0  0  0  0  0  0  0  0  0  0  0  0
   20.8061   18.9217   25.1303 O   0  5  0  0  0  0  0  0  0  0  0  0
   19.0233   20.0466   25.5128 O   0  0  0  0  0  0  0  0  0  0  0  0
  1  2  1  0  0  0  0
  1  3  1  0  0  0  0
  1  4  2  0  0  0  0
  4  5  1  0  0  0  0
  4  6  1  0  0  0  0
  6  7  1  0  0  0  0
  6  8  1  0  0  0  0
  6  9  1  0  0  0  0
  9 10  1  0  0  0  0
  9 11  1  0  0  0  0
  9 12  1  0  0  0  0
 12 13  1  0  0  0  0
 12 14  1  0  0  0  0
 12 15  1  0  0  0  0
 15 16  1  0  0  0  0
 15 17  1  0  0  0  0
 15 18  1  0  0  0  0
 18 19  1  0  0  0  0
 18 20  2  0  0  0  0
M  END
> <VM2 Rank>
20

> <Conf_Id>
568

> <Probability>
1.28

> <Sum Probability>
87.65

> <Delta G>
1.414

> <G>
-20.475

> <E>
-36.047

> <-TS>
15.572

> <U+W>
-52.143

> <U>
9.323

> <W>
-61.466

> <W(PB)>
-63.680

> <W(SA)>
2.214

> <Valence>
8.234

> <Coulomb>
-0.022

> <VdW>
1.111

> <VdW6>
-7.367

> <VdW12>
8.478

> <Bond>
0.158

> <Angle>
3.010

> <Pdih>
5.066

> <Idih>
0.000

> <Tether>
0.000

$$$$
VeraChem MOL file


 20 19  0  0  0  0  0  0  0  0999 V2000     
   20.7858   17.7538   19.5834 C   0  0  0  0  0  0  0  0  0  0  0  0
   21.1266   17.1681   18.7314 H   0  0  0  0  0  0  0  0  0  0  0  0
   21.2097   17.5022   20.5533 H   0  0  0  0  0  0  0  0  0  0  0  0
   19.8871   18.7321   19.4245 C   0  0  0  0  0  0  0  0  0  0  0  0
   19.4980   18.9375   18.4275 H   0  0  0  0  0  0  0  0  0  0  0  0
   19.3195   19.6295   20.5115 C   0  0  0  0  0  0  0  0  0  0  0  0
   18.2260   19.5278   20.5179 H   0  0  0  0  0  0  0  0  0  0  0  0
   19.5181   20.6760   20.2442 H   0  0  0  0  0  0  0  0  0  0  0  0
   19.8621   19.3575   21.9341 C   0  0  0  0  0  0  0  0  0  0  0  0
   19.6489   18.3164   22.2135 H   0  0  0  0  0  0  0  0  0  0  0  0
   20.9542   19.4769   21.9401 H   0  0  0  0  0  0  0  0  0  0  0  0
   19.2367   20.3108   22.9776 C   0  0  0  0  0  0  0  0  0  0  0  0
   18.1448   20.1872   22.9876 H   0  0  0  0  0  0  0  0  0  0  0  0
   19.4346   21.3505   22.6834 H   0  0  0  0  0  0  0  0  0  0  0  0
   19.7929   20.0780   24.4064 C   0  0  0  0  0  0  0  0  0  0  0  0
   20.8855   20.1733   24.4078 H   0  0  0  0  0  0  0  0  0  0  0  0
   19.4059   20.8508   25.0808 H   0  0  0  0  0  0  0  0  0  0  0  0
   19.4216   18.7235   25.0034 C   0  0  0  0  0  0  0  0  0  0  0  0
   20.2785   17.8634   25.0570 O   0  5  0  0  0  0  0  0  0  0  0  0
   18.2868   18.5692   25.4103 O   0  0  0  0  0  0  0  0  0  0  0  0
  1  2  1  0  0  0  0
  1  3  1  0  0  0  0
  1  4  2  0  0  0  0
  4  5  1  0  0  0  0
  4  6  1  0  0  0  0
  6  7  1  0  0  0  0
  6  8  1  0  0  0  0
  6  9  1  0  0  0  0
  9 10  1  0  0  0  0
  9 11  1  0  0  0  0
  9 12  1  0  0  0  0
 12 13  1  0  0  0  0
 12 14  1  0  0  0  0
 12 15  1  0  0  0  0
 15 16  1  0  0  0  0
 15 17  1  0  0  0  0
 15 18  1  0  0  0  0
 18 19  1  0  0  0  0
 18 20  2  0  0  0  0
M  END
> <VM2 Rank>
21

> <Conf_Id>
507

> <Probability>
1.16

> <Sum Probability>
88.81

> <Delta G>
1.472

> <G>
-20.418

> <E>
-35.990

> <-TS>
15.572

> <U+W>
-52.086

> <U>
9.323

> <W>
-61.410

> <W(PB)>
-63.641

> <W(SA)>
2.232

> <Valence>
8.234

> <Coulomb>
-0.022

> <VdW>
1.111

> <VdW6>
-7.367

> <VdW12>
8.478

> <Bond>
0.158

> <Angle>
3.010

> <Pdih>
5.066

> <Idih>
0.000

> <Tether>
0.000

$$$$
VeraChem MOL file


 20 19  0  0  0  0  0  0  0  0999 V2000     
   21.1011   18.4809   19.1430 C   0  0  0  0  0  0  0  0  0  0  0  0
   22.0713   18.0052   19.0100 H   0  0  0  0  0  0  0  0  0  0  0  0
   20.4255   18.4888   18.2893 H   0  0  0  0  0  0  0  0  0  0  0  0
   20.7560   19.0298   20.3106 C   0  0  0  0  0  0  0  0  0  0  0  0
   21.4482   19.0132   21.1521 H   0  0  0  0  0  0  0  0  0  0  0  0
   19.4295   19.7121   20.5680 C   0  0  0  0  0  0  0  0  0  0  0  0
   18.9616   19.9832   19.6119 H   0  0  0  0  0  0  0  0  0  0  0  0
   19.5917   20.6576   21.1007 H   0  0  0  0  0  0  0  0  0  0  0  0
   18.4473   18.8143   21.3583 C   0  0  0  0  0  0  0  0  0  0  0  0
   17.4886   19.3399   21.4644 H   0  0  0  0  0  0  0  0  0  0  0  0
   18.2381   17.9132   20.7656 H   0  0  0  0  0  0  0  0  0  0  0  0
   18.9479   18.3846   22.7601 C   0  0  0  0  0  0  0  0  0  0  0  0
   19.8706   17.7961   22.6658 H   0  0  0  0  0  0  0  0  0  0  0  0
   18.2020   17.7136   23.2081 H   0  0  0  0  0  0  0  0  0  0  0  0
   19.1896   19.5748   23.7243 C   0  0  0  0  0  0  0  0  0  0  0  0
   19.9950   20.2166   23.3499 H   0  0  0  0  0  0  0  0  0  0  0  0
   18.2867   20.1927   23.7974 H   0  0  0  0  0  0  0  0  0  0  0  0
   19.5712   19.1258   25.1302 C   0  0  0  0  0  0  0  0  0  0  0  0
   20.7488   18.9590   25.3797 O   0  5  0  0  0  0  0  0  0  0  0  0
   18.6794   18.9366   25.9337 O   0  0  0  0  0  0  0  0  0  0  0  0
  1  2  1  0  0  0  0
  1  3  1  0  0  0  0
  1  4  2  0  0  0  0
  4  5  1  0  0  0  0
  4  6  1  0  0  0  0
  6  7  1  0  0  0  0
  6  8  1  0  0  0  0
  6  9  1  0  0  0  0
  9 10  1  0  0  0  0
  9 11  1  0  0  0  0
  9 12  1  0  0  0  0
 12 13  1  0  0  0  0
 12 14  1  0  0  0  0
 12 15  1  0  0  0  0
 15 16  1  0  0  0  0
 15 17  1  0  0  0  0
 15 18  1  0  0  0  0
 18 19  1  0  0  0  0
 18 20  2  0  0  0  0
M  END
> <VM2 Rank>
22

> <Conf_Id>
304

> <Probability>
1.03

> <Sum Probability>
89.83

> <Delta G>
1.543

> <G>
-20.346

> <E>
-35.613

> <-TS>
15.267

> <U+W>
-51.709

> <U>
8.691

> <W>
-60.400

> <W(PB)>
-62.593

> <W(SA)>
2.193

> <Valence>
9.775

> <Coulomb>
-1.698

> <VdW>
0.614

> <VdW6>
-7.233

> <VdW12>
7.847

> <Bond>
0.151

> <Angle>
2.692

> <Pdih>
6.931

> <Idih>
0.001

> <Tether>
0.000

$$$$
VeraChem MOL file


 20 19  0  0  0  0  0  0  0  0999 V2000     
   21.1451   19.2646   19.1328 C   0  0  0  0  0  0  0  0  0  0  0  0
   22.1621   19.6255   18.9889 H   0  0  0  0  0  0  0  0  0  0  0  0
   20.4715   19.3101   18.2786 H   0  0  0  0  0  0  0  0  0  0  0  0
   20.7425   18.7884   20.3138 C   0  0  0  0  0  0  0  0  0  0  0  0
   21.4334   18.7495   21.1556 H   0  0  0  0  0  0  0  0  0  0  0  0
   19.3484   18.2656   20.5869 C   0  0  0  0  0  0  0  0  0  0  0  0
   19.4046   17.3222   21.1445 H   0  0  0  0  0  0  0  0  0  0  0  0
   18.8517   18.0236   19.6376 H   0  0  0  0  0  0  0  0  0  0  0  0
   18.4739   19.2880   21.3520 C   0  0  0  0  0  0  0  0  0  0  0  0
   18.3658   20.1910   20.7357 H   0  0  0  0  0  0  0  0  0  0  0  0
   17.4626   18.8757   21.4705 H   0  0  0  0  0  0  0  0  0  0  0  0
   19.0214   19.6956   22.7429 C   0  0  0  0  0  0  0  0  0  0  0  0
   18.3558   20.4572   23.1720 H   0  0  0  0  0  0  0  0  0  0  0  0
   20.0039   20.1747   22.6345 H   0  0  0  0  0  0  0  0  0  0  0  0
   19.1301   18.5115   23.7382 C   0  0  0  0  0  0  0  0  0  0  0  0
   18.1640   18.0005   23.8261 H   0  0  0  0  0  0  0  0  0  0  0  0
   19.8583   17.7742   23.3820 H   0  0  0  0  0  0  0  0  0  0  0  0
   19.5615   18.9519   25.1325 C   0  0  0  0  0  0  0  0  0  0  0  0
   20.7507   18.9928   25.3792 O   0  5  0  0  0  0  0  0  0  0  0  0
   18.6975   19.2597   25.9297 O   0  0  0  0  0  0  0  0  0  0  0  0
  1  2  1  0  0  0  0
  1  3  1  0  0  0  0
  1  4  2  0  0  0  0
  4  5  1  0  0  0  0
  4  6  1  0  0  0  0
  6  7  1  0  0  0  0
  6  8  1  0  0  0  0
  6  9  1  0  0  0  0
  9 10  1  0  0  0  0
  9 11  1  0  0  0  0
  9 12  1  0  0  0  0
 12 13  1  0  0  0  0
 12 14  1  0  0  0  0
 12 15  1  0  0  0  0
 15 16  1  0  0  0  0
 15 17  1  0  0  0  0
 15 18  1  0  0  0  0
 18 19  1  0  0  0  0
 18 20  2  0  0  0  0
M  END
> <VM2 Rank>
23

> <Conf_Id>
329

> <Probability>
0.98

> <Sum Probability>
90.82

> <Delta G>
1.571

> <G>
-20.319

> <E>
-35.585

> <-TS>
15.267

> <U+W>
-51.682

> <U>
8.691

> <W>
-60.373

> <W(PB)>
-62.541

> <W(SA)>
2.169

> <Valence>
9.775

> <Coulomb>
-1.698

> <VdW>
0.614

> <VdW6>
-7.233

> <VdW12>
7.847

> <Bond>
0.151

> <Angle>
2.692

> <Pdih>
6.931

> <Idih>
0.001

> <Tether>
0.000

$$$$
VeraChem MOL file


 20 19  0  0  0  0  0  0  0  0999 V2000     
   20.2575   18.2020   18.3039 C   0  0  0  0  0  0  0  0  0  0  0  0
   19.6540   17.3088   18.4577 H   0  0  0  0  0  0  0  0  0  0  0  0
   20.9056   18.2242   17.4294 H   0  0  0  0  0  0  0  0  0  0  0  0
   20.2096   19.2312   19.1537 C   0  0  0  0  0  0  0  0  0  0  0  0
   20.8225   20.1158   18.9818 H   0  0  0  0  0  0  0  0  0  0  0  0
   19.3347   19.2724   20.3867 C   0  0  0  0  0  0  0  0  0  0  0  0
   18.5762   18.4790   20.3415 H   0  0  0  0  0  0  0  0  0  0  0  0
   18.7920   20.2266   20.4205 H   0  0  0  0  0  0  0  0  0  0  0  0
   20.1739   19.1084   21.6711 C   0  0  0  0  0  0  0  0  0  0  0  0
   20.7178   18.1545   21.6303 H   0  0  0  0  0  0  0  0  0  0  0  0
   20.9294   19.9047   21.7181 H   0  0  0  0  0  0  0  0  0  0  0  0
   19.2958   19.1511   22.9408 C   0  0  0  0  0  0  0  0  0  0  0  0
   18.5402   18.3545   22.8947 H   0  0  0  0  0  0  0  0  0  0  0  0
   18.7506   20.1043   22.9815 H   0  0  0  0  0  0  0  0  0  0  0  0
   20.1402   18.9854   24.2323 C   0  0  0  0  0  0  0  0  0  0  0  0
   20.6821   18.0329   24.2012 H   0  0  0  0  0  0  0  0  0  0  0  0
   20.8924   19.7810   24.2881 H   0  0  0  0  0  0  0  0  0  0  0  0
   19.3463   19.0159   25.5392 C   0  0  0  0  0  0  0  0  0  0  0  0
   19.9736   18.8905   26.5721 O   0  5  0  0  0  0  0  0  0  0  0  0
   18.1394   19.1612   25.5083 O   0  0  0  0  0  0  0  0  0  0  0  0
  1  2  1  0  0  0  0
  1  3  1  0  0  0  0
  1  4  2  0  0  0  0
  4  5  1  0  0  0  0
  4  6  1  0  0  0  0
  6  7  1  0  0  0  0
  6  8  1  0  0  0  0
  6  9  1  0  0  0  0
  9 10  1  0  0  0  0
  9 11  1  0  0  0  0
  9 12  1  0  0  0  0
 12 13  1  0  0  0  0
 12 14  1  0  0  0  0
 12 15  1  0  0  0  0
 15 16  1  0  0  0  0
 15 17  1  0  0  0  0
 15 18  1  0  0  0  0
 18 19  1  0  0  0  0
 18 20  2  0  0  0  0
M  END
> <VM2 Rank>
24

> <Conf_Id>
33

> <Probability>
0.85

> <Sum Probability>
91.66

> <Delta G>
1.658

> <G>
-20.231

> <E>
-35.649

> <-TS>
15.418

> <U+W>
-51.745

> <U>
7.593

> <W>
-59.338

> <W(PB)>
-61.574

> <W(SA)>
2.236

> <Valence>
9.570

> <Coulomb>
-3.091

> <VdW>
1.114

> <VdW6>
-6.064

> <VdW12>
7.178

> <Bond>
0.117

> <Angle>
2.692

> <Pdih>
6.761

> <Idih>
0.000

> <Tether>
0.000

$$$$
VeraChem MOL file


 20 19  0  0  0  0  0  0  0  0999 V2000     
   19.0969   17.5639   20.1209 C   0  0  0  0  0  0  0  0  0  0  0  0
   18.1656   17.7167   20.6637 H   0  0  0  0  0  0  0  0  0  0  0  0
   19.2864   16.5694   19.7210 H   0  0  0  0  0  0  0  0  0  0  0  0
   19.9780   18.5540   19.9552 C   0  0  0  0  0  0  0  0  0  0  0  0
   20.9060   18.3791   19.4117 H   0  0  0  0  0  0  0  0  0  0  0  0
   19.7850   19.9600   20.4822 C   0  0  0  0  0  0  0  0  0  0  0  0
   18.7499   20.1110   20.8142 H   0  0  0  0  0  0  0  0  0  0  0  0
   19.9463   20.6731   19.6629 H   0  0  0  0  0  0  0  0  0  0  0  0
   20.7659   20.2971   21.6308 C   0  0  0  0  0  0  0  0  0  0  0  0
   21.7947   20.2091   21.2559 H   0  0  0  0  0  0  0  0  0  0  0  0
   20.6343   21.3492   21.9181 H   0  0  0  0  0  0  0  0  0  0  0  0
   20.6136   19.4048   22.8880 C   0  0  0  0  0  0  0  0  0  0  0  0
   21.4028   19.6706   23.6048 H   0  0  0  0  0  0  0  0  0  0  0  0
   20.7801   18.3516   22.6235 H   0  0  0  0  0  0  0  0  0  0  0  0
   19.2367   19.5502   23.5865 C   0  0  0  0  0  0  0  0  0  0  0  0
   19.0364   20.6039   23.8138 H   0  0  0  0  0  0  0  0  0  0  0  0
   18.4333   19.1995   22.9289 H   0  0  0  0  0  0  0  0  0  0  0  0
   19.1492   18.7618   24.8884 C   0  0  0  0  0  0  0  0  0  0  0  0
   19.5323   19.2980   25.9096 O   0  5  0  0  0  0  0  0  0  0  0  0
   18.7134   17.6282   24.8465 O   0  0  0  0  0  0  0  0  0  0  0  0
  1  2  1  0  0  0  0
  1  3  1  0  0  0  0
  1  4  2  0  0  0  0
  4  5  1  0  0  0  0
  4  6  1  0  0  0  0
  6  7  1  0  0  0  0
  6  8  1  0  0  0  0
  6  9  1  0  0  0  0
  9 10  1  0  0  0  0
  9 11  1  0  0  0  0
  9 12  1  0  0  0  0
 12 13  1  0  0  0  0
 12 14  1  0  0  0  0
 12 15  1  0  0  0  0
 15 16  1  0  0  0  0
 15 17  1  0  0  0  0
 15 18  1  0  0  0  0
 18 19  1  0  0  0  0
 18 20  2  0  0  0  0
M  END
> <VM2 Rank>
25

> <Conf_Id>
573

> <Probability>
0.69

> <Sum Probability>
92.35

> <Delta G>
1.781

> <G>
-20.108

> <E>
-35.462

> <-TS>
15.354

> <U+W>
-51.559

> <U>
9.796

> <W>
-61.354

> <W(PB)>
-63.514

> <W(SA)>
2.160

> <Valence>
9.746

> <Coulomb>
-0.310

> <VdW>
0.360

> <VdW6>
-7.584

> <VdW12>
7.944

> <Bond>
0.150

> <Angle>
2.663

> <Pdih>
6.933

> <Idih>
0.000

> <Tether>
0.000

$$$$
VeraChem MOL file


 20 19  0  0  0  0  0  0  0  0999 V2000     
   19.0091   17.6199   20.1110 C   0  0  0  0  0  0  0  0  0  0  0  0
   19.4367   16.9052   20.8121 H   0  0  0  0  0  0  0  0  0  0  0  0
   18.1039   17.3243   19.5836 H   0  0  0  0  0  0  0  0  0  0  0  0
   19.5671   18.8162   19.9074 C   0  0  0  0  0  0  0  0  0  0  0  0
   19.1211   19.5186   19.2039 H   0  0  0  0  0  0  0  0  0  0  0  0
   20.8227   19.2974   20.6030 C   0  0  0  0  0  0  0  0  0  0  0  0
   21.5320   19.6607   19.8476 H   0  0  0  0  0  0  0  0  0  0  0  0
   21.3256   18.4665   21.1142 H   0  0  0  0  0  0  0  0  0  0  0  0
   20.5379   20.4427   21.6042 C   0  0  0  0  0  0  0  0  0  0  0  0
   21.4897   20.8031   22.0176 H   0  0  0  0  0  0  0  0  0  0  0  0
   20.1013   21.2904   21.0586 H   0  0  0  0  0  0  0  0  0  0  0  0
   19.5922   20.0571   22.7690 C   0  0  0  0  0  0  0  0  0  0  0  0
   18.6214   19.7301   22.3720 H   0  0  0  0  0  0  0  0  0  0  0  0
   19.3922   20.9545   23.3707 H   0  0  0  0  0  0  0  0  0  0  0  0
   20.1689   18.9550   23.6950 C   0  0  0  0  0  0  0  0  0  0  0  0
   20.2887   18.0148   23.1449 H   0  0  0  0  0  0  0  0  0  0  0  0
   21.1600   19.2479   24.0610 H   0  0  0  0  0  0  0  0  0  0  0  0
   19.2828   18.6765   24.9038 C   0  0  0  0  0  0  0  0  0  0  0  0
   19.4413   19.3560   25.8989 O   0  5  0  0  0  0  0  0  0  0  0  0
   18.4489   17.7970   24.8156 O   0  0  0  0  0  0  0  0  0  0  0  0
  1  2  1  0  0  0  0
  1  3  1  0  0  0  0
  1  4  2  0  0  0  0
  4  5  1  0  0  0  0
  4  6  1  0  0  0  0
  6  7  1  0  0  0  0
  6  8  1  0  0  0  0
  6  9  1  0  0  0  0
  9 10  1  0  0  0  0
  9 11  1  0  0  0  0
  9 12  1  0  0  0  0
 12 13  1  0  0  0  0
 12 14  1  0  0  0  0
 12 15  1  0  0  0  0
 15 16  1  0  0  0  0
 15 17  1  0  0  0  0
 15 18  1  0  0  0  0
 18 19  1  0  0  0  0
 18 20  2  0  0  0  0
M  END
> <VM2 Rank>
26

> <Conf_Id>
161

> <Probability>
0.65

> <Sum Probability>
93.00

> <Delta G>
1.814

> <G>
-20.076

> <E>
-35.430

> <-TS>
15.354

> <U+W>
-51.527

> <U>
9.796

> <W>
-61.322

> <W(PB)>
-63.481

> <W(SA)>
2.159

> <Valence>
9.746

> <Coulomb>
-0.310

> <VdW>
0.360

> <VdW6>
-7.585

> <VdW12>
7.944

> <Bond>
0.150

> <Angle>
2.663

> <Pdih>
6.933

> <Idih>
0.000

> <Tether>
0.000

$$$$
VeraChem MOL file


 20 19  0  0  0  0  0  0  0  0999 V2000     
   20.2720   17.5711   19.4447 C   0  0  0  0  0  0  0  0  0  0  0  0
   19.7353   16.7195   19.0300 H   0  0  0  0  0  0  0  0  0  0  0  0
   21.3600   17.5356   19.4255 H   0  0  0  0  0  0  0  0  0  0  0  0
   19.6173   18.6153   19.9593 C   0  0  0  0  0  0  0  0  0  0  0  0
   18.5278   18.6316   19.9662 H   0  0  0  0  0  0  0  0  0  0  0  0
   20.2951   19.8347   20.5470 C   0  0  0  0  0  0  0  0  0  0  0  0
   19.7991   20.7470   20.1898 H   0  0  0  0  0  0  0  0  0  0  0  0
   21.3328   19.8896   20.1909 H   0  0  0  0  0  0  0  0  0  0  0  0
   20.3025   19.8158   22.0923 C   0  0  0  0  0  0  0  0  0  0  0  0
   20.7900   18.8952   22.4420 H   0  0  0  0  0  0  0  0  0  0  0  0
   20.9169   20.6516   22.4538 H   0  0  0  0  0  0  0  0  0  0  0  0
   18.8849   19.9271   22.7020 C   0  0  0  0  0  0  0  0  0  0  0  0
   18.2744   19.0670   22.3947 H   0  0  0  0  0  0  0  0  0  0  0  0
   18.3899   20.8244   22.3068 H   0  0  0  0  0  0  0  0  0  0  0  0
   18.9079   20.0059   24.2506 C   0  0  0  0  0  0  0  0  0  0  0  0
   19.5327   20.8454   24.5786 H   0  0  0  0  0  0  0  0  0  0  0  0
   17.8950   20.1998   24.6226 H   0  0  0  0  0  0  0  0  0  0  0  0
   19.4078   18.7332   24.9284 C   0  0  0  0  0  0  0  0  0  0  0  0
   20.5378   18.7249   25.3759 O   0  5  0  0  0  0  0  0  0  0  0  0
   18.6456   17.7899   25.0078 O   0  0  0  0  0  0  0  0  0  0  0  0
  1  2  1  0  0  0  0
  1  3  1  0  0  0  0
  1  4  2  0  0  0  0
  4  5  1  0  0  0  0
  4  6  1  0  0  0  0
  6  7  1  0  0  0  0
  6  8  1  0  0  0  0
  6  9  1  0  0  0  0
  9 10  1  0  0  0  0
  9 11  1  0  0  0  0
  9 12  1  0  0  0  0
 12 13  1  0  0  0  0
 12 14  1  0  0  0  0
 12 15  1  0  0  0  0
 15 16  1  0  0  0  0
 15 17  1  0  0  0  0
 15 18  1  0  0  0  0
 18 19  1  0  0  0  0
 18 20  2  0  0  0  0
M  END
> <VM2 Rank>
27

> <Conf_Id>
164

> <Probability>
0.55

> <Sum Probability>
93.55

> <Delta G>
1.918

> <G>
-19.972

> <E>
-35.340

> <-TS>
15.368

> <U+W>
-51.436

> <U>
10.461

> <W>
-61.897

> <W(PB)>
-64.077

> <W(SA)>
2.180

> <Valence>
9.555

> <Coulomb>
0.483

> <VdW>
0.423

> <VdW6>
-7.224

> <VdW12>
7.647

> <Bond>
0.126

> <Angle>
2.492

> <Pdih>
6.936

> <Idih>
0.001

> <Tether>
0.000

$$$$
VeraChem MOL file


 20 19  0  0  0  0  0  0  0  0999 V2000     
   20.7320   18.6107   18.7837 C   0  0  0  0  0  0  0  0  0  0  0  0
   21.6147   19.2482   18.7792 H   0  0  0  0  0  0  0  0  0  0  0  0
   20.6931   17.8035   18.0542 H   0  0  0  0  0  0  0  0  0  0  0  0
   19.7351   18.8062   19.6506 C   0  0  0  0  0  0  0  0  0  0  0  0
   18.8591   18.1584   19.6357 H   0  0  0  0  0  0  0  0  0  0  0  0
   19.7170   19.9101   20.6864 C   0  0  0  0  0  0  0  0  0  0  0  0
   18.7250   20.3804   20.7152 H   0  0  0  0  0  0  0  0  0  0  0  0
   20.4232   20.7002   20.3973 H   0  0  0  0  0  0  0  0  0  0  0  0
   20.0940   19.4016   22.0962 C   0  0  0  0  0  0  0  0  0  0  0  0
   21.0791   18.9165   22.0583 H   0  0  0  0  0  0  0  0  0  0  0  0
   20.1971   20.2666   22.7656 H   0  0  0  0  0  0  0  0  0  0  0  0
   19.0495   18.4218   22.6818 C   0  0  0  0  0  0  0  0  0  0  0  0
   18.9600   17.5460   22.0256 H   0  0  0  0  0  0  0  0  0  0  0  0
   18.0612   18.9016   22.7061 H   0  0  0  0  0  0  0  0  0  0  0  0
   19.4207   17.9378   24.1077 C   0  0  0  0  0  0  0  0  0  0  0  0
   18.7198   17.1560   24.4232 H   0  0  0  0  0  0  0  0  0  0  0  0
   20.4202   17.4863   24.1061 H   0  0  0  0  0  0  0  0  0  0  0  0
   19.3840   19.0369   25.1657 C   0  0  0  0  0  0  0  0  0  0  0  0
   20.4398   19.4845   25.5683 O   0  5  0  0  0  0  0  0  0  0  0  0
   18.2988   19.4085   25.5676 O   0  0  0  0  0  0  0  0  0  0  0  0
  1  2  1  0  0  0  0
  1  3  1  0  0  0  0
  1  4  2  0  0  0  0
  4  5  1  0  0  0  0
  4  6  1  0  0  0  0
  6  7  1  0  0  0  0
  6  8  1  0  0  0  0
  6  9  1  0  0  0  0
  9 10  1  0  0  0  0
  9 11  1  0  0  0  0
  9 12  1  0  0  0  0
 12 13  1  0  0  0  0
 12 14  1  0  0  0  0
 12 15  1  0  0  0  0
 15 16  1  0  0  0  0
 15 17  1  0  0  0  0
 15 18  1  0  0  0  0
 18 19  1  0  0  0  0
 18 20  2  0  0  0  0
M  END
> <VM2 Rank>
28

> <Conf_Id>
144

> <Probability>
0.54

> <Sum Probability>
94.10

> <Delta G>
1.923

> <G>
-19.966

> <E>
-35.310

> <-TS>
15.344

> <U+W>
-51.406

> <U>
9.191

> <W>
-60.597

> <W(PB)>
-62.798

> <W(SA)>
2.201

> <Valence>
9.572

> <Coulomb>
-0.885

> <VdW>
0.504

> <VdW6>
-7.168

> <VdW12>
7.672

> <Bond>
0.127

> <Angle>
2.504

> <Pdih>
6.941

> <Idih>
0.001

> <Tether>
0.000

$$$$
VeraChem MOL file


 20 19  0  0  0  0  0  0  0  0999 V2000     
   20.6909   17.6976   19.4984 C   0  0  0  0  0  0  0  0  0  0  0  0
   19.8382   17.0766   19.2288 H   0  0  0  0  0  0  0  0  0  0  0  0
   21.6837   17.3075   19.2809 H   0  0  0  0  0  0  0  0  0  0  0  0
   20.5297   18.8905   20.0769 C   0  0  0  0  0  0  0  0  0  0  0  0
   21.3969   19.4972   20.3361 H   0  0  0  0  0  0  0  0  0  0  0  0
   19.1825   19.4990   20.4036 C   0  0  0  0  0  0  0  0  0  0  0  0
   18.3995   19.0045   19.8128 H   0  0  0  0  0  0  0  0  0  0  0  0
   19.1683   20.5567   20.1085 H   0  0  0  0  0  0  0  0  0  0  0  0
   18.8271   19.3706   21.9021 C   0  0  0  0  0  0  0  0  0  0  0  0
   17.7927   19.7090   22.0510 H   0  0  0  0  0  0  0  0  0  0  0  0
   18.8545   18.3111   22.1925 H   0  0  0  0  0  0  0  0  0  0  0  0
   19.7667   20.1929   22.8157 C   0  0  0  0  0  0  0  0  0  0  0  0
   19.7689   21.2402   22.4846 H   0  0  0  0  0  0  0  0  0  0  0  0
   20.7985   19.8282   22.7202 H   0  0  0  0  0  0  0  0  0  0  0  0
   19.3446   20.1375   24.3069 C   0  0  0  0  0  0  0  0  0  0  0  0
   19.9686   20.8251   24.8899 H   0  0  0  0  0  0  0  0  0  0  0  0
   18.3077   20.4761   24.4205 H   0  0  0  0  0  0  0  0  0  0  0  0
   19.4768   18.7541   24.9373 C   0  0  0  0  0  0  0  0  0  0  0  0
   20.5861   18.3751   25.2581 O   0  5  0  0  0  0  0  0  0  0  0  0
   18.4666   18.1006   25.1090 O   0  0  0  0  0  0  0  0  0  0  0  0
  1  2  1  0  0  0  0
  1  3  1  0  0  0  0
  1  4  2  0  0  0  0
  4  5  1  0  0  0  0
  4  6  1  0  0  0  0
  6  7  1  0  0  0  0
  6  8  1  0  0  0  0
  6  9  1  0  0  0  0
  9 10  1  0  0  0  0
  9 11  1  0  0  0  0
  9 12  1  0  0  0  0
 12 13  1  0  0  0  0
 12 14  1  0  0  0  0
 12 15  1  0  0  0  0
 15 16  1  0  0  0  0
 15 17  1  0  0  0  0
 15 18  1  0  0  0  0
 18 19  1  0  0  0  0
 18 20  2  0  0  0  0
M  END
> <VM2 Rank>
29

> <Conf_Id>
344

> <Probability>
0.52

> <Sum Probability>
94.62

> <Delta G>
1.948

> <G>
-19.942

> <E>
-35.310

> <-TS>
15.369

> <U+W>
-51.407

> <U>
10.460

> <W>
-61.867

> <W(PB)>
-64.045

> <W(SA)>
2.178

> <Valence>
9.554

> <Coulomb>
0.483

> <VdW>
0.423

> <VdW6>
-7.224

> <VdW12>
7.647

> <Bond>
0.126

> <Angle>
2.492

> <Pdih>
6.936

> <Idih>
0.001

> <Tether>
0.000

$$$$
VeraChem MOL file


 20 19  0  0  0  0  0  0  0  0999 V2000     
   19.9077   18.3623   18.6773 C   0  0  0  0  0  0  0  0  0  0  0  0
   20.5484   17.7599   18.0355 H   0  0  0  0  0  0  0  0  0  0  0  0
   18.8505   18.4152   18.4225 H   0  0  0  0  0  0  0  0  0  0  0  0
   20.4028   19.0074   19.7368 C   0  0  0  0  0  0  0  0  0  0  0  0
   21.4648   18.9438   19.9718 H   0  0  0  0  0  0  0  0  0  0  0  0
   19.5752   19.8674   20.6681 C   0  0  0  0  0  0  0  0  0  0  0  0
   18.6434   20.1638   20.1677 H   0  0  0  0  0  0  0  0  0  0  0  0
   20.1120   20.7984   20.8941 H   0  0  0  0  0  0  0  0  0  0  0  0
   19.2197   19.1381   21.9834 C   0  0  0  0  0  0  0  0  0  0  0  0
   18.5100   19.7582   22.5480 H   0  0  0  0  0  0  0  0  0  0  0  0
   18.6987   18.1991   21.7513 H   0  0  0  0  0  0  0  0  0  0  0  0
   20.4584   18.8464   22.8636 C   0  0  0  0  0  0  0  0  0  0  0  0
   20.9881   19.7837   23.0836 H   0  0  0  0  0  0  0  0  0  0  0  0
   21.1600   18.2091   22.3094 H   0  0  0  0  0  0  0  0  0  0  0  0
   20.0905   18.1396   24.1941 C   0  0  0  0  0  0  0  0  0  0  0  0
   19.5311   17.2183   23.9914 H   0  0  0  0  0  0  0  0  0  0  0  0
   21.0074   17.8455   24.7183 H   0  0  0  0  0  0  0  0  0  0  0  0
   19.2754   19.0042   25.1517 C   0  0  0  0  0  0  0  0  0  0  0  0
   19.8540   19.8773   25.7681 O   0  5  0  0  0  0  0  0  0  0  0  0
   18.0872   18.7753   25.2649 O   0  0  0  0  0  0  0  0  0  0  0  0
  1  2  1  0  0  0  0
  1  3  1  0  0  0  0
  1  4  2  0  0  0  0
  4  5  1  0  0  0  0
  4  6  1  0  0  0  0
  6  7  1  0  0  0  0
  6  8  1  0  0  0  0
  6  9  1  0  0  0  0
  9 10  1  0  0  0  0
  9 11  1  0  0  0  0
  9 12  1  0  0  0  0
 12 13  1  0  0  0  0
 12 14  1  0  0  0  0
 12 15  1  0  0  0  0
 15 16  1  0  0  0  0
 15 17  1  0  0  0  0
 15 18  1  0  0  0  0
 18 19  1  0  0  0  0
 18 20  2  0  0  0  0
M  END
> <VM2 Rank>
30

> <Conf_Id>
106

> <Probability>
0.49

> <Sum Probability>
95.11

> <Delta G>
1.984

> <G>
-19.906

> <E>
-35.249

> <-TS>
15.343

> <U+W>
-51.345

> <U>
9.191

> <W>
-60.536

> <W(PB)>
-62.743

> <W(SA)>
2.206

> <Valence>
9.572

> <Coulomb>
-0.885

> <VdW>
0.504

> <VdW6>
-7.168

> <VdW12>
7.672

> <Bond>
0.127

> <Angle>
2.504

> <Pdih>
6.941

> <Idih>
0.001

> <Tether>
0.000

$$$$
VeraChem MOL file


 20 19  0  0  0  0  0  0  0  0999 V2000     
   21.0125   18.0303   19.9119 C   0  0  0  0  0  0  0  0  0  0  0  0
   20.2611   17.2569   20.0550 H   0  0  0  0  0  0  0  0  0  0  0  0
   22.0053   17.7037   19.6078 H   0  0  0  0  0  0  0  0  0  0  0  0
   20.7435   19.3281   20.0920 C   0  0  0  0  0  0  0  0  0  0  0  0
   21.5336   20.0612   19.9323 H   0  0  0  0  0  0  0  0  0  0  0  0
   19.4123   19.9252   20.5188 C   0  0  0  0  0  0  0  0  0  0  0  0
   18.9030   20.3171   19.6285 H   0  0  0  0  0  0  0  0  0  0  0  0
   19.6026   20.8068   21.1435 H   0  0  0  0  0  0  0  0  0  0  0  0
   18.4518   18.9701   21.2748 C   0  0  0  0  0  0  0  0  0  0  0  0
   17.4995   19.4908   21.4441 H   0  0  0  0  0  0  0  0  0  0  0  0
   18.2101   18.1129   20.6328 H   0  0  0  0  0  0  0  0  0  0  0  0
   18.9864   18.4580   22.6366 C   0  0  0  0  0  0  0  0  0  0  0  0
   19.9300   17.9149   22.4943 H   0  0  0  0  0  0  0  0  0  0  0  0
   18.2707   17.7294   23.0416 H   0  0  0  0  0  0  0  0  0  0  0  0
   19.1954   19.5832   23.6831 C   0  0  0  0  0  0  0  0  0  0  0  0
   19.9816   20.2725   23.3550 H   0  0  0  0  0  0  0  0  0  0  0  0
   18.2755   20.1682   23.8000 H   0  0  0  0  0  0  0  0  0  0  0  0
   19.5909   19.0470   25.0544 C   0  0  0  0  0  0  0  0  0  0  0  0
   20.7738   18.9304   25.3071 O   0  5  0  0  0  0  0  0  0  0  0  0
   18.7045   18.7457   25.8293 O   0  0  0  0  0  0  0  0  0  0  0  0
  1  2  1  0  0  0  0
  1  3  1  0  0  0  0
  1  4  2  0  0  0  0
  4  5  1  0  0  0  0
  4  6  1  0  0  0  0
  6  7  1  0  0  0  0
  6  8  1  0  0  0  0
  6  9  1  0  0  0  0
  9 10  1  0  0  0  0
  9 11  1  0  0  0  0
  9 12  1  0  0  0  0
 12 13  1  0  0  0  0
 12 14  1  0  0  0  0
 12 15  1  0  0  0  0
 15 16  1  0  0  0  0
 15 17  1  0  0  0  0
 15 18  1  0  0  0  0
 18 19  1  0  0  0  0
 18 20  2  0  0  0  0
M  END
> <VM2 Rank>
31

> <Conf_Id>
301

> <Probability>
0.44

> <Sum Probability>
95.55

> <Delta G>
2.045

> <G>
-19.845

> <E>
-35.289

> <-TS>
15.445

> <U+W>
-51.386

> <U>
10.000

> <W>
-61.386

> <W(PB)>
-63.553

> <W(SA)>
2.168

> <Valence>
9.399

> <Coulomb>
-0.503

> <VdW>
1.105

> <VdW6>
-7.975

> <VdW12>
9.080

> <Bond>
0.216

> <Angle>
3.417

> <Pdih>
5.765

> <Idih>
0.001

> <Tether>
0.000

$$$$
VeraChem MOL file


 20 19  0  0  0  0  0  0  0  0999 V2000     
   21.2248   19.6588   19.9320 C   0  0  0  0  0  0  0  0  0  0  0  0
   20.6960   20.5953   20.0953 H   0  0  0  0  0  0  0  0  0  0  0  0
   22.2692   19.7273   19.6329 H   0  0  0  0  0  0  0  0  0  0  0  0
   20.6317   18.4694   20.0819 C   0  0  0  0  0  0  0  0  0  0  0  0
   21.2082   17.5623   19.9029 H   0  0  0  0  0  0  0  0  0  0  0  0
   19.1906   18.2233   20.4981 C   0  0  0  0  0  0  0  0  0  0  0  0
   19.1465   17.3078   21.1010 H   0  0  0  0  0  0  0  0  0  0  0  0
   18.6008   17.9963   19.6002 H   0  0  0  0  0  0  0  0  0  0  0  0
   18.5043   19.3743   21.2795 C   0  0  0  0  0  0  0  0  0  0  0  0
   18.4922   20.2798   20.6588 H   0  0  0  0  0  0  0  0  0  0  0  0
   17.4498   19.1110   21.4393 H   0  0  0  0  0  0  0  0  0  0  0  0
   19.1479   19.6999   22.6516 C   0  0  0  0  0  0  0  0  0  0  0  0
   18.6412   20.5775   23.0760 H   0  0  0  0  0  0  0  0  0  0  0  0
   20.1995   19.9867   22.5193 H   0  0  0  0  0  0  0  0  0  0  0  0
   19.0588   18.5341   23.6703 C   0  0  0  0  0  0  0  0  0  0  0  0
   18.0194   18.2015   23.7761 H   0  0  0  0  0  0  0  0  0  0  0  0
   19.6434   17.6746   23.3233 H   0  0  0  0  0  0  0  0  0  0  0  0
   19.5742   18.9184   25.0527 C   0  0  0  0  0  0  0  0  0  0  0  0
   20.7469   18.7227   25.3042 O   0  5  0  0  0  0  0  0  0  0  0  0
   18.7919   19.4171   25.8377 O   0  0  0  0  0  0  0  0  0  0  0  0
  1  2  1  0  0  0  0
  1  3  1  0  0  0  0
  1  4  2  0  0  0  0
  4  5  1  0  0  0  0
  4  6  1  0  0  0  0
  6  7  1  0  0  0  0
  6  8  1  0  0  0  0
  6  9  1  0  0  0  0
  9 10  1  0  0  0  0
  9 11  1  0  0  0  0
  9 12  1  0  0  0  0
 12 13  1  0  0  0  0
 12 14  1  0  0  0  0
 12 15  1  0  0  0  0
 15 16  1  0  0  0  0
 15 17  1  0  0  0  0
 15 18  1  0  0  0  0
 18 19  1  0  0  0  0
 18 20  2  0  0  0  0
M  END
> <VM2 Rank>
32

> <Conf_Id>
676

> <Probability>
0.44

> <Sum Probability>
95.99

> <Delta G>
2.049

> <G>
-19.840

> <E>
-35.285

> <-TS>
15.445

> <U+W>
-51.381

> <U>
10.001

> <W>
-61.382

> <W(PB)>
-63.543

> <W(SA)>
2.161

> <Valence>
9.399

> <Coulomb>
-0.502

> <VdW>
1.104

> <VdW6>
-7.976

> <VdW12>
9.080

> <Bond>
0.216

> <Angle>
3.417

> <Pdih>
5.765

> <Idih>
0.001

> <Tether>
0.000

$$$$
VeraChem MOL file


 20 19  0  0  0  0  0  0  0  0999 V2000     
   19.6798   18.1469   18.9853 C   0  0  0  0  0  0  0  0  0  0  0  0
   18.6001   18.0472   19.0841 H   0  0  0  0  0  0  0  0  0  0  0  0
   20.1837   17.4756   18.2921 H   0  0  0  0  0  0  0  0  0  0  0  0
   20.3636   19.0537   19.6883 C   0  0  0  0  0  0  0  0  0  0  0  0
   21.4444   19.1356   19.5763 H   0  0  0  0  0  0  0  0  0  0  0  0
   19.7336   20.0190   20.6697 C   0  0  0  0  0  0  0  0  0  0  0  0
   18.6394   20.0098   20.5734 H   0  0  0  0  0  0  0  0  0  0  0  0
   20.0572   21.0398   20.4264 H   0  0  0  0  0  0  0  0  0  0  0  0
   20.1250   19.7078   22.1319 C   0  0  0  0  0  0  0  0  0  0  0  0
   21.2194   19.7129   22.2283 H   0  0  0  0  0  0  0  0  0  0  0  0
   19.7505   20.5149   22.7764 H   0  0  0  0  0  0  0  0  0  0  0  0
   19.5618   18.3540   22.6254 C   0  0  0  0  0  0  0  0  0  0  0  0
   19.9408   17.5454   21.9860 H   0  0  0  0  0  0  0  0  0  0  0  0
   18.4676   18.3479   22.5254 H   0  0  0  0  0  0  0  0  0  0  0  0
   19.9459   18.0487   24.0966 C   0  0  0  0  0  0  0  0  0  0  0  0
   19.6290   17.0313   24.3541 H   0  0  0  0  0  0  0  0  0  0  0  0
   21.0353   18.0824   24.2183 H   0  0  0  0  0  0  0  0  0  0  0  0
   19.3122   18.9948   25.1125 C   0  0  0  0  0  0  0  0  0  0  0  0
   20.0108   19.8542   25.6130 O   0  5  0  0  0  0  0  0  0  0  0  0
   18.1382   18.8389   25.3854 O   0  0  0  0  0  0  0  0  0  0  0  0
  1  2  1  0  0  0  0
  1  3  1  0  0  0  0
  1  4  2  0  0  0  0
  4  5  1  0  0  0  0
  4  6  1  0  0  0  0
  6  7  1  0  0  0  0
  6  8  1  0  0  0  0
  6  9  1  0  0  0  0
  9 10  1  0  0  0  0
  9 11  1  0  0  0  0
  9 12  1  0  0  0  0
 12 13  1  0  0  0  0
 12 14  1  0  0  0  0
 12 15  1  0  0  0  0
 15 16  1  0  0  0  0
 15 17  1  0  0  0  0
 15 18  1  0  0  0  0
 18 19  1  0  0  0  0
 18 20  2  0  0  0  0
M  END
> <VM2 Rank>
33

> <Conf_Id>
219

> <Probability>
0.41

> <Sum Probability>
96.40

> <Delta G>
2.087

> <G>
-19.803

> <E>
-35.222

> <-TS>
15.419

> <U+W>
-51.318

> <U>
9.294

> <W>
-60.613

> <W(PB)>
-62.806

> <W(SA)>
2.194

> <Valence>
9.496

> <Coulomb>
-0.611

> <VdW>
0.409

> <VdW6>
-7.331

> <VdW12>
7.741

> <Bond>
0.126

> <Angle>
2.497

> <Pdih>
6.872

> <Idih>
0.000

> <Tether>
0.000

$$$$
VeraChem MOL file


 20 19  0  0  0  0  0  0  0  0999 V2000     
   20.9611   18.5331   19.1506 C   0  0  0  0  0  0  0  0  0  0  0  0
   21.8624   19.0305   19.5048 H   0  0  0  0  0  0  0  0  0  0  0  0
   21.0818   17.7463   18.4079 H   0  0  0  0  0  0  0  0  0  0  0  0
   19.7527   18.8696   19.6095 C   0  0  0  0  0  0  0  0  0  0  0  0
   18.8632   18.3576   19.2435 H   0  0  0  0  0  0  0  0  0  0  0  0
   19.5064   19.9505   20.6404 C   0  0  0  0  0  0  0  0  0  0  0  0
   18.7466   20.6447   20.2574 H   0  0  0  0  0  0  0  0  0  0  0  0
   20.4156   20.5452   20.8025 H   0  0  0  0  0  0  0  0  0  0  0  0
   19.0198   19.3746   21.9894 C   0  0  0  0  0  0  0  0  0  0  0  0
   18.7322   20.2079   22.6451 H   0  0  0  0  0  0  0  0  0  0  0  0
   18.1127   18.7764   21.8276 H   0  0  0  0  0  0  0  0  0  0  0  0
   20.0957   18.5149   22.6943 C   0  0  0  0  0  0  0  0  0  0  0  0
   21.0041   19.1125   22.8526 H   0  0  0  0  0  0  0  0  0  0  0  0
   20.3794   17.6777   22.0426 H   0  0  0  0  0  0  0  0  0  0  0  0
   19.6098   17.9473   24.0532 C   0  0  0  0  0  0  0  0  0  0  0  0
   18.6852   17.3738   23.9152 H   0  0  0  0  0  0  0  0  0  0  0  0
   20.3591   17.2514   24.4483 H   0  0  0  0  0  0  0  0  0  0  0  0
   19.3685   19.0118   25.1197 C   0  0  0  0  0  0  0  0  0  0  0  0
   20.3358   19.5014   25.6691 O   0  5  0  0  0  0  0  0  0  0  0  0
   18.2211   19.3148   25.3818 O   0  0  0  0  0  0  0  0  0  0  0  0
  1  2  1  0  0  0  0
  1  3  1  0  0  0  0
  1  4  2  0  0  0  0
  4  5  1  0  0  0  0
  4  6  1  0  0  0  0
  6  7  1  0  0  0  0
  6  8  1  0  0  0  0
  6  9  1  0  0  0  0
  9 10  1  0  0  0  0
  9 11  1  0  0  0  0
  9 12  1  0  0  0  0
 12 13  1  0  0  0  0
 12 14  1  0  0  0  0
 12 15  1  0  0  0  0
 15 16  1  0  0  0  0
 15 17  1  0  0  0  0
 15 18  1  0  0  0  0
 18 19  1  0  0  0  0
 18 20  2  0  0  0  0
M  END
> <VM2 Rank>
34

> <Conf_Id>
492

> <Probability>
0.39

> <Sum Probability>
96.80

> <Delta G>
2.114

> <G>
-19.776

> <E>
-35.195

> <-TS>
15.419

> <U+W>
-51.291

> <U>
9.294

> <W>
-60.585

> <W(PB)>
-62.766

> <W(SA)>
2.180

> <Valence>
9.495

> <Coulomb>
-0.611

> <VdW>
0.409

> <VdW6>
-7.332

> <VdW12>
7.741

> <Bond>
0.126

> <Angle>
2.497

> <Pdih>
6.872

> <Idih>
0.000

> <Tether>
0.000

$$$$
VeraChem MOL file


 20 19  0  0  0  0  0  0  0  0999 V2000     
   19.6683   17.8246   19.3580 C   0  0  0  0  0  0  0  0  0  0  0  0
   19.8618   16.7954   19.0604 H   0  0  0  0  0  0  0  0  0  0  0  0
   18.7453   18.2829   19.0067 H   0  0  0  0  0  0  0  0  0  0  0  0
   20.5306   18.4943   20.1274 C   0  0  0  0  0  0  0  0  0  0  0  0
   21.4476   18.0162   20.4707 H   0  0  0  0  0  0  0  0  0  0  0  0
   20.3298   19.9242   20.5822 C   0  0  0  0  0  0  0  0  0  0  0  0
   19.4949   20.3889   20.0404 H   0  0  0  0  0  0  0  0  0  0  0  0
   21.2249   20.5092   20.3324 H   0  0  0  0  0  0  0  0  0  0  0  0
   20.0778   20.0247   22.1035 C   0  0  0  0  0  0  0  0  0  0  0  0
   20.9173   19.5655   22.6436 H   0  0  0  0  0  0  0  0  0  0  0  0
   20.0625   21.0845   22.3921 H   0  0  0  0  0  0  0  0  0  0  0  0
   18.7478   19.3614   22.5331 C   0  0  0  0  0  0  0  0  0  0  0  0
   18.7661   18.2904   22.2880 H   0  0  0  0  0  0  0  0  0  0  0  0
   17.9218   19.8019   21.9587 H   0  0  0  0  0  0  0  0  0  0  0  0
   18.4578   19.5335   24.0467 C   0  0  0  0  0  0  0  0  0  0  0  0
   18.4592   20.5969   24.3148 H   0  0  0  0  0  0  0  0  0  0  0  0
   17.4559   19.1503   24.2735 H   0  0  0  0  0  0  0  0  0  0  0  0
   19.4431   18.8016   24.9535 C   0  0  0  0  0  0  0  0  0  0  0  0
   20.3039   19.4526   25.5126 O   0  5  0  0  0  0  0  0  0  0  0  0
   19.3119   17.6012   25.0909 O   0  0  0  0  0  0  0  0  0  0  0  0
  1  2  1  0  0  0  0
  1  3  1  0  0  0  0
  1  4  2  0  0  0  0
  4  5  1  0  0  0  0
  4  6  1  0  0  0  0
  6  7  1  0  0  0  0
  6  8  1  0  0  0  0
  6  9  1  0  0  0  0
  9 10  1  0  0  0  0
  9 11  1  0  0  0  0
  9 12  1  0  0  0  0
 12 13  1  0  0  0  0
 12 14  1  0  0  0  0
 12 15  1  0  0  0  0
 15 16  1  0  0  0  0
 15 17  1  0  0  0  0
 15 18  1  0  0  0  0
 18 19  1  0  0  0  0
 18 20  2  0  0  0  0
M  END
> <VM2 Rank>
35

> <Conf_Id>
354

> <Probability>
0.37

> <Sum Probability>
97.16

> <Delta G>
2.158

> <G>
-19.731

> <E>
-35.157

> <-TS>
15.425

> <U+W>
-51.253

> <U>
10.179

> <W>
-61.432

> <W(PB)>
-63.627

> <W(SA)>
2.195

> <Valence>
9.483

> <Coulomb>
0.361

> <VdW>
0.335

> <VdW6>
-7.385

> <VdW12>
7.720

> <Bond>
0.125

> <Angle>
2.487

> <Pdih>
6.870

> <Idih>
0.001

> <Tether>
0.000

$$$$
VeraChem MOL file


 20 19  0  0  0  0  0  0  0  0999 V2000     
   19.1084   18.2343   19.2838 C   0  0  0  0  0  0  0  0  0  0  0  0
   18.1336   18.0603   18.8316 H   0  0  0  0  0  0  0  0  0  0  0  0
   19.8656   17.4626   19.1553 H   0  0  0  0  0  0  0  0  0  0  0  0
   19.3605   19.3508   19.9723 C   0  0  0  0  0  0  0  0  0  0  0  0
   18.5876   20.1096   20.0918 H   0  0  0  0  0  0  0  0  0  0  0  0
   20.6882   19.6619   20.6297 C   0  0  0  0  0  0  0  0  0  0  0  0
   21.0249   20.6557   20.3058 H   0  0  0  0  0  0  0  0  0  0  0  0
   21.4586   18.9514   20.3006 H   0  0  0  0  0  0  0  0  0  0  0  0
   20.5958   19.6455   22.1721 C   0  0  0  0  0  0  0  0  0  0  0  0
   21.5497   19.9959   22.5892 H   0  0  0  0  0  0  0  0  0  0  0  0
   19.8295   20.3618   22.4993 H   0  0  0  0  0  0  0  0  0  0  0  0
   20.2798   18.2401   22.7361 C   0  0  0  0  0  0  0  0  0  0  0  0
   21.0305   17.5265   22.3707 H   0  0  0  0  0  0  0  0  0  0  0  0
   19.3071   17.8945   22.3597 H   0  0  0  0  0  0  0  0  0  0  0  0
   20.2670   18.2092   24.2865 C   0  0  0  0  0  0  0  0  0  0  0  0
   20.1554   17.1744   24.6313 H   0  0  0  0  0  0  0  0  0  0  0  0
   21.2231   18.5739   24.6811 H   0  0  0  0  0  0  0  0  0  0  0  0
   19.1392   19.0241   24.9132 C   0  0  0  0  0  0  0  0  0  0  0  0
   19.4098   20.1070   25.3941 O   0  5  0  0  0  0  0  0  0  0  0  0
   18.0223   18.5451   24.9202 O   0  0  0  0  0  0  0  0  0  0  0  0
  1  2  1  0  0  0  0
  1  3  1  0  0  0  0
  1  4  2  0  0  0  0
  4  5  1  0  0  0  0
  4  6  1  0  0  0  0
  6  7  1  0  0  0  0
  6  8  1  0  0  0  0
  6  9  1  0  0  0  0
  9 10  1  0  0  0  0
  9 11  1  0  0  0  0
  9 12  1  0  0  0  0
 12 13  1  0  0  0  0
 12 14  1  0  0  0  0
 12 15  1  0  0  0  0
 15 16  1  0  0  0  0
 15 17  1  0  0  0  0
 15 18  1  0  0  0  0
 18 19  1  0  0  0  0
 18 20  2  0  0  0  0
M  END
> <VM2 Rank>
36

> <Conf_Id>
761

> <Probability>
0.34

> <Sum Probability>
97.51

> <Delta G>
2.198

> <G>
-19.691

> <E>
-35.116

> <-TS>
15.425

> <U+W>
-51.213

> <U>
10.178

> <W>
-61.390

> <W(PB)>
-63.591

> <W(SA)>
2.201

> <Valence>
9.483

> <Coulomb>
0.359

> <VdW>
0.335

> <VdW6>
-7.385

> <VdW12>
7.720

> <Bond>
0.125

> <Angle>
2.487

> <Pdih>
6.870

> <Idih>
0.001

> <Tether>
0.000

$$$$
VeraChem MOL file


 20 19  0  0  0  0  0  0  0  0999 V2000     
   20.4992   17.6630   19.6780 C   0  0  0  0  0  0  0  0  0  0  0  0
   21.3621   18.2001   19.2877 H   0  0  0  0  0  0  0  0  0  0  0  0
   20.4968   16.5787   19.5812 H   0  0  0  0  0  0  0  0  0  0  0  0
   19.4823   18.3075   20.2560 C   0  0  0  0  0  0  0  0  0  0  0  0
   18.6234   17.7531   20.6324 H   0  0  0  0  0  0  0  0  0  0  0  0
   19.4137   19.8116   20.4126 C   0  0  0  0  0  0  0  0  0  0  0  0
   18.3767   20.1293   20.5846 H   0  0  0  0  0  0  0  0  0  0  0  0
   19.7131   20.2742   19.4624 H   0  0  0  0  0  0  0  0  0  0  0  0
   20.3294   20.3601   21.5351 C   0  0  0  0  0  0  0  0  0  0  0  0
   21.3224   19.8945   21.4710 H   0  0  0  0  0  0  0  0  0  0  0  0
   20.4866   21.4311   21.3485 H   0  0  0  0  0  0  0  0  0  0  0  0
   19.7634   20.2113   22.9698 C   0  0  0  0  0  0  0  0  0  0  0  0
   18.7645   20.6654   23.0264 H   0  0  0  0  0  0  0  0  0  0  0  0
   20.4020   20.7876   23.6535 H   0  0  0  0  0  0  0  0  0  0  0  0
   19.6977   18.7489   23.4803 C   0  0  0  0  0  0  0  0  0  0  0  0
   18.9555   18.1768   22.9147 H   0  0  0  0  0  0  0  0  0  0  0  0
   20.6668   18.2548   23.3425 H   0  0  0  0  0  0  0  0  0  0  0  0
   19.3228   18.6552   24.9549 C   0  0  0  0  0  0  0  0  0  0  0  0
   20.2186   18.6583   25.7761 O   0  5  0  0  0  0  0  0  0  0  0  0
   18.1439   18.6022   25.2453 O   0  0  0  0  0  0  0  0  0  0  0  0
  1  2  1  0  0  0  0
  1  3  1  0  0  0  0
  1  4  2  0  0  0  0
  4  5  1  0  0  0  0
  4  6  1  0  0  0  0
  6  7  1  0  0  0  0
  6  8  1  0  0  0  0
  6  9  1  0  0  0  0
  9 10  1  0  0  0  0
  9 11  1  0  0  0  0
  9 12  1  0  0  0  0
 12 13  1  0  0  0  0
 12 14  1  0  0  0  0
 12 15  1  0  0  0  0
 15 16  1  0  0  0  0
 15 17  1  0  0  0  0
 15 18  1  0  0  0  0
 18 19  1  0  0  0  0
 18 20  2  0  0  0  0
M  END
> <VM2 Rank>
37

> <Conf_Id>
108

> <Probability>
0.22

> <Sum Probability>
97.73

> <Delta G>
2.453

> <G>
-19.437

> <E>
-34.099

> <-TS>
14.662

> <U+W>
-50.195

> <U>
10.644

> <W>
-60.839

> <W(PB)>
-62.998

> <W(SA)>
2.160

> <Valence>
11.231

> <Coulomb>
-1.076

> <VdW>
0.489

> <VdW6>
-7.546

> <VdW12>
8.035

> <Bond>
0.159

> <Angle>
3.006

> <Pdih>
8.064

> <Idih>
0.002

> <Tether>
0.000

$$$$
VeraChem MOL file


 20 19  0  0  0  0  0  0  0  0999 V2000     
   19.4461   19.9243   19.2821 C   0  0  0  0  0  0  0  0  0  0  0  0
   19.5140   20.4665   18.3406 H   0  0  0  0  0  0  0  0  0  0  0  0
   18.4485   19.7642   19.6855 H   0  0  0  0  0  0  0  0  0  0  0  0
   20.5493   19.4873   19.9002 C   0  0  0  0  0  0  0  0  0  0  0  0
   21.5217   19.6805   19.4477 H   0  0  0  0  0  0  0  0  0  0  0  0
   20.6139   18.7199   21.2102 C   0  0  0  0  0  0  0  0  0  0  0  0
   21.1762   19.3211   21.9362 H   0  0  0  0  0  0  0  0  0  0  0  0
   21.2055   17.8081   21.0542 H   0  0  0  0  0  0  0  0  0  0  0  0
   19.2391   18.3319   21.8085 C   0  0  0  0  0  0  0  0  0  0  0  0
   18.6725   19.2413   22.0517 H   0  0  0  0  0  0  0  0  0  0  0  0
   18.6575   17.7927   21.0484 H   0  0  0  0  0  0  0  0  0  0  0  0
   19.3441   17.4325   23.0652 C   0  0  0  0  0  0  0  0  0  0  0  0
   19.8677   16.5034   22.8025 H   0  0  0  0  0  0  0  0  0  0  0  0
   18.3315   17.1376   23.3737 H   0  0  0  0  0  0  0  0  0  0  0  0
   20.0591   18.0954   24.2743 C   0  0  0  0  0  0  0  0  0  0  0  0
   20.0957   17.3845   25.1079 H   0  0  0  0  0  0  0  0  0  0  0  0
   21.0992   18.3349   24.0259 H   0  0  0  0  0  0  0  0  0  0  0  0
   19.3751   19.3595   24.7872 C   0  0  0  0  0  0  0  0  0  0  0  0
   19.9323   20.4258   24.6156 O   0  5  0  0  0  0  0  0  0  0  0  0
   18.3120   19.2413   25.3646 O   0  0  0  0  0  0  0  0  0  0  0  0
  1  2  1  0  0  0  0
  1  3  1  0  0  0  0
  1  4  2  0  0  0  0
  4  5  1  0  0  0  0
  4  6  1  0  0  0  0
  6  7  1  0  0  0  0
  6  8  1  0  0  0  0
  6  9  1  0  0  0  0
  9 10  1  0  0  0  0
  9 11  1  0  0  0  0
  9 12  1  0  0  0  0
 12 13  1  0  0  0  0
 12 14  1  0  0  0  0
 12 15  1  0  0  0  0
 15 16  1  0  0  0  0
 15 17  1  0  0  0  0
 15 18  1  0  0  0  0
 18 19  1  0  0  0  0
 18 20  2  0  0  0  0
M  END
> <VM2 Rank>
38

> <Conf_Id>
365

> <Probability>
0.22

> <Sum Probability>
97.95

> <Delta G>
2.467

> <G>
-19.423

> <E>
-35.132

> <-TS>
15.709

> <U+W>
-51.228

> <U>
10.869

> <W>
-62.098

> <W(PB)>
-64.246

> <W(SA)>
2.149

> <Valence>
8.803

> <Coulomb>
1.019

> <VdW>
1.048

> <VdW6>
-8.312

> <VdW12>
9.360

> <Bond>
0.212

> <Angle>
3.379

> <Pdih>
5.211

> <Idih>
0.001

> <Tether>
0.000

$$$$
VeraChem MOL file


 20 19  0  0  0  0  0  0  0  0999 V2000     
   20.4032   17.6343   19.6644 C   0  0  0  0  0  0  0  0  0  0  0  0
   21.0179   16.7360   19.6471 H   0  0  0  0  0  0  0  0  0  0  0  0
   19.5068   17.6415   19.0465 H   0  0  0  0  0  0  0  0  0  0  0  0
   20.7367   18.6854   20.4178 C   0  0  0  0  0  0  0  0  0  0  0  0
   21.6426   18.6626   21.0224 H   0  0  0  0  0  0  0  0  0  0  0  0
   19.9369   19.9692   20.4802 C   0  0  0  0  0  0  0  0  0  0  0  0
   19.6652   20.2597   19.4564 H   0  0  0  0  0  0  0  0  0  0  0  0
   20.5596   20.7870   20.8665 H   0  0  0  0  0  0  0  0  0  0  0  0
   18.6390   19.8503   21.3172 C   0  0  0  0  0  0  0  0  0  0  0  0
   17.9726   20.6730   21.0243 H   0  0  0  0  0  0  0  0  0  0  0  0
   18.1073   18.9249   21.0565 H   0  0  0  0  0  0  0  0  0  0  0  0
   18.8418   19.9334   22.8511 C   0  0  0  0  0  0  0  0  0  0  0  0
   17.8541   20.0192   23.3249 H   0  0  0  0  0  0  0  0  0  0  0  0
   19.3861   20.8530   23.1067 H   0  0  0  0  0  0  0  0  0  0  0  0
   19.5723   18.7112   23.4643 C   0  0  0  0  0  0  0  0  0  0  0  0
   19.0930   17.7801   23.1394 H   0  0  0  0  0  0  0  0  0  0  0  0
   20.6137   18.6772   23.1290 H   0  0  0  0  0  0  0  0  0  0  0  0
   19.5817   18.7333   24.9885 C   0  0  0  0  0  0  0  0  0  0  0  0
   20.4927   19.3104   25.5487 O   0  5  0  0  0  0  0  0  0  0  0  0
   18.6667   18.1905   25.5759 O   0  0  0  0  0  0  0  0  0  0  0  0
  1  2  1  0  0  0  0
  1  3  1  0  0  0  0
  1  4  2  0  0  0  0
  4  5  1  0  0  0  0
  4  6  1  0  0  0  0
  6  7  1  0  0  0  0
  6  8  1  0  0  0  0
  6  9  1  0  0  0  0
  9 10  1  0  0  0  0
  9 11  1  0  0  0  0
  9 12  1  0  0  0  0
 12 13  1  0  0  0  0
 12 14  1  0  0  0  0
 12 15  1  0  0  0  0
 15 16  1  0  0  0  0
 15 17  1  0  0  0  0
 15 18  1  0  0  0  0
 18 19  1  0  0  0  0
 18 20  2  0  0  0  0
M  END
> <VM2 Rank>
39

> <Conf_Id>
659

> <Probability>
0.20

> <Sum Probability>
98.15

> <Delta G>
2.504

> <G>
-19.385

> <E>
-34.047

> <-TS>
14.662

> <U+W>
-50.144

> <U>
10.643

> <W>
-60.786

> <W(PB)>
-62.965

> <W(SA)>
2.179

> <Valence>
11.231

> <Coulomb>
-1.078

> <VdW>
0.489

> <VdW6>
-7.545

> <VdW12>
8.035

> <Bond>
0.159

> <Angle>
3.005

> <Pdih>
8.065

> <Idih>
0.002

> <Tether>
0.000

$$$$
VeraChem MOL file


 20 19  0  0  0  0  0  0  0  0999 V2000     
   19.9219   18.4958   18.7070 C   0  0  0  0  0  0  0  0  0  0  0  0
   19.9914   17.7230   17.9432 H   0  0  0  0  0  0  0  0  0  0  0  0
   20.1579   19.5164   18.4100 H   0  0  0  0  0  0  0  0  0  0  0  0
   19.5634   18.1987   19.9587 C   0  0  0  0  0  0  0  0  0  0  0  0
   19.3320   17.1705   20.2361 H   0  0  0  0  0  0  0  0  0  0  0  0
   19.4445   19.2165   21.0712 C   0  0  0  0  0  0  0  0  0  0  0  0
   18.4851   19.0762   21.5857 H   0  0  0  0  0  0  0  0  0  0  0  0
   19.4393   20.2337   20.6569 H   0  0  0  0  0  0  0  0  0  0  0  0
   20.6073   19.0754   22.0787 C   0  0  0  0  0  0  0  0  0  0  0  0
   20.5673   18.0833   22.5492 H   0  0  0  0  0  0  0  0  0  0  0  0
   21.5586   19.1185   21.5306 H   0  0  0  0  0  0  0  0  0  0  0  0
   20.6172   20.1741   23.1700 C   0  0  0  0  0  0  0  0  0  0  0  0
   20.7135   21.1581   22.6917 H   0  0  0  0  0  0  0  0  0  0  0  0
   21.5135   20.0459   23.7927 H   0  0  0  0  0  0  0  0  0  0  0  0
   19.3666   20.1758   24.0911 C   0  0  0  0  0  0  0  0  0  0  0  0
   19.4544   20.9894   24.8205 H   0  0  0  0  0  0  0  0  0  0  0  0
   18.4587   20.3764   23.5110 H   0  0  0  0  0  0  0  0  0  0  0  0
   19.1692   18.8821   24.8760 C   0  0  0  0  0  0  0  0  0  0  0  0
   19.9301   18.6482   25.7945 O   0  5  0  0  0  0  0  0  0  0  0  0
   18.2507   18.1515   24.5608 O   0  0  0  0  0  0  0  0  0  0  0  0
  1  2  1  0  0  0  0
  1  3  1  0  0  0  0
  1  4  2  0  0  0  0
  4  5  1  0  0  0  0
  4  6  1  0  0  0  0
  6  7  1  0  0  0  0
  6  8  1  0  0  0  0
  6  9  1  0  0  0  0
  9 10  1  0  0  0  0
  9 11  1  0  0  0  0
  9 12  1  0  0  0  0
 12 13  1  0  0  0  0
 12 14  1  0  0  0  0
 12 15  1  0  0  0  0
 15 16  1  0  0  0  0
 15 17  1  0  0  0  0
 15 18  1  0  0  0  0
 18 19  1  0  0  0  0
 18 20  2  0  0  0  0
M  END
> <VM2 Rank>
40

> <Conf_Id>
244

> <Probability>
0.20

> <Sum Probability>
98.35

> <Delta G>
2.521

> <G>
-19.369

> <E>
-34.753

> <-TS>
15.384

> <U+W>
-50.849

> <U>
10.197

> <W>
-61.046

> <W(PB)>
-63.242

> <W(SA)>
2.197

> <Valence>
9.837

> <Coulomb>
0.032

> <VdW>
0.327

> <VdW6>
-7.642

> <VdW12>
7.969

> <Bond>
0.151

> <Angle>
2.748

> <Pdih>
6.937

> <Idih>
0.001

> <Tether>
0.000

$$$$
VeraChem MOL file


 20 19  0  0  0  0  0  0  0  0999 V2000     
   19.7787   19.0700   18.6685 C   0  0  0  0  0  0  0  0  0  0  0  0
   20.4741   18.2504   18.4947 H   0  0  0  0  0  0  0  0  0  0  0  0
   19.5024   19.6827   17.8121 H   0  0  0  0  0  0  0  0  0  0  0  0
   19.2838   19.3192   19.8837 C   0  0  0  0  0  0  0  0  0  0  0  0
   18.5895   20.1451   20.0369 H   0  0  0  0  0  0  0  0  0  0  0  0
   19.6201   18.5127   21.1182 C   0  0  0  0  0  0  0  0  0  0  0  0
   20.1043   17.5683   20.8352 H   0  0  0  0  0  0  0  0  0  0  0  0
   18.6910   18.2511   21.6409 H   0  0  0  0  0  0  0  0  0  0  0  0
   20.5497   19.3065   22.0632 C   0  0  0  0  0  0  0  0  0  0  0  0
   21.4272   19.6450   21.4953 H   0  0  0  0  0  0  0  0  0  0  0  0
   20.0355   20.2148   22.4065 H   0  0  0  0  0  0  0  0  0  0  0  0
   21.0382   18.4868   23.2829 C   0  0  0  0  0  0  0  0  0  0  0  0
   21.7504   19.0963   23.8562 H   0  0  0  0  0  0  0  0  0  0  0  0
   21.5985   17.6108   22.9290 H   0  0  0  0  0  0  0  0  0  0  0  0
   19.9055   18.0158   24.2356 C   0  0  0  0  0  0  0  0  0  0  0  0
   19.2155   17.3429   23.7140 H   0  0  0  0  0  0  0  0  0  0  0  0
   20.3408   17.4365   25.0582 H   0  0  0  0  0  0  0  0  0  0  0  0
   19.1015   19.1538   24.8578 C   0  0  0  0  0  0  0  0  0  0  0  0
   19.6354   19.8295   25.7156 O   0  5  0  0  0  0  0  0  0  0  0  0
   17.9581   19.3237   24.4824 O   0  0  0  0  0  0  0  0  0  0  0  0
  1  2  1  0  0  0  0
  1  3  1  0  0  0  0
  1  4  2  0  0  0  0
  4  5  1  0  0  0  0
  4  6  1  0  0  0  0
  6  7  1  0  0  0  0
  6  8  1  0  0  0  0
  6  9  1  0  0  0  0
  9 10  1  0  0  0  0
  9 11  1  0  0  0  0
  9 12  1  0  0  0  0
 12 13  1  0  0  0  0
 12 14  1  0  0  0  0
 12 15  1  0  0  0  0
 15 16  1  0  0  0  0
 15 17  1  0  0  0  0
 15 18  1  0  0  0  0
 18 19  1  0  0  0  0
 18 20  2  0  0  0  0
M  END
> <VM2 Rank>
41

> <Conf_Id>
109

> <Probability>
0.18

> <Sum Probability>
98.54

> <Delta G>
2.567

> <G>
-19.322

> <E>
-34.706

> <-TS>
15.384

> <U+W>
-50.803

> <U>
10.196

> <W>
-60.999

> <W(PB)>
-63.181

> <W(SA)>
2.182

> <Valence>
9.837

> <Coulomb>
0.031

> <VdW>
0.328

> <VdW6>
-7.641

> <VdW12>
7.969

> <Bond>
0.151

> <Angle>
2.748

> <Pdih>
6.937

> <Idih>
0.001

> <Tether>
0.000

$$$$
VeraChem MOL file


 20 19  0  0  0  0  0  0  0  0999 V2000     
   20.5711   18.0501   19.4877 C   0  0  0  0  0  0  0  0  0  0  0  0
   21.1388   17.7236   20.3561 H   0  0  0  0  0  0  0  0  0  0  0  0
   20.6296   17.4255   18.5981 H   0  0  0  0  0  0  0  0  0  0  0  0
   19.8336   19.1662   19.4928 C   0  0  0  0  0  0  0  0  0  0  0  0
   19.2879   19.4436   18.5912 H   0  0  0  0  0  0  0  0  0  0  0  0
   19.6517   20.1328   20.6527 C   0  0  0  0  0  0  0  0  0  0  0  0
   18.6003   20.4480   20.6898 H   0  0  0  0  0  0  0  0  0  0  0  0
   20.2191   21.0479   20.4374 H   0  0  0  0  0  0  0  0  0  0  0  0
   20.0540   19.6039   22.0518 C   0  0  0  0  0  0  0  0  0  0  0  0
   21.0956   19.2569   22.0398 H   0  0  0  0  0  0  0  0  0  0  0  0
   20.0231   20.4428   22.7604 H   0  0  0  0  0  0  0  0  0  0  0  0
   19.1164   18.4834   22.5630 C   0  0  0  0  0  0  0  0  0  0  0  0
   19.1093   17.6511   21.8475 H   0  0  0  0  0  0  0  0  0  0  0  0
   18.0851   18.8588   22.6158 H   0  0  0  0  0  0  0  0  0  0  0  0
   19.5379   17.9427   23.9540 C   0  0  0  0  0  0  0  0  0  0  0  0
   18.9154   17.0788   24.2151 H   0  0  0  0  0  0  0  0  0  0  0  0
   20.5755   17.5888   23.9237 H   0  0  0  0  0  0  0  0  0  0  0  0
   19.4029   18.9606   25.0828 C   0  0  0  0  0  0  0  0  0  0  0  0
   20.4134   19.4813   25.5127 O   0  5  0  0  0  0  0  0  0  0  0  0
   18.2901   19.1970   25.5106 O   0  0  0  0  0  0  0  0  0  0  0  0
  1  2  1  0  0  0  0
  1  3  1  0  0  0  0
  1  4  2  0  0  0  0
  4  5  1  0  0  0  0
  4  6  1  0  0  0  0
  6  7  1  0  0  0  0
  6  8  1  0  0  0  0
  6  9  1  0  0  0  0
  9 10  1  0  0  0  0
  9 11  1  0  0  0  0
  9 12  1  0  0  0  0
 12 13  1  0  0  0  0
 12 14  1  0  0  0  0
 12 15  1  0  0  0  0
 15 16  1  0  0  0  0
 15 17  1  0  0  0  0
 15 18  1  0  0  0  0
 18 19  1  0  0  0  0
 18 20  2  0  0  0  0
M  END
> <VM2 Rank>
42

> <Conf_Id>
484

> <Probability>
0.18

> <Sum Probability>
98.71

> <Delta G>
2.596

> <G>
-19.294

> <E>
-35.039

> <-TS>
15.745

> <U+W>
-51.135

> <U>
9.738

> <W>
-60.873

> <W(PB)>
-63.019

> <W(SA)>
2.145

> <Valence>
9.029

> <Coulomb>
-0.282

> <VdW>
0.990

> <VdW6>
-8.096

> <VdW12>
9.086

> <Bond>
0.190

> <Angle>
3.359

> <Pdih>
5.480

> <Idih>
0.000

> <Tether>
0.000

$$$$
VeraChem MOL file


 20 19  0  0  0  0  0  0  0  0999 V2000     
   21.0533   18.5809   19.5490 C   0  0  0  0  0  0  0  0  0  0  0  0
   21.3351   17.9397   20.3812 H   0  0  0  0  0  0  0  0  0  0  0  0
   21.7779   18.6894   18.7439 H   0  0  0  0  0  0  0  0  0  0  0  0
   19.8744   19.2111   19.4979 C   0  0  0  0  0  0  0  0  0  0  0  0
   19.6472   19.8388   18.6367 H   0  0  0  0  0  0  0  0  0  0  0  0
   18.7684   19.1605   20.5405 C   0  0  0  0  0  0  0  0  0  0  0  0
   17.9466   18.5466   20.1489 H   0  0  0  0  0  0  0  0  0  0  0  0
   18.3453   20.1672   20.6574 H   0  0  0  0  0  0  0  0  0  0  0  0
   19.1727   18.6338   21.9399 C   0  0  0  0  0  0  0  0  0  0  0  0
   18.2597   18.5017   22.5365 H   0  0  0  0  0  0  0  0  0  0  0  0
   19.6235   17.6365   21.8528 H   0  0  0  0  0  0  0  0  0  0  0  0
   20.1257   19.5946   22.6913 C   0  0  0  0  0  0  0  0  0  0  0  0
   19.6432   20.5741   22.8139 H   0  0  0  0  0  0  0  0  0  0  0  0
   21.0290   19.7645   22.0914 H   0  0  0  0  0  0  0  0  0  0  0  0
   20.5446   19.0509   24.0819 C   0  0  0  0  0  0  0  0  0  0  0  0
   21.0039   18.0604   23.9781 H   0  0  0  0  0  0  0  0  0  0  0  0
   21.3048   19.7092   24.5187 H   0  0  0  0  0  0  0  0  0  0  0  0
   19.3962   18.9531   25.0820 C   0  0  0  0  0  0  0  0  0  0  0  0
   18.9358   17.8548   25.3248 O   0  5  0  0  0  0  0  0  0  0  0  0
   18.9998   19.9783   25.6007 O   0  0  0  0  0  0  0  0  0  0  0  0
  1  2  1  0  0  0  0
  1  3  1  0  0  0  0
  1  4  2  0  0  0  0
  4  5  1  0  0  0  0
  4  6  1  0  0  0  0
  6  7  1  0  0  0  0
  6  8  1  0  0  0  0
  6  9  1  0  0  0  0
  9 10  1  0  0  0  0
  9 11  1  0  0  0  0
  9 12  1  0  0  0  0
 12 13  1  0  0  0  0
 12 14  1  0  0  0  0
 12 15  1  0  0  0  0
 15 16  1  0  0  0  0
 15 17  1  0  0  0  0
 15 18  1  0  0  0  0
 18 19  1  0  0  0  0
 18 20  2  0  0  0  0
M  END
> <VM2 Rank>
43

> <Conf_Id>
69

> <Probability>
0.16

> <Sum Probability>
98.88

> <Delta G>
2.636

> <G>
-19.253

> <E>
-34.999

> <-TS>
15.745

> <U+W>
-51.095

> <U>
9.739

> <W>
-60.834

> <W(PB)>
-62.982

> <W(SA)>
2.148

> <Valence>
9.029

> <Coulomb>
-0.281

> <VdW>
0.990

> <VdW6>
-8.096

> <VdW12>
9.086

> <Bond>
0.190

> <Angle>
3.359

> <Pdih>
5.480

> <Idih>
0.000

> <Tether>
0.000

$$$$
VeraChem MOL file


 20 19  0  0  0  0  0  0  0  0999 V2000     
   19.8189   17.4133   19.5526 C   0  0  0  0  0  0  0  0  0  0  0  0
   20.2565   16.9352   18.6779 H   0  0  0  0  0  0  0  0  0  0  0  0
   19.2350   16.7880   20.2264 H   0  0  0  0  0  0  0  0  0  0  0  0
   19.9963   18.7157   19.7890 C   0  0  0  0  0  0  0  0  0  0  0  0
   20.5851   19.3245   19.1032 H   0  0  0  0  0  0  0  0  0  0  0  0
   19.4183   19.4471   20.9802 C   0  0  0  0  0  0  0  0  0  0  0  0
   18.6281   18.8405   21.4421 H   0  0  0  0  0  0  0  0  0  0  0  0
   18.9484   20.3812   20.6449 H   0  0  0  0  0  0  0  0  0  0  0  0
   20.5131   19.7606   22.0244 C   0  0  0  0  0  0  0  0  0  0  0  0
   20.9286   18.8200   22.4116 H   0  0  0  0  0  0  0  0  0  0  0  0
   21.3422   20.2817   21.5264 H   0  0  0  0  0  0  0  0  0  0  0  0
   20.0151   20.6385   23.1990 C   0  0  0  0  0  0  0  0  0  0  0  0
   19.6540   21.5982   22.8056 H   0  0  0  0  0  0  0  0  0  0  0  0
   20.8682   20.8746   23.8501 H   0  0  0  0  0  0  0  0  0  0  0  0
   18.8972   19.9880   24.0590 C   0  0  0  0  0  0  0  0  0  0  0  0
   18.6019   20.6817   24.8548 H   0  0  0  0  0  0  0  0  0  0  0  0
   17.9999   19.8085   23.4559 H   0  0  0  0  0  0  0  0  0  0  0  0
   19.3065   18.6788   24.7281 C   0  0  0  0  0  0  0  0  0  0  0  0
   20.1071   18.7286   25.6413 O   0  5  0  0  0  0  0  0  0  0  0  0
   18.7986   17.6474   24.3343 O   0  0  0  0  0  0  0  0  0  0  0  0
  1  2  1  0  0  0  0
  1  3  1  0  0  0  0
  1  4  2  0  0  0  0
  4  5  1  0  0  0  0
  4  6  1  0  0  0  0
  6  7  1  0  0  0  0
  6  8  1  0  0  0  0
  6  9  1  0  0  0  0
  9 10  1  0  0  0  0
  9 11  1  0  0  0  0
  9 12  1  0  0  0  0
 12 13  1  0  0  0  0
 12 14  1  0  0  0  0
 12 15  1  0  0  0  0
 15 16  1  0  0  0  0
 15 17  1  0  0  0  0
 15 18  1  0  0  0  0
 18 19  1  0  0  0  0
 18 20  2  0  0  0  0
M  END
> <VM2 Rank>
44

> <Conf_Id>
357

> <Probability>
0.14

> <Sum Probability>
99.02

> <Delta G>
2.726

> <G>
-19.163

> <E>
-34.521

> <-TS>
15.358

> <U+W>
-50.618

> <U>
11.125

> <W>
-61.743

> <W(PB)>
-63.911

> <W(SA)>
2.168

> <Valence>
9.852

> <Coulomb>
0.992

> <VdW>
0.281

> <VdW6>
-7.705

> <VdW12>
7.986

> <Bond>
0.153

> <Angle>
2.748

> <Pdih>
6.950

> <Idih>
0.001

> <Tether>
0.000

$$$$
VeraChem MOL file


 20 19  0  0  0  0  0  0  0  0999 V2000     
   21.1165   17.8045   19.7206 C   0  0  0  0  0  0  0  0  0  0  0  0
   21.7701   17.5524   20.5543 H   0  0  0  0  0  0  0  0  0  0  0  0
   21.2282   17.2280   18.8039 H   0  0  0  0  0  0  0  0  0  0  0  0
   20.2096   18.7801   19.8166 C   0  0  0  0  0  0  0  0  0  0  0  0
   19.5638   19.0166   18.9713 H   0  0  0  0  0  0  0  0  0  0  0  0
   19.9993   19.6225   21.0552 C   0  0  0  0  0  0  0  0  0  0  0  0
   19.9471   20.6826   20.7738 H   0  0  0  0  0  0  0  0  0  0  0  0
   20.8586   19.5135   21.7300 H   0  0  0  0  0  0  0  0  0  0  0  0
   18.7032   19.2148   21.7909 C   0  0  0  0  0  0  0  0  0  0  0  0
   17.8675   19.2337   21.0781 H   0  0  0  0  0  0  0  0  0  0  0  0
   18.7906   18.1751   22.1357 H   0  0  0  0  0  0  0  0  0  0  0  0
   18.3525   20.1370   22.9846 C   0  0  0  0  0  0  0  0  0  0  0  0
   17.3850   19.8238   23.4007 H   0  0  0  0  0  0  0  0  0  0  0  0
   18.2123   21.1634   22.6197 H   0  0  0  0  0  0  0  0  0  0  0  0
   19.4072   20.1419   24.1248 C   0  0  0  0  0  0  0  0  0  0  0  0
   20.3683   20.5232   23.7615 H   0  0  0  0  0  0  0  0  0  0  0  0
   19.0818   20.8264   24.9168 H   0  0  0  0  0  0  0  0  0  0  0  0
   19.6349   18.7779   24.7703 C   0  0  0  0  0  0  0  0  0  0  0  0
   20.6977   18.2204   24.5791 O   0  5  0  0  0  0  0  0  0  0  0  0
   18.7501   18.3190   25.4660 O   0  0  0  0  0  0  0  0  0  0  0  0
  1  2  1  0  0  0  0
  1  3  1  0  0  0  0
  1  4  2  0  0  0  0
  4  5  1  0  0  0  0
  4  6  1  0  0  0  0
  6  7  1  0  0  0  0
  6  8  1  0  0  0  0
  6  9  1  0  0  0  0
  9 10  1  0  0  0  0
  9 11  1  0  0  0  0
  9 12  1  0  0  0  0
 12 13  1  0  0  0  0
 12 14  1  0  0  0  0
 12 15  1  0  0  0  0
 15 16  1  0  0  0  0
 15 17  1  0  0  0  0
 15 18  1  0  0  0  0
 18 19  1  0  0  0  0
 18 20  2  0  0  0  0
M  END
> <VM2 Rank>
45

> <Conf_Id>
441

> <Probability>
0.14

> <Sum Probability>
99.16

> <Delta G>
2.743

> <G>
-19.147

> <E>
-34.505

> <-TS>
15.358

> <U+W>
-50.601

> <U>
11.126

> <W>
-61.727

> <W(PB)>
-63.877

> <W(SA)>
2.149

> <Valence>
9.852

> <Coulomb>
0.993

> <VdW>
0.281

> <VdW6>
-7.706

> <VdW12>
7.987

> <Bond>
0.153

> <Angle>
2.748

> <Pdih>
6.950

> <Idih>
0.001

> <Tether>
0.000

$$$$
VeraChem MOL file


 20 19  0  0  0  0  0  0  0  0999 V2000     
   19.7324   17.3114   20.1646 C   0  0  0  0  0  0  0  0  0  0  0  0
   18.6499   17.2075   20.2175 H   0  0  0  0  0  0  0  0  0  0  0  0
   20.3193   16.3993   20.0713 H   0  0  0  0  0  0  0  0  0  0  0  0
   20.3216   18.5092   20.2151 C   0  0  0  0  0  0  0  0  0  0  0  0
   21.4070   18.5891   20.1612 H   0  0  0  0  0  0  0  0  0  0  0  0
   19.5752   19.8205   20.3440 C   0  0  0  0  0  0  0  0  0  0  0  0
   18.4901   19.6559   20.3861 H   0  0  0  0  0  0  0  0  0  0  0  0
   19.7617   20.4072   19.4347 H   0  0  0  0  0  0  0  0  0  0  0  0
   20.0294   20.6681   21.5582 C   0  0  0  0  0  0  0  0  0  0  0  0
   21.1258   20.6689   21.6280 H   0  0  0  0  0  0  0  0  0  0  0  0
   19.7398   21.7107   21.3680 H   0  0  0  0  0  0  0  0  0  0  0  0
   19.4094   20.2514   22.9156 C   0  0  0  0  0  0  0  0  0  0  0  0
   18.3135   20.2441   22.8387 H   0  0  0  0  0  0  0  0  0  0  0  0
   19.6603   21.0199   23.6598 H   0  0  0  0  0  0  0  0  0  0  0  0
   19.8998   18.8800   23.4458 C   0  0  0  0  0  0  0  0  0  0  0  0
   19.5374   18.0695   22.8056 H   0  0  0  0  0  0  0  0  0  0  0  0
   20.9954   18.8389   23.4381 H   0  0  0  0  0  0  0  0  0  0  0  0
   19.4237   18.5914   24.8649 C   0  0  0  0  0  0  0  0  0  0  0  0
   20.1409   18.9219   25.7886 O   0  5  0  0  0  0  0  0  0  0  0  0
   18.3385   18.0642   25.0112 O   0  0  0  0  0  0  0  0  0  0  0  0
  1  2  1  0  0  0  0
  1  3  1  0  0  0  0
  1  4  2  0  0  0  0
  4  5  1  0  0  0  0
  4  6  1  0  0  0  0
  6  7  1  0  0  0  0
  6  8  1  0  0  0  0
  6  9  1  0  0  0  0
  9 10  1  0  0  0  0
  9 11  1  0  0  0  0
  9 12  1  0  0  0  0
 12 13  1  0  0  0  0
 12 14  1  0  0  0  0
 12 15  1  0  0  0  0
 15 16  1  0  0  0  0
 15 17  1  0  0  0  0
 15 18  1  0  0  0  0
 18 19  1  0  0  0  0
 18 20  2  0  0  0  0
M  END
> <VM2 Rank>
46

> <Conf_Id>
197

> <Probability>
0.11

> <Sum Probability>
99.27

> <Delta G>
2.873

> <G>
-19.016

> <E>
-34.233

> <-TS>
15.216

> <U+W>
-50.329

> <U>
11.028

> <W>
-61.357

> <W(PB)>
-63.524

> <W(SA)>
2.167

> <Valence>
11.008

> <Coulomb>
-0.464

> <VdW>
0.484

> <VdW6>
-7.638

> <VdW12>
8.122

> <Bond>
0.158

> <Angle>
3.060

> <Pdih>
7.789

> <Idih>
0.001

> <Tether>
0.000

$$$$
VeraChem MOL file


 20 19  0  0  0  0  0  0  0  0999 V2000     
   18.8640   17.7055   20.0561 C   0  0  0  0  0  0  0  0  0  0  0  0
   19.4659   16.8373   20.3193 H   0  0  0  0  0  0  0  0  0  0  0  0
   17.8314   17.5284   19.7605 H   0  0  0  0  0  0  0  0  0  0  0  0
   19.3681   18.9419   20.0960 C   0  0  0  0  0  0  0  0  0  0  0  0
   18.7468   19.7963   19.8290 H   0  0  0  0  0  0  0  0  0  0  0  0
   20.7918   19.2684   20.4959 C   0  0  0  0  0  0  0  0  0  0  0  0
   21.2947   19.7116   19.6261 H   0  0  0  0  0  0  0  0  0  0  0  0
   21.3524   18.3570   20.7434 H   0  0  0  0  0  0  0  0  0  0  0  0
   20.8839   20.2803   21.6650 C   0  0  0  0  0  0  0  0  0  0  0  0
   21.8820   20.7383   21.6357 H   0  0  0  0  0  0  0  0  0  0  0  0
   20.1716   21.1020   21.5089 H   0  0  0  0  0  0  0  0  0  0  0  0
   20.6915   19.6692   23.0758 C   0  0  0  0  0  0  0  0  0  0  0  0
   20.9509   20.4339   23.8211 H   0  0  0  0  0  0  0  0  0  0  0  0
   21.3998   18.8426   23.2240 H   0  0  0  0  0  0  0  0  0  0  0  0
   19.2514   19.1745   23.3649 C   0  0  0  0  0  0  0  0  0  0  0  0
   18.5246   19.9611   23.1299 H   0  0  0  0  0  0  0  0  0  0  0  0
   19.0105   18.3090   22.7397 H   0  0  0  0  0  0  0  0  0  0  0  0
   19.0501   18.7609   24.8182 C   0  0  0  0  0  0  0  0  0  0  0  0
   18.6516   19.5989   25.6029 O   0  5  0  0  0  0  0  0  0  0  0  0
   19.3187   17.6183   25.1333 O   0  0  0  0  0  0  0  0  0  0  0  0
  1  2  1  0  0  0  0
  1  3  1  0  0  0  0
  1  4  2  0  0  0  0
  4  5  1  0  0  0  0
  4  6  1  0  0  0  0
  6  7  1  0  0  0  0
  6  8  1  0  0  0  0
  6  9  1  0  0  0  0
  9 10  1  0  0  0  0
  9 11  1  0  0  0  0
  9 12  1  0  0  0  0
 12 13  1  0  0  0  0
 12 14  1  0  0  0  0
 12 15  1  0  0  0  0
 15 16  1  0  0  0  0
 15 17  1  0  0  0  0
 15 18  1  0  0  0  0
 18 19  1  0  0  0  0
 18 20  2  0  0  0  0
M  END
> <VM2 Rank>
47

> <Conf_Id>
731

> <Probability>
0.11

> <Sum Probability>
99.38

> <Delta G>
2.877

> <G>
-19.013

> <E>
-34.229

> <-TS>
15.216

> <U+W>
-50.326

> <U>
11.028

> <W>
-61.354

> <W(PB)>
-63.504

> <W(SA)>
2.150

> <Valence>
11.007

> <Coulomb>
-0.463

> <VdW>
0.484

> <VdW6>
-7.638

> <VdW12>
8.122

> <Bond>
0.158

> <Angle>
3.060

> <Pdih>
7.789

> <Idih>
0.001

> <Tether>
0.000

$$$$
VeraChem MOL file


 20 19  0  0  0  0  0  0  0  0999 V2000     
   21.3395   19.7202   20.5986 C   0  0  0  0  0  0  0  0  0  0  0  0
   22.3404   19.8462   20.1898 H   0  0  0  0  0  0  0  0  0  0  0  0
   21.1807   20.0552   21.6216 H   0  0  0  0  0  0  0  0  0  0  0  0
   20.3627   19.1789   19.8620 C   0  0  0  0  0  0  0  0  0  0  0  0
   20.5827   18.8634   18.8424 H   0  0  0  0  0  0  0  0  0  0  0  0
   18.9240   18.9361   20.2914 C   0  0  0  0  0  0  0  0  0  0  0  0
   18.6088   17.9467   19.9338 H   0  0  0  0  0  0  0  0  0  0  0  0
   18.2778   19.6515   19.7657 H   0  0  0  0  0  0  0  0  0  0  0  0
   18.6421   19.0233   21.8118 C   0  0  0  0  0  0  0  0  0  0  0  0
   18.9754   19.9952   22.1993 H   0  0  0  0  0  0  0  0  0  0  0  0
   17.5552   18.9924   21.9677 H   0  0  0  0  0  0  0  0  0  0  0  0
   19.2892   17.8659   22.6104 C   0  0  0  0  0  0  0  0  0  0  0  0
   20.3771   17.8619   22.4618 H   0  0  0  0  0  0  0  0  0  0  0  0
   18.9174   16.9082   22.2223 H   0  0  0  0  0  0  0  0  0  0  0  0
   18.9837   17.9478   24.1284 C   0  0  0  0  0  0  0  0  0  0  0  0
   17.9004   17.9775   24.2966 H   0  0  0  0  0  0  0  0  0  0  0  0
   19.3581   17.0458   24.6267 H   0  0  0  0  0  0  0  0  0  0  0  0
   19.6182   19.1498   24.8224 C   0  0  0  0  0  0  0  0  0  0  0  0
   20.8074   19.1066   25.0693 O   0  5  0  0  0  0  0  0  0  0  0  0
   18.9042   20.0893   25.1136 O   0  0  0  0  0  0  0  0  0  0  0  0
  1  2  1  0  0  0  0
  1  3  1  0  0  0  0
  1  4  2  0  0  0  0
  4  5  1  0  0  0  0
  4  6  1  0  0  0  0
  6  7  1  0  0  0  0
  6  8  1  0  0  0  0
  6  9  1  0  0  0  0
  9 10  1  0  0  0  0
  9 11  1  0  0  0  0
  9 12  1  0  0  0  0
 12 13  1  0  0  0  0
 12 14  1  0  0  0  0
 12 15  1  0  0  0  0
 15 16  1  0  0  0  0
 15 17  1  0  0  0  0
 15 18  1  0  0  0  0
 18 19  1  0  0  0  0
 18 20  2  0  0  0  0
M  END
> <VM2 Rank>
48

> <Conf_Id>
318

> <Probability>
0.10

> <Sum Probability>
99.48

> <Delta G>
2.909

> <G>
-18.980

> <E>
-34.808

> <-TS>
15.828

> <U+W>
-50.905

> <U>
11.075

> <W>
-61.980

> <W(PB)>
-64.111

> <W(SA)>
2.131

> <Valence>
8.972

> <Coulomb>
1.262

> <VdW>
0.841

> <VdW6>
-8.354

> <VdW12>
9.195

> <Bond>
0.189

> <Angle>
3.355

> <Pdih>
5.428

> <Idih>
0.001

> <Tether>
0.000

$$$$
VeraChem MOL file


 20 19  0  0  0  0  0  0  0  0999 V2000     
   18.3913   18.8326   20.2185 C   0  0  0  0  0  0  0  0  0  0  0  0
   17.6110   18.4225   19.5799 H   0  0  0  0  0  0  0  0  0  0  0  0
   18.0989   19.1275   21.2242 H   0  0  0  0  0  0  0  0  0  0  0  0
   19.6447   18.9627   19.7694 C   0  0  0  0  0  0  0  0  0  0  0  0
   19.8765   18.6509   18.7513 H   0  0  0  0  0  0  0  0  0  0  0  0
   20.8367   19.5119   20.5381 C   0  0  0  0  0  0  0  0  0  0  0  0
   21.0911   20.4985   20.1285 H   0  0  0  0  0  0  0  0  0  0  0  0
   21.7121   18.8810   20.3341 H   0  0  0  0  0  0  0  0  0  0  0  0
   20.6624   19.6315   22.0724 C   0  0  0  0  0  0  0  0  0  0  0  0
   21.5192   20.1858   22.4789 H   0  0  0  0  0  0  0  0  0  0  0  0
   19.7749   20.2360   22.3024 H   0  0  0  0  0  0  0  0  0  0  0  0
   20.5841   18.2558   22.7775 C   0  0  0  0  0  0  0  0  0  0  0  0
   21.4951   17.6843   22.5548 H   0  0  0  0  0  0  0  0  0  0  0  0
   19.7438   17.6712   22.3801 H   0  0  0  0  0  0  0  0  0  0  0  0
   20.4321   18.3839   24.3152 C   0  0  0  0  0  0  0  0  0  0  0  0
   20.5047   17.3912   24.7746 H   0  0  0  0  0  0  0  0  0  0  0  0
   21.2501   18.9862   24.7286 H   0  0  0  0  0  0  0  0  0  0  0  0
   19.1052   18.9954   24.7562 C   0  0  0  0  0  0  0  0  0  0  0  0
   19.1020   20.1490   25.1388 O   0  5  0  0  0  0  0  0  0  0  0  0
   18.1125   18.2951   24.7219 O   0  0  0  0  0  0  0  0  0  0  0  0
  1  2  1  0  0  0  0
  1  3  1  0  0  0  0
  1  4  2  0  0  0  0
  4  5  1  0  0  0  0
  4  6  1  0  0  0  0
  6  7  1  0  0  0  0
  6  8  1  0  0  0  0
  6  9  1  0  0  0  0
  9 10  1  0  0  0  0
  9 11  1  0  0  0  0
  9 12  1  0  0  0  0
 12 13  1  0  0  0  0
 12 14  1  0  0  0  0
 12 15  1  0  0  0  0
 15 16  1  0  0  0  0
 15 17  1  0  0  0  0
 15 18  1  0  0  0  0
 18 19  1  0  0  0  0
 18 20  2  0  0  0  0
M  END
> <VM2 Rank>
49

> <Conf_Id>
736

> <Probability>
0.10

> <Sum Probability>
99.58

> <Delta G>
2.928

> <G>
-18.961

> <E>
-34.790

> <-TS>
15.828

> <U+W>
-50.886

> <U>
11.075

> <W>
-61.962

> <W(PB)>
-64.098

> <W(SA)>
2.136

> <Valence>
8.972

> <Coulomb>
1.262

> <VdW>
0.841

> <VdW6>
-8.354

> <VdW12>
9.195

> <Bond>
0.189

> <Angle>
3.355

> <Pdih>
5.428

> <Idih>
0.001

> <Tether>
0.000

$$$$
VeraChem MOL file


 20 19  0  0  0  0  0  0  0  0999 V2000     
   19.9934   18.6780   18.8431 C   0  0  0  0  0  0  0  0  0  0  0  0
   19.8282   19.6707   18.4274 H   0  0  0  0  0  0  0  0  0  0  0  0
   20.4028   17.9185   18.1794 H   0  0  0  0  0  0  0  0  0  0  0  0
   19.7091   18.3998   20.1180 C   0  0  0  0  0  0  0  0  0  0  0  0
   19.8798   17.3990   20.5138 H   0  0  0  0  0  0  0  0  0  0  0  0
   19.1338   19.4011   21.0968 C   0  0  0  0  0  0  0  0  0  0  0  0
   18.3169   18.9423   21.6687 H   0  0  0  0  0  0  0  0  0  0  0  0
   18.6812   20.2376   20.5475 H   0  0  0  0  0  0  0  0  0  0  0  0
   20.2040   19.9681   22.0600 C   0  0  0  0  0  0  0  0  0  0  0  0
   20.9653   20.4973   21.4707 H   0  0  0  0  0  0  0  0  0  0  0  0
   19.7373   20.7258   22.7043 H   0  0  0  0  0  0  0  0  0  0  0  0
   20.9067   18.9069   22.9455 C   0  0  0  0  0  0  0  0  0  0  0  0
   21.6606   19.4102   23.5665 H   0  0  0  0  0  0  0  0  0  0  0  0
   21.4592   18.2048   22.3072 H   0  0  0  0  0  0  0  0  0  0  0  0
   19.9504   18.1085   23.8730 C   0  0  0  0  0  0  0  0  0  0  0  0
   19.2300   17.5325   23.2811 H   0  0  0  0  0  0  0  0  0  0  0  0
   20.5301   17.3795   24.4510 H   0  0  0  0  0  0  0  0  0  0  0  0
   19.1840   18.9730   24.8699 C   0  0  0  0  0  0  0  0  0  0  0  0
   19.7973   19.4473   25.8061 O   0  5  0  0  0  0  0  0  0  0  0  0
   17.9922   19.1351   24.6955 O   0  0  0  0  0  0  0  0  0  0  0  0
  1  2  1  0  0  0  0
  1  3  1  0  0  0  0
  1  4  2  0  0  0  0
  4  5  1  0  0  0  0
  4  6  1  0  0  0  0
  6  7  1  0  0  0  0
  6  8  1  0  0  0  0
  6  9  1  0  0  0  0
  9 10  1  0  0  0  0
  9 11  1  0  0  0  0
  9 12  1  0  0  0  0
 12 13  1  0  0  0  0
 12 14  1  0  0  0  0
 12 15  1  0  0  0  0
 15 16  1  0  0  0  0
 15 17  1  0  0  0  0
 15 18  1  0  0  0  0
 18 19  1  0  0  0  0
 18 20  2  0  0  0  0
M  END
> <VM2 Rank>
50

> <Conf_Id>
477

> <Probability>
0.07

> <Sum Probability>
99.65

> <Delta G>
3.140

> <G>
-18.749

> <E>
-34.408

> <-TS>
15.659

> <U+W>
-50.505

> <U>
10.403

> <W>
-60.907

> <W(PB)>
-63.052

> <W(SA)>
2.145

> <Valence>
10.022

> <Coulomb>
0.092

> <VdW>
0.289

> <VdW6>
-8.408

> <VdW12>
8.697

> <Bond>
0.179

> <Angle>
2.939

> <Pdih>
6.902

> <Idih>
0.001

> <Tether>
0.000

$$$$
VeraChem MOL file


 20 19  0  0  0  0  0  0  0  0999 V2000     
   20.4525   18.8164   18.9024 C   0  0  0  0  0  0  0  0  0  0  0  0
   20.6907   18.0052   18.2165 H   0  0  0  0  0  0  0  0  0  0  0  0
   20.1420   19.7653   18.4680 H   0  0  0  0  0  0  0  0  0  0  0  0
   20.5361   18.6491   20.2248 C   0  0  0  0  0  0  0  0  0  0  0  0
   20.8513   17.6919   20.6391 H   0  0  0  0  0  0  0  0  0  0  0  0
   20.2266   19.7305   21.2378 C   0  0  0  0  0  0  0  0  0  0  0  0
   20.2640   20.7147   20.7517 H   0  0  0  0  0  0  0  0  0  0  0  0
   21.0015   19.7515   22.0150 H   0  0  0  0  0  0  0  0  0  0  0  0
   18.8311   19.5543   21.8829 C   0  0  0  0  0  0  0  0  0  0  0  0
   18.6447   20.3965   22.5634 H   0  0  0  0  0  0  0  0  0  0  0  0
   18.0669   19.6236   21.0968 H   0  0  0  0  0  0  0  0  0  0  0  0
   18.6362   18.2225   22.6526 C   0  0  0  0  0  0  0  0  0  0  0  0
   18.7219   17.3797   21.9541 H   0  0  0  0  0  0  0  0  0  0  0  0
   17.6101   18.1893   23.0440 H   0  0  0  0  0  0  0  0  0  0  0  0
   19.6255   18.0106   23.8311 C   0  0  0  0  0  0  0  0  0  0  0  0
   19.4204   17.0451   24.3079 H   0  0  0  0  0  0  0  0  0  0  0  0
   20.6574   17.9628   23.4652 H   0  0  0  0  0  0  0  0  0  0  0  0
   19.5402   19.0804   24.9159 C   0  0  0  0  0  0  0  0  0  0  0  0
   20.4531   19.8768   25.0130 O   0  5  0  0  0  0  0  0  0  0  0  0
   18.5697   19.0774   25.6476 O   0  0  0  0  0  0  0  0  0  0  0  0
  1  2  1  0  0  0  0
  1  3  1  0  0  0  0
  1  4  2  0  0  0  0
  4  5  1  0  0  0  0
  4  6  1  0  0  0  0
  6  7  1  0  0  0  0
  6  8  1  0  0  0  0
  6  9  1  0  0  0  0
  9 10  1  0  0  0  0
  9 11  1  0  0  0  0
  9 12  1  0  0  0  0
 12 13  1  0  0  0  0
 12 14  1  0  0  0  0
 12 15  1  0  0  0  0
 15 16  1  0  0  0  0
 15 17  1  0  0  0  0
 15 18  1  0  0  0  0
 18 19  1  0  0  0  0
 18 20  2  0  0  0  0
M  END
> <VM2 Rank>
51

> <Conf_Id>
285

> <Probability>
0.07

> <Sum Probability>
99.72

> <Delta G>
3.153

> <G>
-18.737

> <E>
-34.396

> <-TS>
15.659

> <U+W>
-50.492

> <U>
10.403

> <W>
-60.895

> <W(PB)>
-63.043

> <W(SA)>
2.148

> <Valence>
10.022

> <Coulomb>
0.092

> <VdW>
0.289

> <VdW6>
-8.408

> <VdW12>
8.697

> <Bond>
0.179

> <Angle>
2.939

> <Pdih>
6.902

> <Idih>
0.001

> <Tether>
0.000

$$$$
VeraChem MOL file


 20 19  0  0  0  0  0  0  0  0999 V2000     
   20.8984   17.9490   19.8831 C   0  0  0  0  0  0  0  0  0  0  0  0
   21.5627   17.6442   20.6899 H   0  0  0  0  0  0  0  0  0  0  0  0
   20.8565   17.3126   19.0009 H   0  0  0  0  0  0  0  0  0  0  0  0
   20.1595   19.0583   19.9697 C   0  0  0  0  0  0  0  0  0  0  0  0
   19.4991   19.3444   19.1516 H   0  0  0  0  0  0  0  0  0  0  0  0
   20.1629   19.9907   21.1625 C   0  0  0  0  0  0  0  0  0  0  0  0
   20.3570   21.0141   20.8153 H   0  0  0  0  0  0  0  0  0  0  0  0
   20.9843   19.7441   21.8480 H   0  0  0  0  0  0  0  0  0  0  0  0
   18.8167   19.9762   21.9254 C   0  0  0  0  0  0  0  0  0  0  0  0
   18.8567   20.7181   22.7347 H   0  0  0  0  0  0  0  0  0  0  0  0
   18.0201   20.3099   21.2466 H   0  0  0  0  0  0  0  0  0  0  0  0
   18.4257   18.5963   22.5142 C   0  0  0  0  0  0  0  0  0  0  0  0
   18.3118   17.8699   21.6984 H   0  0  0  0  0  0  0  0  0  0  0  0
   17.4378   18.6815   22.9874 H   0  0  0  0  0  0  0  0  0  0  0  0
   19.4309   18.0354   23.5569 C   0  0  0  0  0  0  0  0  0  0  0  0
   19.0827   17.0567   23.9067 H   0  0  0  0  0  0  0  0  0  0  0  0
   20.4113   17.8692   23.0965 H   0  0  0  0  0  0  0  0  0  0  0  0
   19.6119   18.9202   24.7867 C   0  0  0  0  0  0  0  0  0  0  0  0
   20.6591   19.5240   24.9136 O   0  5  0  0  0  0  0  0  0  0  0  0
   18.7061   18.9679   25.5958 O   0  0  0  0  0  0  0  0  0  0  0  0
  1  2  1  0  0  0  0
  1  3  1  0  0  0  0
  1  4  2  0  0  0  0
  4  5  1  0  0  0  0
  4  6  1  0  0  0  0
  6  7  1  0  0  0  0
  6  8  1  0  0  0  0
  6  9  1  0  0  0  0
  9 10  1  0  0  0  0
  9 11  1  0  0  0  0
  9 12  1  0  0  0  0
 12 13  1  0  0  0  0
 12 14  1  0  0  0  0
 12 15  1  0  0  0  0
 15 16  1  0  0  0  0
 15 17  1  0  0  0  0
 15 18  1  0  0  0  0
 18 19  1  0  0  0  0
 18 20  2  0  0  0  0
M  END
> <VM2 Rank>
52

> <Conf_Id>
718

> <Probability>
0.05

> <Sum Probability>
99.77

> <Delta G>
3.305

> <G>
-18.585

> <E>
-34.368

> <-TS>
15.783

> <U+W>
-50.464

> <U>
10.910

> <W>
-61.374

> <W(PB)>
-63.513

> <W(SA)>
2.139

> <Valence>
9.972

> <Coulomb>
0.850

> <VdW>
0.088

> <VdW6>
-8.717

> <VdW12>
8.804

> <Bond>
0.178

> <Angle>
2.916

> <Pdih>
6.877

> <Idih>
0.001

> <Tether>
0.000

$$$$
VeraChem MOL file


 20 19  0  0  0  0  0  0  0  0999 V2000     
   20.5594   17.9885   19.1711 C   0  0  0  0  0  0  0  0  0  0  0  0
   21.5961   17.9339   19.4994 H   0  0  0  0  0  0  0  0  0  0  0  0
   20.3507   17.7520   18.1291 H   0  0  0  0  0  0  0  0  0  0  0  0
   19.5794   18.3340   20.0101 C   0  0  0  0  0  0  0  0  0  0  0  0
   18.5480   18.3834   19.6615 H   0  0  0  0  0  0  0  0  0  0  0  0
   19.7923   18.6747   21.4684 C   0  0  0  0  0  0  0  0  0  0  0  0
   20.7908   18.3517   21.7932 H   0  0  0  0  0  0  0  0  0  0  0  0
   19.0659   18.1198   22.0745 H   0  0  0  0  0  0  0  0  0  0  0  0
   19.6351   20.1919   21.7123 C   0  0  0  0  0  0  0  0  0  0  0  0
   20.2669   20.7280   20.9906 H   0  0  0  0  0  0  0  0  0  0  0  0
   18.6006   20.4944   21.5000 H   0  0  0  0  0  0  0  0  0  0  0  0
   20.0329   20.6496   23.1377 C   0  0  0  0  0  0  0  0  0  0  0  0
   20.0196   21.7478   23.1524 H   0  0  0  0  0  0  0  0  0  0  0  0
   21.0705   20.3574   23.3514 H   0  0  0  0  0  0  0  0  0  0  0  0
   19.0959   20.1430   24.2700 C   0  0  0  0  0  0  0  0  0  0  0  0
   19.2371   20.7704   25.1576 H   0  0  0  0  0  0  0  0  0  0  0  0
   18.0461   20.2526   23.9719 H   0  0  0  0  0  0  0  0  0  0  0  0
   19.3366   18.7030   24.7189 C   0  0  0  0  0  0  0  0  0  0  0  0
   20.4372   18.4067   25.1413 O   0  5  0  0  0  0  0  0  0  0  0  0
   18.4023   17.9267   24.6782 O   0  0  0  0  0  0  0  0  0  0  0  0
  1  2  1  0  0  0  0
  1  3  1  0  0  0  0
  1  4  2  0  0  0  0
  4  5  1  0  0  0  0
  4  6  1  0  0  0  0
  6  7  1  0  0  0  0
  6  8  1  0  0  0  0
  6  9  1  0  0  0  0
  9 10  1  0  0  0  0
  9 11  1  0  0  0  0
  9 12  1  0  0  0  0
 12 13  1  0  0  0  0
 12 14  1  0  0  0  0
 12 15  1  0  0  0  0
 15 16  1  0  0  0  0
 15 17  1  0  0  0  0
 15 18  1  0  0  0  0
 18 19  1  0  0  0  0
 18 20  2  0  0  0  0
M  END
> <VM2 Rank>
53

> <Conf_Id>
121

> <Probability>
0.03

> <Sum Probability>
99.80

> <Delta G>
3.646

> <G>
-18.244

> <E>
-33.768

> <-TS>
15.524

> <U+W>
-49.864

> <U>
11.756

> <W>
-61.620

> <W(PB)>
-63.781

> <W(SA)>
2.162

> <Valence>
10.982

> <Coulomb>
0.363

> <VdW>
0.411

> <VdW6>
-8.036

> <VdW12>
8.447

> <Bond>
0.168

> <Angle>
3.178

> <Pdih>
7.632

> <Idih>
0.005

> <Tether>
0.000

$$$$
VeraChem MOL file


 20 19  0  0  0  0  0  0  0  0999 V2000     
   20.1312   19.8871   19.0545 C   0  0  0  0  0  0  0  0  0  0  0  0
   19.8691   19.8883   17.9979 H   0  0  0  0  0  0  0  0  0  0  0  0
   21.0357   20.4181   19.3471 H   0  0  0  0  0  0  0  0  0  0  0  0
   19.3716   19.2557   19.9534 C   0  0  0  0  0  0  0  0  0  0  0  0
   18.4704   18.7292   19.6399 H   0  0  0  0  0  0  0  0  0  0  0  0
   19.6711   19.2114   21.4353 C   0  0  0  0  0  0  0  0  0  0  0  0
   18.7613   19.4685   21.9914 H   0  0  0  0  0  0  0  0  0  0  0  0
   20.4264   19.9659   21.6941 H   0  0  0  0  0  0  0  0  0  0  0  0
   20.1717   17.8127   21.8586 C   0  0  0  0  0  0  0  0  0  0  0  0
   19.3721   17.0742   21.7101 H   0  0  0  0  0  0  0  0  0  0  0  0
   20.9910   17.5184   21.1880 H   0  0  0  0  0  0  0  0  0  0  0  0
   20.6894   17.7388   23.3167 C   0  0  0  0  0  0  0  0  0  0  0  0
   21.4963   18.4694   23.4675 H   0  0  0  0  0  0  0  0  0  0  0  0
   21.1466   16.7504   23.4598 H   0  0  0  0  0  0  0  0  0  0  0  0
   19.5961   17.9243   24.4063 C   0  0  0  0  0  0  0  0  0  0  0  0
   18.7024   17.3424   24.1507 H   0  0  0  0  0  0  0  0  0  0  0  0
   19.9686   17.5257   25.3570 H   0  0  0  0  0  0  0  0  0  0  0  0
   19.1861   19.3703   24.6777 C   0  0  0  0  0  0  0  0  0  0  0  0
   20.0427   20.1558   25.0339 O   0  5  0  0  0  0  0  0  0  0  0  0
   18.0110   19.6620   24.5716 O   0  0  0  0  0  0  0  0  0  0  0  0
  1  2  1  0  0  0  0
  1  3  1  0  0  0  0
  1  4  2  0  0  0  0
  4  5  1  0  0  0  0
  4  6  1  0  0  0  0
  6  7  1  0  0  0  0
  6  8  1  0  0  0  0
  6  9  1  0  0  0  0
  9 10  1  0  0  0  0
  9 11  1  0  0  0  0
  9 12  1  0  0  0  0
 12 13  1  0  0  0  0
 12 14  1  0  0  0  0
 12 15  1  0  0  0  0
 15 16  1  0  0  0  0
 15 17  1  0  0  0  0
 15 18  1  0  0  0  0
 18 19  1  0  0  0  0
 18 20  2  0  0  0  0
M  END
> <VM2 Rank>
54

> <Conf_Id>
189

> <Probability>
0.03

> <Sum Probability>
99.83

> <Delta G>
3.701

> <G>
-18.189

> <E>
-33.713

> <-TS>
15.524

> <U+W>
-49.809

> <U>
11.755

> <W>
-61.564

> <W(PB)>
-63.745

> <W(SA)>
2.181

> <Valence>
10.982

> <Coulomb>
0.362

> <VdW>
0.411

> <VdW6>
-8.036

> <VdW12>
8.447

> <Bond>
0.168

> <Angle>
3.178

> <Pdih>
7.632

> <Idih>
0.005

> <Tether>
0.000

$$$$
VeraChem MOL file


 20 19  0  0  0  0  0  0  0  0999 V2000     
   20.6249   19.0761   19.1350 C   0  0  0  0  0  0  0  0  0  0  0  0
   20.9757   19.4764   18.1853 H   0  0  0  0  0  0  0  0  0  0  0  0
   20.6639   17.9958   19.2569 H   0  0  0  0  0  0  0  0  0  0  0  0
   20.1751   19.8914   20.0957 C   0  0  0  0  0  0  0  0  0  0  0  0
   20.1626   20.9661   19.9159 H   0  0  0  0  0  0  0  0  0  0  0  0
   19.6540   19.4833   21.4637 C   0  0  0  0  0  0  0  0  0  0  0  0
   18.6781   19.9604   21.6255 H   0  0  0  0  0  0  0  0  0  0  0  0
   20.3217   19.9040   22.2252 H   0  0  0  0  0  0  0  0  0  0  0  0
   19.5084   17.9568   21.6778 C   0  0  0  0  0  0  0  0  0  0  0  0
   18.9238   17.5392   20.8468 H   0  0  0  0  0  0  0  0  0  0  0  0
   20.4977   17.4810   21.6362 H   0  0  0  0  0  0  0  0  0  0  0  0
   18.8007   17.5677   22.9999 C   0  0  0  0  0  0  0  0  0  0  0  0
   18.6267   16.4834   22.9789 H   0  0  0  0  0  0  0  0  0  0  0  0
   17.8056   18.0318   23.0457 H   0  0  0  0  0  0  0  0  0  0  0  0
   19.6005   17.8996   24.2912 C   0  0  0  0  0  0  0  0  0  0  0  0
   19.2115   17.2935   25.1175 H   0  0  0  0  0  0  0  0  0  0  0  0
   20.6543   17.6220   24.1675 H   0  0  0  0  0  0  0  0  0  0  0  0
   19.5209   19.3539   24.7514 C   0  0  0  0  0  0  0  0  0  0  0  0
   20.5609   19.9633   24.9067 O   0  5  0  0  0  0  0  0  0  0  0  0
   18.4256   19.8259   24.9865 O   0  0  0  0  0  0  0  0  0  0  0  0
  1  2  1  0  0  0  0
  1  3  1  0  0  0  0
  1  4  2  0  0  0  0
  4  5  1  0  0  0  0
  4  6  1  0  0  0  0
  6  7  1  0  0  0  0
  6  8  1  0  0  0  0
  6  9  1  0  0  0  0
  9 10  1  0  0  0  0
  9 11  1  0  0  0  0
  9 12  1  0  0  0  0
 12 13  1  0  0  0  0
 12 14  1  0  0  0  0
 12 15  1  0  0  0  0
 15 16  1  0  0  0  0
 15 17  1  0  0  0  0
 15 18  1  0  0  0  0
 18 19  1  0  0  0  0
 18 20  2  0  0  0  0
M  END
> <VM2 Rank>
55

> <Conf_Id>
455

> <Probability>
0.03

> <Sum Probability>
99.86

> <Delta G>
3.742

> <G>
-18.148

> <E>
-34.009

> <-TS>
15.861

> <U+W>
-50.106

> <U>
11.478

> <W>
-61.583

> <W(PB)>
-63.742

> <W(SA)>
2.159

> <Valence>
9.964

> <Coulomb>
0.355

> <VdW>
1.159

> <VdW6>
-8.702

> <VdW12>
9.861

> <Bond>
0.227

> <Angle>
3.805

> <Pdih>
5.927

> <Idih>
0.004

> <Tether>
0.000

$$$$
VeraChem MOL file


 20 19  0  0  0  0  0  0  0  0999 V2000     
   18.7445   18.6779   19.2642 C   0  0  0  0  0  0  0  0  0  0  0  0
   18.7035   18.6702   18.1763 H   0  0  0  0  0  0  0  0  0  0  0  0
   17.9958   18.0947   19.7982 H   0  0  0  0  0  0  0  0  0  0  0  0
   19.6795   19.3750   19.9149 C   0  0  0  0  0  0  0  0  0  0  0  0
   20.4200   19.9523   19.3619 H   0  0  0  0  0  0  0  0  0  0  0  0
   19.7975   19.4345   21.4219 C   0  0  0  0  0  0  0  0  0  0  0  0
   18.8722   19.0642   21.8806 H   0  0  0  0  0  0  0  0  0  0  0  0
   19.9149   20.4787   21.7410 H   0  0  0  0  0  0  0  0  0  0  0  0
   20.9993   18.6003   21.9181 C   0  0  0  0  0  0  0  0  0  0  0  0
   20.8261   17.5387   21.6947 H   0  0  0  0  0  0  0  0  0  0  0  0
   21.8899   18.8936   21.3455 H   0  0  0  0  0  0  0  0  0  0  0  0
   21.3137   18.7748   23.4248 C   0  0  0  0  0  0  0  0  0  0  0  0
   21.4968   19.8344   23.6514 H   0  0  0  0  0  0  0  0  0  0  0  0
   22.2586   18.2545   23.6317 H   0  0  0  0  0  0  0  0  0  0  0  0
   20.2324   18.2063   24.3863 C   0  0  0  0  0  0  0  0  0  0  0  0
   19.8995   17.2195   24.0425 H   0  0  0  0  0  0  0  0  0  0  0  0
   20.6775   18.0595   25.3772 H   0  0  0  0  0  0  0  0  0  0  0  0
   19.0098   19.0984   24.5925 C   0  0  0  0  0  0  0  0  0  0  0  0
   19.1817   20.2231   25.0204 O   0  5  0  0  0  0  0  0  0  0  0  0
   17.9126   18.6278   24.3649 O   0  0  0  0  0  0  0  0  0  0  0  0
  1  2  1  0  0  0  0
  1  3  1  0  0  0  0
  1  4  2  0  0  0  0
  4  5  1  0  0  0  0
  4  6  1  0  0  0  0
  6  7  1  0  0  0  0
  6  8  1  0  0  0  0
  6  9  1  0  0  0  0
  9 10  1  0  0  0  0
  9 11  1  0  0  0  0
  9 12  1  0  0  0  0
 12 13  1  0  0  0  0
 12 14  1  0  0  0  0
 12 15  1  0  0  0  0
 15 16  1  0  0  0  0
 15 17  1  0  0  0  0
 15 18  1  0  0  0  0
 18 19  1  0  0  0  0
 18 20  2  0  0  0  0
M  END
> <VM2 Rank>
56

> <Conf_Id>
111

> <Probability>
0.03

> <Sum Probability>
99.88

> <Delta G>
3.743

> <G>
-18.146

> <E>
-33.661

> <-TS>
15.514

> <U+W>
-49.757

> <U>
12.063

> <W>
-61.820

> <W(PB)>
-64.024

> <W(SA)>
2.204

> <Valence>
10.980

> <Coulomb>
0.681

> <VdW>
0.402

> <VdW6>
-8.075

> <VdW12>
8.477

> <Bond>
0.169

> <Angle>
3.169

> <Pdih>
7.637

> <Idih>
0.005

> <Tether>
0.000

$$$$
VeraChem MOL file


 20 19  0  0  0  0  0  0  0  0999 V2000     
   19.6593   18.7853   19.0102 C   0  0  0  0  0  0  0  0  0  0  0  0
   20.1878   17.8525   19.1952 H   0  0  0  0  0  0  0  0  0  0  0  0
   19.3800   18.9957   17.9793 H   0  0  0  0  0  0  0  0  0  0  0  0
   19.3539   19.6438   19.9898 C   0  0  0  0  0  0  0  0  0  0  0  0
   18.8204   20.5615   19.7429 H   0  0  0  0  0  0  0  0  0  0  0  0
   19.6770   19.4901   21.4667 C   0  0  0  0  0  0  0  0  0  0  0  0
   18.7325   19.4247   22.0201 H   0  0  0  0  0  0  0  0  0  0  0  0
   20.1659   20.4088   21.8177 H   0  0  0  0  0  0  0  0  0  0  0  0
   20.5755   18.2783   21.8154 C   0  0  0  0  0  0  0  0  0  0  0  0
   20.0470   17.3450   21.5778 H   0  0  0  0  0  0  0  0  0  0  0  0
   21.4676   18.3060   21.1749 H   0  0  0  0  0  0  0  0  0  0  0  0
   21.0495   18.2453   23.2900 C   0  0  0  0  0  0  0  0  0  0  0  0
   21.5883   19.1716   23.5337 H   0  0  0  0  0  0  0  0  0  0  0  0
   21.7846   17.4350   23.3863 H   0  0  0  0  0  0  0  0  0  0  0  0
   19.9233   17.9969   24.3327 C   0  0  0  0  0  0  0  0  0  0  0  0
   19.2538   17.2002   23.9865 H   0  0  0  0  0  0  0  0  0  0  0  0
   20.3741   17.6436   25.2673 H   0  0  0  0  0  0  0  0  0  0  0  0
   19.0891   19.2238   24.6958 C   0  0  0  0  0  0  0  0  0  0  0  0
   19.6605   20.1977   25.1461 O   0  5  0  0  0  0  0  0  0  0  0  0
   17.8830   19.1567   24.5612 O   0  0  0  0  0  0  0  0  0  0  0  0
  1  2  1  0  0  0  0
  1  3  1  0  0  0  0
  1  4  2  0  0  0  0
  4  5  1  0  0  0  0
  4  6  1  0  0  0  0
  6  7  1  0  0  0  0
  6  8  1  0  0  0  0
  6  9  1  0  0  0  0
  9 10  1  0  0  0  0
  9 11  1  0  0  0  0
  9 12  1  0  0  0  0
 12 13  1  0  0  0  0
 12 14  1  0  0  0  0
 12 15  1  0  0  0  0
 15 16  1  0  0  0  0
 15 17  1  0  0  0  0
 15 18  1  0  0  0  0
 18 19  1  0  0  0  0
 18 20  2  0  0  0  0
M  END
> <VM2 Rank>
57

> <Conf_Id>
265

> <Probability>
0.03

> <Sum Probability>
99.91

> <Delta G>
3.751

> <G>
-18.138

> <E>
-34.001

> <-TS>
15.863

> <U+W>
-50.098

> <U>
11.477

> <W>
-61.575

> <W(PB)>
-63.705

> <W(SA)>
2.130

> <Valence>
9.964

> <Coulomb>
0.354

> <VdW>
1.159

> <VdW6>
-8.702

> <VdW12>
9.861

> <Bond>
0.227

> <Angle>
3.805

> <Pdih>
5.927

> <Idih>
0.004

> <Tether>
0.000

$$$$
VeraChem MOL file


 20 19  0  0  0  0  0  0  0  0999 V2000     
   20.2126   17.5710   19.4793 C   0  0  0  0  0  0  0  0  0  0  0  0
   20.4164   17.3789   18.4273 H   0  0  0  0  0  0  0  0  0  0  0  0
   19.7539   16.7691   20.0556 H   0  0  0  0  0  0  0  0  0  0  0  0
   20.5129   18.7468   20.0371 C   0  0  0  0  0  0  0  0  0  0  0  0
   20.9715   19.5368   19.4429 H   0  0  0  0  0  0  0  0  0  0  0  0
   20.2609   19.0850   21.4899 C   0  0  0  0  0  0  0  0  0  0  0  0
   21.1622   19.5381   21.9240 H   0  0  0  0  0  0  0  0  0  0  0  0
   20.0637   18.1657   22.0553 H   0  0  0  0  0  0  0  0  0  0  0  0
   19.0684   20.0561   21.6351 C   0  0  0  0  0  0  0  0  0  0  0  0
   19.2225   20.9048   20.9546 H   0  0  0  0  0  0  0  0  0  0  0  0
   18.1474   19.5584   21.3019 H   0  0  0  0  0  0  0  0  0  0  0  0
   18.8748   20.6135   23.0673 C   0  0  0  0  0  0  0  0  0  0  0  0
   18.0994   21.3901   23.0220 H   0  0  0  0  0  0  0  0  0  0  0  0
   19.7907   21.1206   23.4014 H   0  0  0  0  0  0  0  0  0  0  0  0
   18.4372   19.5596   24.1231 C   0  0  0  0  0  0  0  0  0  0  0  0
   18.0004   20.0776   24.9847 H   0  0  0  0  0  0  0  0  0  0  0  0
   17.6507   18.9148   23.7127 H   0  0  0  0  0  0  0  0  0  0  0  0
   19.5606   18.6831   24.6733 C   0  0  0  0  0  0  0  0  0  0  0  0
   20.5042   19.2262   25.2141 O   0  5  0  0  0  0  0  0  0  0  0  0
   19.4394   17.4767   24.5888 O   0  0  0  0  0  0  0  0  0  0  0  0
  1  2  1  0  0  0  0
  1  3  1  0  0  0  0
  1  4  2  0  0  0  0
  4  5  1  0  0  0  0
  4  6  1  0  0  0  0
  6  7  1  0  0  0  0
  6  8  1  0  0  0  0
  6  9  1  0  0  0  0
  9 10  1  0  0  0  0
  9 11  1  0  0  0  0
  9 12  1  0  0  0  0
 12 13  1  0  0  0  0
 12 14  1  0  0  0  0
 12 15  1  0  0  0  0
 15 16  1  0  0  0  0
 15 17  1  0  0  0  0
 15 18  1  0  0  0  0
 18 19  1  0  0  0  0
 18 20  2  0  0  0  0
M  END
> <VM2 Rank>
58

> <Conf_Id>
767

> <Probability>
0.03

> <Sum Probability>
99.93

> <Delta G>
3.756

> <G>
-18.134

> <E>
-33.648

> <-TS>
15.514

> <U+W>
-49.745

> <U>
12.064

> <W>
-61.809

> <W(PB)>
-63.984

> <W(SA)>
2.176

> <Valence>
10.981

> <Coulomb>
0.682

> <VdW>
0.402

> <VdW6>
-8.075

> <VdW12>
8.477

> <Bond>
0.169

> <Angle>
3.169

> <Pdih>
7.637

> <Idih>
0.005

> <Tether>
0.000

$$$$
VeraChem MOL file


 20 19  0  0  0  0  0  0  0  0999 V2000     
   20.7106   18.9464   19.4059 C   0  0  0  0  0  0  0  0  0  0  0  0
   21.0130   17.9435   19.6992 H   0  0  0  0  0  0  0  0  0  0  0  0
   21.2909   19.4278   18.6208 H   0  0  0  0  0  0  0  0  0  0  0  0
   19.6712   19.5704   19.9707 C   0  0  0  0  0  0  0  0  0  0  0  0
   19.4084   20.5741   19.6378 H   0  0  0  0  0  0  0  0  0  0  0  0
   18.7819   19.0230   21.0750 C   0  0  0  0  0  0  0  0  0  0  0  0
   17.8640   18.6251   20.6228 H   0  0  0  0  0  0  0  0  0  0  0  0
   18.4441   19.8545   21.7066 H   0  0  0  0  0  0  0  0  0  0  0  0
   19.4176   17.9352   21.9796 C   0  0  0  0  0  0  0  0  0  0  0  0
   18.6537   17.5748   22.6820 H   0  0  0  0  0  0  0  0  0  0  0  0
   19.6892   17.0648   21.3680 H   0  0  0  0  0  0  0  0  0  0  0  0
   20.6582   18.4031   22.7850 C   0  0  0  0  0  0  0  0  0  0  0  0
   21.4579   18.6977   22.0935 H   0  0  0  0  0  0  0  0  0  0  0  0
   21.0488   17.5497   23.3562 H   0  0  0  0  0  0  0  0  0  0  0  0
   20.3845   19.5749   23.7670 C   0  0  0  0  0  0  0  0  0  0  0  0
   21.3140   19.8384   24.2849 H   0  0  0  0  0  0  0  0  0  0  0  0
   20.0704   20.4711   23.2201 H   0  0  0  0  0  0  0  0  0  0  0  0
   19.3416   19.2626   24.8363 C   0  0  0  0  0  0  0  0  0  0  0  0
   19.6513   18.5033   25.7335 O   0  5  0  0  0  0  0  0  0  0  0  0
   18.2541   19.7991   24.7550 O   0  0  0  0  0  0  0  0  0  0  0  0
  1  2  1  0  0  0  0
  1  3  1  0  0  0  0
  1  4  2  0  0  0  0
  4  5  1  0  0  0  0
  4  6  1  0  0  0  0
  6  7  1  0  0  0  0
  6  8  1  0  0  0  0
  6  9  1  0  0  0  0
  9 10  1  0  0  0  0
  9 11  1  0  0  0  0
  9 12  1  0  0  0  0
 12 13  1  0  0  0  0
 12 14  1  0  0  0  0
 12 15  1  0  0  0  0
 15 16  1  0  0  0  0
 15 17  1  0  0  0  0
 15 18  1  0  0  0  0
 18 19  1  0  0  0  0
 18 20  2  0  0  0  0
M  END
> <VM2 Rank>
59

> <Conf_Id>
86

> <Probability>
0.02

> <Sum Probability>
99.96

> <Delta G>
3.789

> <G>
-18.100

> <E>
-33.959

> <-TS>
15.858

> <U+W>
-50.055

> <U>
11.092

> <W>
-61.147

> <W(PB)>
-63.273

> <W(SA)>
2.126

> <Valence>
9.664

> <Coulomb>
0.659

> <VdW>
0.769

> <VdW6>
-9.171

> <VdW12>
9.939

> <Bond>
0.244

> <Angle>
3.658

> <Pdih>
5.762

> <Idih>
0.001

> <Tether>
0.000

$$$$
VeraChem MOL file


 20 19  0  0  0  0  0  0  0  0999 V2000     
   20.4842   18.4010   19.3954 C   0  0  0  0  0  0  0  0  0  0  0  0
   20.5640   17.6764   18.5870 H   0  0  0  0  0  0  0  0  0  0  0  0
   21.4037   18.8850   19.7174 H   0  0  0  0  0  0  0  0  0  0  0  0
   19.3007   18.6779   19.9534 C   0  0  0  0  0  0  0  0  0  0  0  0
   18.4092   18.1665   19.5913 H   0  0  0  0  0  0  0  0  0  0  0  0
   19.0451   19.6571   21.0872 C   0  0  0  0  0  0  0  0  0  0  0  0
   18.2092   19.2887   21.6957 H   0  0  0  0  0  0  0  0  0  0  0  0
   18.6846   20.6026   20.6610 H   0  0  0  0  0  0  0  0  0  0  0  0
   20.2516   19.9448   22.0185 C   0  0  0  0  0  0  0  0  0  0  0  0
   21.0679   20.3869   21.4324 H   0  0  0  0  0  0  0  0  0  0  0  0
   19.9576   20.7166   22.7429 H   0  0  0  0  0  0  0  0  0  0  0  0
   20.7856   18.7099   22.7909 C   0  0  0  0  0  0  0  0  0  0  0  0
   21.6576   19.0167   23.3846 H   0  0  0  0  0  0  0  0  0  0  0  0
   21.1513   17.9588   22.0791 H   0  0  0  0  0  0  0  0  0  0  0  0
   19.7494   18.0443   23.7373 C   0  0  0  0  0  0  0  0  0  0  0  0
   18.9007   17.6523   23.1654 H   0  0  0  0  0  0  0  0  0  0  0  0
   20.2122   17.1833   24.2334 H   0  0  0  0  0  0  0  0  0  0  0  0
   19.2191   18.9675   24.8305 C   0  0  0  0  0  0  0  0  0  0  0  0
   19.9629   19.2541   25.7482 O   0  5  0  0  0  0  0  0  0  0  0  0
   18.0724   19.3613   24.7465 O   0  0  0  0  0  0  0  0  0  0  0  0
  1  2  1  0  0  0  0
  1  3  1  0  0  0  0
  1  4  2  0  0  0  0
  4  5  1  0  0  0  0
  4  6  1  0  0  0  0
  6  7  1  0  0  0  0
  6  8  1  0  0  0  0
  6  9  1  0  0  0  0
  9 10  1  0  0  0  0
  9 11  1  0  0  0  0
  9 12  1  0  0  0  0
 12 13  1  0  0  0  0
 12 14  1  0  0  0  0
 12 15  1  0  0  0  0
 15 16  1  0  0  0  0
 15 17  1  0  0  0  0
 15 18  1  0  0  0  0
 18 19  1  0  0  0  0
 18 20  2  0  0  0  0
M  END
> <VM2 Rank>
60

> <Conf_Id>
168

> <Probability>
0.02

> <Sum Probability>
99.98

> <Delta G>
3.790

> <G>
-18.100

> <E>
-33.957

> <-TS>
15.857

> <U+W>
-50.053

> <U>
11.091

> <W>
-61.144

> <W(PB)>
-63.247

> <W(SA)>
2.103

> <Valence>
9.664

> <Coulomb>
0.658

> <VdW>
0.769

> <VdW6>
-9.171

> <VdW12>
9.939

> <Bond>
0.244

> <Angle>
3.658

> <Pdih>
5.762

> <Idih>
0.001

> <Tether>
0.000

$$$$
VeraChem MOL file


 20 19  0  0  0  0  0  0  0  0999 V2000     
   21.2282   17.9091   20.2961 C   0  0  0  0  0  0  0  0  0  0  0  0
   22.3083   17.8061   20.3843 H   0  0  0  0  0  0  0  0  0  0  0  0
   20.6611   17.0234   20.0146 H   0  0  0  0  0  0  0  0  0  0  0  0
   20.6245   19.0768   20.5315 C   0  0  0  0  0  0  0  0  0  0  0  0
   21.2100   19.9536   20.8061 H   0  0  0  0  0  0  0  0  0  0  0  0
   19.1323   19.2966   20.4180 C   0  0  0  0  0  0  0  0  0  0  0  0
   18.7153   18.5779   19.6996 H   0  0  0  0  0  0  0  0  0  0  0  0
   18.9336   20.2915   19.9980 H   0  0  0  0  0  0  0  0  0  0  0  0
   18.3790   19.1359   21.7613 C   0  0  0  0  0  0  0  0  0  0  0  0
   17.3030   19.1704   21.5430 H   0  0  0  0  0  0  0  0  0  0  0  0
   18.5684   18.1391   22.1828 H   0  0  0  0  0  0  0  0  0  0  0  0
   18.6899   20.2386   22.8066 C   0  0  0  0  0  0  0  0  0  0  0  0
   17.8089   20.3734   23.4494 H   0  0  0  0  0  0  0  0  0  0  0  0
   18.8411   21.1992   22.2961 H   0  0  0  0  0  0  0  0  0  0  0  0
   19.9088   19.9332   23.7204 C   0  0  0  0  0  0  0  0  0  0  0  0
   20.8061   19.7309   23.1273 H   0  0  0  0  0  0  0  0  0  0  0  0
   20.1313   20.8145   24.3330 H   0  0  0  0  0  0  0  0  0  0  0  0
   19.6871   18.7659   24.6788 C   0  0  0  0  0  0  0  0  0  0  0  0
   20.2983   17.7336   24.4853 O   0  5  0  0  0  0  0  0  0  0  0  0
   18.9229   18.9284   25.6101 O   0  0  0  0  0  0  0  0  0  0  0  0
  1  2  1  0  0  0  0
  1  3  1  0  0  0  0
  1  4  2  0  0  0  0
  4  5  1  0  0  0  0
  4  6  1  0  0  0  0
  6  7  1  0  0  0  0
  6  8  1  0  0  0  0
  6  9  1  0  0  0  0
  9 10  1  0  0  0  0
  9 11  1  0  0  0  0
  9 12  1  0  0  0  0
 12 13  1  0  0  0  0
 12 14  1  0  0  0  0
 12 15  1  0  0  0  0
 15 16  1  0  0  0  0
 15 17  1  0  0  0  0
 15 18  1  0  0  0  0
 18 19  1  0  0  0  0
 18 20  2  0  0  0  0
M  END
> <VM2 Rank>
61

> <Conf_Id>
374

> <Probability>
0.00

> <Sum Probability>
99.98

> <Delta G>
4.993

> <G>
-16.896

> <E>
-32.113

> <-TS>
15.217

> <U+W>
-48.209

> <U>
14.184

> <W>
-62.393

> <W(PB)>
-64.543

> <W(SA)>
2.150

> <Valence>
11.819

> <Coulomb>
2.081

> <VdW>
0.284

> <VdW6>
-8.249

> <VdW12>
8.533

> <Bond>
0.194

> <Angle>
3.123

> <Pdih>
8.500

> <Idih>
0.002

> <Tether>
0.000

$$$$
VeraChem MOL file


 20 19  0  0  0  0  0  0  0  0999 V2000     
   21.5028   18.3179   20.3404 C   0  0  0  0  0  0  0  0  0  0  0  0
   22.1274   19.2055   20.2541 H   0  0  0  0  0  0  0  0  0  0  0  0
   22.0020   17.3505   20.3331 H   0  0  0  0  0  0  0  0  0  0  0  0
   20.1756   18.4090   20.4574 C   0  0  0  0  0  0  0  0  0  0  0  0
   19.5670   17.5089   20.5365 H   0  0  0  0  0  0  0  0  0  0  0  0
   19.4139   19.7157   20.4641 C   0  0  0  0  0  0  0  0  0  0  0  0
   18.4668   19.5971   19.9211 H   0  0  0  0  0  0  0  0  0  0  0  0
   19.9869   20.4703   19.9084 H   0  0  0  0  0  0  0  0  0  0  0  0
   19.1368   20.2635   21.8857 C   0  0  0  0  0  0  0  0  0  0  0  0
   20.0818   20.3914   22.4312 H   0  0  0  0  0  0  0  0  0  0  0  0
   18.7149   21.2717   21.7750 H   0  0  0  0  0  0  0  0  0  0  0  0
   18.1378   19.4161   22.7158 C   0  0  0  0  0  0  0  0  0  0  0  0
   17.3658   19.0017   22.0536 H   0  0  0  0  0  0  0  0  0  0  0  0
   17.6110   20.0785   23.4167 H   0  0  0  0  0  0  0  0  0  0  0  0
   18.7930   18.2714   23.5372 C   0  0  0  0  0  0  0  0  0  0  0  0
   18.0071   17.6515   23.9840 H   0  0  0  0  0  0  0  0  0  0  0  0
   19.3831   17.6115   22.8937 H   0  0  0  0  0  0  0  0  0  0  0  0
   19.6821   18.7588   24.6784 C   0  0  0  0  0  0  0  0  0  0  0  0
   20.8838   18.6062   24.5819 O   0  5  0  0  0  0  0  0  0  0  0  0
   19.1452   19.2594   25.6473 O   0  0  0  0  0  0  0  0  0  0  0  0
  1  2  1  0  0  0  0
  1  3  1  0  0  0  0
  1  4  2  0  0  0  0
  4  5  1  0  0  0  0
  4  6  1  0  0  0  0
  6  7  1  0  0  0  0
  6  8  1  0  0  0  0
  6  9  1  0  0  0  0
  9 10  1  0  0  0  0
  9 11  1  0  0  0  0
  9 12  1  0  0  0  0
 12 13  1  0  0  0  0
 12 14  1  0  0  0  0
 12 15  1  0  0  0  0
 15 16  1  0  0  0  0
 15 17  1  0  0  0  0
 15 18  1  0  0  0  0
 18 19  1  0  0  0  0
 18 20  2  0  0  0  0
M  END
> <VM2 Rank>
62

> <Conf_Id>
722

> <Probability>
0.00

> <Sum Probability>
99.99

> <Delta G>
5.002

> <G>
-16.888

> <E>
-32.106

> <-TS>
15.219

> <U+W>
-48.203

> <U>
14.181

> <W>
-62.384

> <W(PB)>
-64.528

> <W(SA)>
2.144

> <Valence>
11.820

> <Coulomb>
2.077

> <VdW>
0.285

> <VdW6>
-8.249

> <VdW12>
8.533

> <Bond>
0.194

> <Angle>
3.123

> <Pdih>
8.501

> <Idih>
0.002

> <Tether>
0.000

$$$$
VeraChem MOL file


 20 19  0  0  0  0  0  0  0  0999 V2000     
   20.5550   17.8495   19.6965 C   0  0  0  0  0  0  0  0  0  0  0  0
   20.0896   18.2749   18.8089 H   0  0  0  0  0  0  0  0  0  0  0  0
   21.3999   17.1794   19.5474 H   0  0  0  0  0  0  0  0  0  0  0  0
   20.1115   18.1382   20.9228 C   0  0  0  0  0  0  0  0  0  0  0  0
   20.5893   17.6993   21.7987 H   0  0  0  0  0  0  0  0  0  0  0  0
   18.9404   19.0542   21.2073 C   0  0  0  0  0  0  0  0  0  0  0  0
   18.2948   18.6130   21.9761 H   0  0  0  0  0  0  0  0  0  0  0  0
   18.3151   19.1421   20.3087 H   0  0  0  0  0  0  0  0  0  0  0  0
   19.3891   20.4725   21.6318 C   0  0  0  0  0  0  0  0  0  0  0  0
   19.9577   20.9172   20.8037 H   0  0  0  0  0  0  0  0  0  0  0  0
   18.5008   21.1050   21.7636 H   0  0  0  0  0  0  0  0  0  0  0  0
   20.2561   20.5384   22.9161 C   0  0  0  0  0  0  0  0  0  0  0  0
   20.6073   21.5732   23.0257 H   0  0  0  0  0  0  0  0  0  0  0  0
   21.1616   19.9273   22.8002 H   0  0  0  0  0  0  0  0  0  0  0  0
   19.5133   20.1461   24.2242 C   0  0  0  0  0  0  0  0  0  0  0  0
   20.0548   20.5646   25.0804 H   0  0  0  0  0  0  0  0  0  0  0  0
   18.5103   20.5894   24.2405 H   0  0  0  0  0  0  0  0  0  0  0  0
   19.3977   18.6452   24.4820 C   0  0  0  0  0  0  0  0  0  0  0  0
   20.4217   18.0048   24.6195 O   0  5  0  0  0  0  0  0  0  0  0  0
   18.2863   18.1692   24.6079 O   0  0  0  0  0  0  0  0  0  0  0  0
  1  2  1  0  0  0  0
  1  3  1  0  0  0  0
  1  4  2  0  0  0  0
  4  5  1  0  0  0  0
  4  6  1  0  0  0  0
  6  7  1  0  0  0  0
  6  8  1  0  0  0  0
  6  9  1  0  0  0  0
  9 10  1  0  0  0  0
  9 11  1  0  0  0  0
  9 12  1  0  0  0  0
 12 13  1  0  0  0  0
 12 14  1  0  0  0  0
 12 15  1  0  0  0  0
 15 16  1  0  0  0  0
 15 17  1  0  0  0  0
 15 18  1  0  0  0  0
 18 19  1  0  0  0  0
 18 20  2  0  0  0  0
M  END
> <VM2 Rank>
63

> <Conf_Id>
352

> <Probability>
0.00

> <Sum Probability>
99.99

> <Delta G>
5.030

> <G>
-16.860

> <E>
-33.012

> <-TS>
16.152

> <U+W>
-49.108

> <U>
13.083

> <W>
-62.192

> <W(PB)>
-64.313

> <W(SA)>
2.122

> <Valence>
11.308

> <Coulomb>
1.656

> <VdW>
0.119

> <VdW6>
-9.164

> <VdW12>
9.283

> <Bond>
0.195

> <Angle>
3.447

> <Pdih>
7.656

> <Idih>
0.011

> <Tether>
0.000

$$$$
VeraChem MOL file


 20 19  0  0  0  0  0  0  0  0999 V2000     
   20.2527   17.7582   19.6574 C   0  0  0  0  0  0  0  0  0  0  0  0
   20.6028   18.4296   18.8750 H   0  0  0  0  0  0  0  0  0  0  0  0
   19.9714   16.7486   19.3629 H   0  0  0  0  0  0  0  0  0  0  0  0
   20.1669   18.1549   20.9298 C   0  0  0  0  0  0  0  0  0  0  0  0
   19.8167   17.4664   21.6989 H   0  0  0  0  0  0  0  0  0  0  0  0
   20.5453   19.5382   21.4143 C   0  0  0  0  0  0  0  0  0  0  0  0
   21.2106   20.0153   20.6823 H   0  0  0  0  0  0  0  0  0  0  0  0
   21.1267   19.4669   22.3414 H   0  0  0  0  0  0  0  0  0  0  0  0
   19.3127   20.4495   21.6220 C   0  0  0  0  0  0  0  0  0  0  0  0
   19.6533   21.4526   21.9124 H   0  0  0  0  0  0  0  0  0  0  0  0
   18.8052   20.5697   20.6550 H   0  0  0  0  0  0  0  0  0  0  0  0
   18.2791   19.9422   22.6611 C   0  0  0  0  0  0  0  0  0  0  0  0
   17.9093   18.9465   22.3807 H   0  0  0  0  0  0  0  0  0  0  0  0
   17.4070   20.6081   22.6130 H   0  0  0  0  0  0  0  0  0  0  0  0
   18.7866   19.9270   24.1305 C   0  0  0  0  0  0  0  0  0  0  0  0
   19.3495   20.8425   24.3488 H   0  0  0  0  0  0  0  0  0  0  0  0
   17.9229   19.9218   24.8055 H   0  0  0  0  0  0  0  0  0  0  0  0
   19.6369   18.7174   24.5129 C   0  0  0  0  0  0  0  0  0  0  0  0
   20.7623   18.9159   24.9272 O   0  5  0  0  0  0  0  0  0  0  0  0
   19.1286   17.6148   24.4528 O   0  0  0  0  0  0  0  0  0  0  0  0
  1  2  1  0  0  0  0
  1  3  1  0  0  0  0
  1  4  2  0  0  0  0
  4  5  1  0  0  0  0
  4  6  1  0  0  0  0
  6  7  1  0  0  0  0
  6  8  1  0  0  0  0
  6  9  1  0  0  0  0
  9 10  1  0  0  0  0
  9 11  1  0  0  0  0
  9 12  1  0  0  0  0
 12 13  1  0  0  0  0
 12 14  1  0  0  0  0
 12 15  1  0  0  0  0
 15 16  1  0  0  0  0
 15 17  1  0  0  0  0
 15 18  1  0  0  0  0
 18 19  1  0  0  0  0
 18 20  2  0  0  0  0
M  END
> <VM2 Rank>
64

> <Conf_Id>
350

> <Probability>
0.00

> <Sum Probability>
99.99

> <Delta G>
5.105

> <G>
-16.785

> <E>
-32.937

> <-TS>
16.152

> <U+W>
-49.034

> <U>
13.083

> <W>
-62.116

> <W(PB)>
-64.210

> <W(SA)>
2.094

> <Valence>
11.308

> <Coulomb>
1.656

> <VdW>
0.119

> <VdW6>
-9.164

> <VdW12>
9.282

> <Bond>
0.195

> <Angle>
3.446

> <Pdih>
7.656

> <Idih>
0.011

> <Tether>
0.000

$$$$
VeraChem MOL file


 20 19  0  0  0  0  0  0  0  0999 V2000     
   21.1394   17.9353   20.3281 C   0  0  0  0  0  0  0  0  0  0  0  0
   20.4713   17.3501   19.6984 H   0  0  0  0  0  0  0  0  0  0  0  0
   22.1208   17.5163   20.5432 H   0  0  0  0  0  0  0  0  0  0  0  0
   20.7721   19.1203   20.8236 C   0  0  0  0  0  0  0  0  0  0  0  0
   21.4538   19.6860   21.4587 H   0  0  0  0  0  0  0  0  0  0  0  0
   19.4235   19.7614   20.5778 C   0  0  0  0  0  0  0  0  0  0  0  0
   18.7958   19.1217   19.9430 H   0  0  0  0  0  0  0  0  0  0  0  0
   19.5833   20.6906   20.0150 H   0  0  0  0  0  0  0  0  0  0  0  0
   18.6624   20.1174   21.8789 C   0  0  0  0  0  0  0  0  0  0  0  0
   19.3101   20.6999   22.5483 H   0  0  0  0  0  0  0  0  0  0  0  0
   17.8360   20.7876   21.6057 H   0  0  0  0  0  0  0  0  0  0  0  0
   18.0541   18.9051   22.6311 C   0  0  0  0  0  0  0  0  0  0  0  0
   17.5387   18.2512   21.9149 H   0  0  0  0  0  0  0  0  0  0  0  0
   17.2794   19.2750   23.3170 H   0  0  0  0  0  0  0  0  0  0  0  0
   19.0677   18.0687   23.4594 C   0  0  0  0  0  0  0  0  0  0  0  0
   18.5447   17.2235   23.9216 H   0  0  0  0  0  0  0  0  0  0  0  0
   19.8391   17.6363   22.8149 H   0  0  0  0  0  0  0  0  0  0  0  0
   19.7466   18.8467   24.5835 C   0  0  0  0  0  0  0  0  0  0  0  0
   20.9246   19.1225   24.4685 O   0  5  0  0  0  0  0  0  0  0  0  0
   19.0806   19.1406   25.5571 O   0  0  0  0  0  0  0  0  0  0  0  0
  1  2  1  0  0  0  0
  1  3  1  0  0  0  0
  1  4  2  0  0  0  0
  4  5  1  0  0  0  0
  4  6  1  0  0  0  0
  6  7  1  0  0  0  0
  6  8  1  0  0  0  0
  6  9  1  0  0  0  0
  9 10  1  0  0  0  0
  9 11  1  0  0  0  0
  9 12  1  0  0  0  0
 12 13  1  0  0  0  0
 12 14  1  0  0  0  0
 12 15  1  0  0  0  0
 15 16  1  0  0  0  0
 15 17  1  0  0  0  0
 15 18  1  0  0  0  0
 18 19  1  0  0  0  0
 18 20  2  0  0  0  0
M  END
> <VM2 Rank>
65

> <Conf_Id>
755

> <Probability>
0.00

> <Sum Probability>
99.99

> <Delta G>
5.331

> <G>
-16.559

> <E>
-32.231

> <-TS>
15.672

> <U+W>
-48.327

> <U>
13.663

> <W>
-61.990

> <W(PB)>
-64.088

> <W(SA)>
2.098

> <Valence>
11.349

> <Coulomb>
2.220

> <VdW>
0.093

> <VdW6>
-8.851

> <VdW12>
8.944

> <Bond>
0.196

> <Angle>
3.358

> <Pdih>
7.794

> <Idih>
0.001

> <Tether>
0.000

$$$$
VeraChem MOL file


 20 19  0  0  0  0  0  0  0  0999 V2000     
   19.5875   17.4674   20.1280 C   0  0  0  0  0  0  0  0  0  0  0  0
   20.5910   17.3863   19.7138 H   0  0  0  0  0  0  0  0  0  0  0  0
   18.9748   16.5678   20.1375 H   0  0  0  0  0  0  0  0  0  0  0  0
   19.1229   18.6231   20.6109 C   0  0  0  0  0  0  0  0  0  0  0  0
   18.1177   18.6800   21.0286 H   0  0  0  0  0  0  0  0  0  0  0  0
   19.9177   19.9104   20.6416 C   0  0  0  0  0  0  0  0  0  0  0  0
   19.4142   20.6396   19.9931 H   0  0  0  0  0  0  0  0  0  0  0  0
   20.9197   19.7621   20.2170 H   0  0  0  0  0  0  0  0  0  0  0  0
   20.0342   20.5310   22.0558 C   0  0  0  0  0  0  0  0  0  0  0  0
   20.3988   21.5603   21.9362 H   0  0  0  0  0  0  0  0  0  0  0  0
   19.0392   20.6182   22.5133 H   0  0  0  0  0  0  0  0  0  0  0  0
   21.0092   19.7962   23.0123 C   0  0  0  0  0  0  0  0  0  0  0  0
   21.2723   20.4790   23.8321 H   0  0  0  0  0  0  0  0  0  0  0  0
   21.9474   19.5806   22.4836 H   0  0  0  0  0  0  0  0  0  0  0  0
   20.4550   18.4870   23.6383 C   0  0  0  0  0  0  0  0  0  0  0  0
   20.2190   17.7509   22.8639 H   0  0  0  0  0  0  0  0  0  0  0  0
   21.2289   18.0329   24.2678 H   0  0  0  0  0  0  0  0  0  0  0  0
   19.2224   18.6886   24.5158 C   0  0  0  0  0  0  0  0  0  0  0  0
   19.3722   19.2285   25.5947 O   0  5  0  0  0  0  0  0  0  0  0  0
   18.1499   18.2857   24.1105 O   0  0  0  0  0  0  0  0  0  0  0  0
  1  2  1  0  0  0  0
  1  3  1  0  0  0  0
  1  4  2  0  0  0  0
  4  5  1  0  0  0  0
  4  6  1  0  0  0  0
  6  7  1  0  0  0  0
  6  8  1  0  0  0  0
  6  9  1  0  0  0  0
  9 10  1  0  0  0  0
  9 11  1  0  0  0  0
  9 12  1  0  0  0  0
 12 13  1  0  0  0  0
 12 14  1  0  0  0  0
 12 15  1  0  0  0  0
 15 16  1  0  0  0  0
 15 17  1  0  0  0  0
 15 18  1  0  0  0  0
 18 19  1  0  0  0  0
 18 20  2  0  0  0  0
M  END
> <VM2 Rank>
66

> <Conf_Id>
192

> <Probability>
0.00

> <Sum Probability>
100.00

> <Delta G>
5.362

> <G>
-16.528

> <E>
-32.200

> <-TS>
15.672

> <U+W>
-48.297

> <U>
13.663

> <W>
-61.959

> <W(PB)>
-64.071

> <W(SA)>
2.112

> <Valence>
11.349

> <Coulomb>
2.220

> <VdW>
0.094

> <VdW6>
-8.851

> <VdW12>
8.945

> <Bond>
0.196

> <Angle>
3.357

> <Pdih>
7.794

> <Idih>
0.001

> <Tether>
0.000

$$$$
VeraChem MOL file


 20 19  0  0  0  0  0  0  0  0999 V2000     
   21.1801   19.3466   20.2371 C   0  0  0  0  0  0  0  0  0  0  0  0
   22.1140   19.8674   20.0332 H   0  0  0  0  0  0  0  0  0  0  0  0
   21.1166   18.3052   19.9290 H   0  0  0  0  0  0  0  0  0  0  0  0
   20.1624   19.9728   20.8374 C   0  0  0  0  0  0  0  0  0  0  0  0
   20.2743   21.0165   21.1298 H   0  0  0  0  0  0  0  0  0  0  0  0
   18.8170   19.3608   21.1881 C   0  0  0  0  0  0  0  0  0  0  0  0
   18.1162   19.5502   20.3645 H   0  0  0  0  0  0  0  0  0  0  0  0
   18.3927   19.8981   22.0445 H   0  0  0  0  0  0  0  0  0  0  0  0
   18.8371   17.8443   21.5081 C   0  0  0  0  0  0  0  0  0  0  0  0
   17.8082   17.5085   21.6953 H   0  0  0  0  0  0  0  0  0  0  0  0
   19.1684   17.2954   20.6169 H   0  0  0  0  0  0  0  0  0  0  0  0
   19.7258   17.4353   22.7123 C   0  0  0  0  0  0  0  0  0  0  0  0
   20.7594   17.7750   22.5620 H   0  0  0  0  0  0  0  0  0  0  0  0
   19.7712   16.3382   22.7332 H   0  0  0  0  0  0  0  0  0  0  0  0
   19.2078   17.9175   24.0964 C   0  0  0  0  0  0  0  0  0  0  0  0
   18.1210   17.7875   24.1644 H   0  0  0  0  0  0  0  0  0  0  0  0
   19.6477   17.2890   24.8794 H   0  0  0  0  0  0  0  0  0  0  0  0
   19.5599   19.3596   24.4559 C   0  0  0  0  0  0  0  0  0  0  0  0
   20.7319   19.6436   24.6088 O   0  5  0  0  0  0  0  0  0  0  0  0
   18.6491   20.1375   24.6638 O   0  0  0  0  0  0  0  0  0  0  0  0
  1  2  1  0  0  0  0
  1  3  1  0  0  0  0
  1  4  2  0  0  0  0
  4  5  1  0  0  0  0
  4  6  1  0  0  0  0
  6  7  1  0  0  0  0
  6  8  1  0  0  0  0
  6  9  1  0  0  0  0
  9 10  1  0  0  0  0
  9 11  1  0  0  0  0
  9 12  1  0  0  0  0
 12 13  1  0  0  0  0
 12 14  1  0  0  0  0
 12 15  1  0  0  0  0
 15 16  1  0  0  0  0
 15 17  1  0  0  0  0
 15 18  1  0  0  0  0
 18 19  1  0  0  0  0
 18 20  2  0  0  0  0
M  END
> <VM2 Rank>
67

> <Conf_Id>
672

> <Probability>
0.00

> <Sum Probability>
100.00

> <Delta G>
5.387

> <G>
-16.502

> <E>
-32.129

> <-TS>
15.627

> <U+W>
-48.226

> <U>
14.666

> <W>
-62.892

> <W(PB)>
-64.995

> <W(SA)>
2.103

> <Valence>
11.116

> <Coulomb>
3.067

> <VdW>
0.483

> <VdW6>
-9.660

> <VdW12>
10.143

> <Bond>
0.245

> <Angle>
3.970

> <Pdih>
6.882

> <Idih>
0.019

> <Tether>
0.000

$$$$
VeraChem MOL file


 20 19  0  0  0  0  0  0  0  0999 V2000     
   21.6286   19.3122   20.2885 C   0  0  0  0  0  0  0  0  0  0  0  0
   22.6777   19.1359   20.5199 H   0  0  0  0  0  0  0  0  0  0  0  0
   21.4011   20.0594   19.5301 H   0  0  0  0  0  0  0  0  0  0  0  0
   20.6617   18.6387   20.9175 C   0  0  0  0  0  0  0  0  0  0  0  0
   20.9180   17.8953   21.6703 H   0  0  0  0  0  0  0  0  0  0  0  0
   19.1843   18.8296   20.6438 C   0  0  0  0  0  0  0  0  0  0  0  0
   18.6812   17.8576   20.5555 H   0  0  0  0  0  0  0  0  0  0  0  0
   19.0648   19.3204   19.6684 H   0  0  0  0  0  0  0  0  0  0  0  0
   18.4851   19.7021   21.7156 C   0  0  0  0  0  0  0  0  0  0  0  0
   19.1901   20.4430   22.1181 H   0  0  0  0  0  0  0  0  0  0  0  0
   17.6945   20.2815   21.2197 H   0  0  0  0  0  0  0  0  0  0  0  0
   17.8240   18.9044   22.8687 C   0  0  0  0  0  0  0  0  0  0  0  0
   17.0840   18.2104   22.4480 H   0  0  0  0  0  0  0  0  0  0  0  0
   17.2589   19.6048   23.4991 H   0  0  0  0  0  0  0  0  0  0  0  0
   18.8062   18.1103   23.7717 C   0  0  0  0  0  0  0  0  0  0  0  0
   18.2356   17.5747   24.5390 H   0  0  0  0  0  0  0  0  0  0  0  0
   19.3296   17.3458   23.1880 H   0  0  0  0  0  0  0  0  0  0  0  0
   19.8359   18.9696   24.5025 C   0  0  0  0  0  0  0  0  0  0  0  0
   21.0106   18.6815   24.3850 O   0  5  0  0  0  0  0  0  0  0  0  0
   19.4346   19.8696   25.2146 O   0  0  0  0  0  0  0  0  0  0  0  0
  1  2  1  0  0  0  0
  1  3  1  0  0  0  0
  1  4  2  0  0  0  0
  4  5  1  0  0  0  0
  4  6  1  0  0  0  0
  6  7  1  0  0  0  0
  6  8  1  0  0  0  0
  6  9  1  0  0  0  0
  9 10  1  0  0  0  0
  9 11  1  0  0  0  0
  9 12  1  0  0  0  0
 12 13  1  0  0  0  0
 12 14  1  0  0  0  0
 12 15  1  0  0  0  0
 15 16  1  0  0  0  0
 15 17  1  0  0  0  0
 15 18  1  0  0  0  0
 18 19  1  0  0  0  0
 18 20  2  0  0  0  0
M  END
> <VM2 Rank>
68

> <Conf_Id>
355

> <Probability>
0.00

> <Sum Probability>
100.00

> <Delta G>
5.588

> <G>
-16.302

> <E>
-31.903

> <-TS>
15.601

> <U+W>
-48.000

> <U>
14.801

> <W>
-62.800

> <W(PB)>
-64.944

> <W(SA)>
2.143

> <Valence>
11.949

> <Coulomb>
2.730

> <VdW>
0.121

> <VdW6>
-8.856

> <VdW12>
8.977

> <Bond>
0.186

> <Angle>
3.315

> <Pdih>
8.441

> <Idih>
0.007

> <Tether>
0.000

$$$$
VeraChem MOL file


 20 19  0  0  0  0  0  0  0  0999 V2000     
   20.2050   17.3116   20.8231 C   0  0  0  0  0  0  0  0  0  0  0  0
   20.5556   17.0507   21.8208 H   0  0  0  0  0  0  0  0  0  0  0  0
   19.9107   16.4956   20.1658 H   0  0  0  0  0  0  0  0  0  0  0  0
   20.1298   18.5834   20.4226 C   0  0  0  0  0  0  0  0  0  0  0  0
   19.7719   18.8239   19.4220 H   0  0  0  0  0  0  0  0  0  0  0  0
   20.5205   19.7694   21.2787 C   0  0  0  0  0  0  0  0  0  0  0  0
   21.2195   20.3987   20.7123 H   0  0  0  0  0  0  0  0  0  0  0  0
   21.0666   19.4429   22.1717 H   0  0  0  0  0  0  0  0  0  0  0  0
   19.2995   20.6302   21.6798 C   0  0  0  0  0  0  0  0  0  0  0  0
   19.6484   21.5512   22.1662 H   0  0  0  0  0  0  0  0  0  0  0  0
   18.7866   20.9493   20.7622 H   0  0  0  0  0  0  0  0  0  0  0  0
   18.2723   19.9217   22.6006 C   0  0  0  0  0  0  0  0  0  0  0  0
   18.0017   18.9376   22.1938 H   0  0  0  0  0  0  0  0  0  0  0  0
   17.3493   20.5167   22.5867 H   0  0  0  0  0  0  0  0  0  0  0  0
   18.7202   19.7821   24.0828 C   0  0  0  0  0  0  0  0  0  0  0  0
   19.1739   20.7164   24.4345 H   0  0  0  0  0  0  0  0  0  0  0  0
   17.8349   19.6116   24.7065 H   0  0  0  0  0  0  0  0  0  0  0  0
   19.6777   18.6284   24.3698 C   0  0  0  0  0  0  0  0  0  0  0  0
   20.8030   18.8961   24.7437 O   0  5  0  0  0  0  0  0  0  0  0  0
   19.2431   17.4951   24.3068 O   0  0  0  0  0  0  0  0  0  0  0  0
  1  2  1  0  0  0  0
  1  3  1  0  0  0  0
  1  4  2  0  0  0  0
  4  5  1  0  0  0  0
  4  6  1  0  0  0  0
  6  7  1  0  0  0  0
  6  8  1  0  0  0  0
  6  9  1  0  0  0  0
  9 10  1  0  0  0  0
  9 11  1  0  0  0  0
  9 12  1  0  0  0  0
 12 13  1  0  0  0  0
 12 14  1  0  0  0  0
 12 15  1  0  0  0  0
 15 16  1  0  0  0  0
 15 17  1  0  0  0  0
 15 18  1  0  0  0  0
 18 19  1  0  0  0  0
 18 20  2  0  0  0  0
M  END
> <VM2 Rank>
69

> <Conf_Id>
375

> <Probability>
0.00

> <Sum Probability>
100.00

> <Delta G>
5.853

> <G>
-16.036

> <E>
-32.089

> <-TS>
16.052

> <U+W>
-48.185

> <U>
14.642

> <W>
-62.827

> <W(PB)>
-64.920

> <W(SA)>
2.093

> <Valence>
11.577

> <Coulomb>
3.283

> <VdW>
-0.219

> <VdW6>
-9.345

> <VdW12>
9.125

> <Bond>
0.192

> <Angle>
3.435

> <Pdih>
7.929

> <Idih>
0.022

> <Tether>
0.000

$$$$
VeraChem MOL file


 20 19  0  0  0  0  0  0  0  0999 V2000     
   18.1596   19.0867   20.5907 C   0  0  0  0  0  0  0  0  0  0  0  0
   17.7283   19.5042   21.4996 H   0  0  0  0  0  0  0  0  0  0  0  0
   17.4812   18.6038   19.8898 H   0  0  0  0  0  0  0  0  0  0  0  0
   19.4710   19.1550   20.3478 C   0  0  0  0  0  0  0  0  0  0  0  0
   19.8836   18.7269   19.4347 H   0  0  0  0  0  0  0  0  0  0  0  0
   20.4747   19.8092   21.2734 C   0  0  0  0  0  0  0  0  0  0  0  0
   19.9666   20.3977   22.0465 H   0  0  0  0  0  0  0  0  0  0  0  0
   21.0735   20.5253   20.6956 H   0  0  0  0  0  0  0  0  0  0  0  0
   21.4307   18.7807   21.9221 C   0  0  0  0  0  0  0  0  0  0  0  0
   21.9305   18.2210   21.1196 H   0  0  0  0  0  0  0  0  0  0  0  0
   22.2271   19.3134   22.4593 H   0  0  0  0  0  0  0  0  0  0  0  0
   20.7519   17.7698   22.8825 C   0  0  0  0  0  0  0  0  0  0  0  0
   21.4608   16.9487   23.0542 H   0  0  0  0  0  0  0  0  0  0  0  0
   19.8730   17.3137   22.4065 H   0  0  0  0  0  0  0  0  0  0  0  0
   20.3646   18.3551   24.2697 C   0  0  0  0  0  0  0  0  0  0  0  0
   20.2338   17.5296   24.9792 H   0  0  0  0  0  0  0  0  0  0  0  0
   21.1773   18.9778   24.6623 H   0  0  0  0  0  0  0  0  0  0  0  0
   19.0669   19.1585   24.3002 C   0  0  0  0  0  0  0  0  0  0  0  0
   19.1328   20.3456   24.5537 O   0  5  0  0  0  0  0  0  0  0  0  0
   18.0188   18.5575   24.1678 O   0  0  0  0  0  0  0  0  0  0  0  0
  1  2  1  0  0  0  0
  1  3  1  0  0  0  0
  1  4  2  0  0  0  0
  4  5  1  0  0  0  0
  4  6  1  0  0  0  0
  6  7  1  0  0  0  0
  6  8  1  0  0  0  0
  6  9  1  0  0  0  0
  9 10  1  0  0  0  0
  9 11  1  0  0  0  0
  9 12  1  0  0  0  0
 12 13  1  0  0  0  0
 12 14  1  0  0  0  0
 12 15  1  0  0  0  0
 15 16  1  0  0  0  0
 15 17  1  0  0  0  0
 15 18  1  0  0  0  0
 18 19  1  0  0  0  0
 18 20  2  0  0  0  0
M  END
> <VM2 Rank>
70

> <Conf_Id>
112

> <Probability>
0.00

> <Sum Probability>
100.00

> <Delta G>
5.863

> <G>
-16.027

> <E>
-32.080

> <-TS>
16.053

> <U+W>
-48.176

> <U>
14.640

> <W>
-62.816

> <W(PB)>
-64.895

> <W(SA)>
2.079

> <Valence>
11.577

> <Coulomb>
3.282

> <VdW>
-0.219

> <VdW6>
-9.345

> <VdW12>
9.126

> <Bond>
0.192

> <Angle>
3.435

> <Pdih>
7.929

> <Idih>
0.021

> <Tether>
0.000

$$$$
VeraChem MOL file


 20 19  0  0  0  0  0  0  0  0999 V2000     
   21.3447   19.2901   19.9181 C   0  0  0  0  0  0  0  0  0  0  0  0
   20.8377   19.2798   18.9546 H   0  0  0  0  0  0  0  0  0  0  0  0
   22.4302   19.2068   19.9142 H   0  0  0  0  0  0  0  0  0  0  0  0
   20.6652   19.3973   21.0630 C   0  0  0  0  0  0  0  0  0  0  0  0
   21.1966   19.4084   22.0124 H   0  0  0  0  0  0  0  0  0  0  0  0
   19.1582   19.5237   21.1424 C   0  0  0  0  0  0  0  0  0  0  0  0
   18.7810   19.8834   20.1755 H   0  0  0  0  0  0  0  0  0  0  0  0
   18.8716   20.2865   21.8789 H   0  0  0  0  0  0  0  0  0  0  0  0
   18.4701   18.1749   21.4628 C   0  0  0  0  0  0  0  0  0  0  0  0
   17.5356   18.1237   20.8875 H   0  0  0  0  0  0  0  0  0  0  0  0
   19.0890   17.3432   21.0983 H   0  0  0  0  0  0  0  0  0  0  0  0
   18.1111   17.9552   22.9547 C   0  0  0  0  0  0  0  0  0  0  0  0
   17.5805   16.9962   23.0279 H   0  0  0  0  0  0  0  0  0  0  0  0
   17.3908   18.7176   23.2821 H   0  0  0  0  0  0  0  0  0  0  0  0
   19.3205   17.9084   23.9317 C   0  0  0  0  0  0  0  0  0  0  0  0
   19.0388   17.3271   24.8170 H   0  0  0  0  0  0  0  0  0  0  0  0
   20.1627   17.3819   23.4667 H   0  0  0  0  0  0  0  0  0  0  0  0
   19.8083   19.2609   24.4539 C   0  0  0  0  0  0  0  0  0  0  0  0
   21.0059   19.4162   24.5902 O   0  5  0  0  0  0  0  0  0  0  0  0
   18.9869   20.0914   24.7911 O   0  0  0  0  0  0  0  0  0  0  0  0
  1  2  1  0  0  0  0
  1  3  1  0  0  0  0
  1  4  2  0  0  0  0
  4  5  1  0  0  0  0
  4  6  1  0  0  0  0
  6  7  1  0  0  0  0
  6  8  1  0  0  0  0
  6  9  1  0  0  0  0
  9 10  1  0  0  0  0
  9 11  1  0  0  0  0
  9 12  1  0  0  0  0
 12 13  1  0  0  0  0
 12 14  1  0  0  0  0
 12 15  1  0  0  0  0
 15 16  1  0  0  0  0
 15 17  1  0  0  0  0
 15 18  1  0  0  0  0
 18 19  1  0  0  0  0
 18 20  2  0  0  0  0
M  END
> <VM2 Rank>
71

> <Conf_Id>
191

> <Probability>
0.00

> <Sum Probability>
100.00

> <Delta G>
6.779

> <G>
-15.111

> <E>
-30.721

> <-TS>
15.610

> <U+W>
-46.817

> <U>
15.456

> <W>
-62.273

> <W(PB)>
-64.363

> <W(SA)>
2.091

> <Valence>
13.615

> <Coulomb>
1.409

> <VdW>
0.431

> <VdW6>
-9.298

> <VdW12>
9.730

> <Bond>
0.212

> <Angle>
3.796

> <Pdih>
9.592

> <Idih>
0.016

> <Tether>
0.000

$$$$
VeraChem MOL file


 20 19  0  0  0  0  0  0  0  0999 V2000     
   18.7802   18.5163   19.5876 C   0  0  0  0  0  0  0  0  0  0  0  0
   17.9516   17.8562   19.3370 H   0  0  0  0  0  0  0  0  0  0  0  0
   19.4194   18.8504   18.7719 H   0  0  0  0  0  0  0  0  0  0  0  0
   19.0022   18.8965   20.8487 C   0  0  0  0  0  0  0  0  0  0  0  0
   18.3463   18.5509   21.6449 H   0  0  0  0  0  0  0  0  0  0  0  0
   20.1296   19.8168   21.2676 C   0  0  0  0  0  0  0  0  0  0  0  0
   19.7741   20.5589   21.9951 H   0  0  0  0  0  0  0  0  0  0  0  0
   20.4630   20.3904   20.3922 H   0  0  0  0  0  0  0  0  0  0  0  0
   21.3436   19.0412   21.8333 C   0  0  0  0  0  0  0  0  0  0  0  0
   21.3826   18.0348   21.3939 H   0  0  0  0  0  0  0  0  0  0  0  0
   22.2586   19.5476   21.4966 H   0  0  0  0  0  0  0  0  0  0  0  0
   21.4050   18.9481   23.3794 C   0  0  0  0  0  0  0  0  0  0  0  0
   21.4942   19.9544   23.8114 H   0  0  0  0  0  0  0  0  0  0  0  0
   22.3376   18.4302   23.6413 H   0  0  0  0  0  0  0  0  0  0  0  0
   20.2282   18.1819   24.0485 C   0  0  0  0  0  0  0  0  0  0  0  0
   19.9444   17.3162   23.4381 H   0  0  0  0  0  0  0  0  0  0  0  0
   20.5656   17.7869   25.0135 H   0  0  0  0  0  0  0  0  0  0  0  0
   18.9774   19.0103   24.3468 C   0  0  0  0  0  0  0  0  0  0  0  0
   19.1089   20.1280   24.8069 O   0  5  0  0  0  0  0  0  0  0  0  0
   17.8958   18.4789   24.1891 O   0  0  0  0  0  0  0  0  0  0  0  0
  1  2  1  0  0  0  0
  1  3  1  0  0  0  0
  1  4  2  0  0  0  0
  4  5  1  0  0  0  0
  4  6  1  0  0  0  0
  6  7  1  0  0  0  0
  6  8  1  0  0  0  0
  6  9  1  0  0  0  0
  9 10  1  0  0  0  0
  9 11  1  0  0  0  0
  9 12  1  0  0  0  0
 12 13  1  0  0  0  0
 12 14  1  0  0  0  0
 12 15  1  0  0  0  0
 15 16  1  0  0  0  0
 15 17  1  0  0  0  0
 15 18  1  0  0  0  0
 18 19  1  0  0  0  0
 18 20  2  0  0  0  0
M  END
> <VM2 Rank>
72

> <Conf_Id>
671

> <Probability>
0.00

> <Sum Probability>
100.00

> <Delta G>
6.794

> <G>
-15.096

> <E>
-30.704

> <-TS>
15.609

> <U+W>
-46.801

> <U>
15.456

> <W>
-62.257

> <W(PB)>
-64.377

> <W(SA)>
2.121

> <Valence>
13.615

> <Coulomb>
1.410

> <VdW>
0.431

> <VdW6>
-9.299

> <VdW12>
9.730

> <Bond>
0.212

> <Angle>
3.796

> <Pdih>
9.592

> <Idih>
0.016

> <Tether>
0.000

$$$$
