@<TRIPOS>MOLECULE
guest-s22_vm2.mol2 : vm2 ligand conformer 1
          20          19           1
SMALL
USER_CHARGES
 
@<TRIPOS>ATOM
       1    C1      20.445481   18.066056   18.739873 C.2        1 MOL1        -0.2535
       2    H1      20.659656   17.797393   17.706848 H          1 MOL1         0.0845
       3    H2      20.583449   17.288340   19.487984 H          1 MOL1         0.0845
       4    C2      20.033106   19.299524   19.053586 C.2        1 MOL1        -0.1324
       5    H3      19.913342   20.036194   18.259482 H          1 MOL1         0.0833
       6    C3      19.697245   19.819670   20.441267 C.3        1 MOL1        -0.1813
       7    H4      18.664326   20.192766   20.437764 H          1 MOL1         0.0753
       8    H5      20.327159   20.694211   20.652267 H          1 MOL1         0.0753
       9    C4      19.860513   18.789690   21.583400 C.3        1 MOL1        -0.1855
      10    H6      19.216744   17.920895   21.388875 H          1 MOL1         0.0755
      11    H7      20.897615   18.427739   21.605679 H          1 MOL1         0.0755
      12    C5      19.500338   19.396550   22.957086 C.3        1 MOL1        -0.1855
      13    H8      18.463651   19.760745   22.941280 H          1 MOL1         0.0755
      14    H9      20.141105   20.266486   23.157670 H          1 MOL1         0.0755
      15    C6      19.662954   18.367107   24.102459 C.3        1 MOL1        -0.1958
      16    H10     19.019224   17.497358   23.924270 H          1 MOL1         0.0753
      17    H11     20.696704   18.003095   24.140659 H          1 MOL1         0.0753
      18    C7      19.312947   18.942966   25.469890 C.2        1 MOL1         0.6174
      19    O1      20.197141   19.475060   26.111547 O.co2      1 MOL1        -0.6695
      20    O2      18.161275   18.861377   25.848891 O.co2      1 MOL1        -0.6695
@<TRIPOS>BOND
    1     1     2    1
    2     1     3    1
    3     1     4    2
    4     4     5    1
    5     4     6    1
    6     6     7    1
    7     6     8    1
    8     6     9    1
    9     9    10    1
   10     9    11    1
   11     9    12    1
   12    12    13    1
   13    12    14    1
   14    12    15    1
   15    15    16    1
   16    15    17    1
   17    15    18    1
   18    18    19    1
   19    18    20    2
@<TRIPOS>SUBSTRUCTURE
       1 MOL1            1 RESIDUE      1      MOL     
@<SCITEGIC>MOL_PROPERTY
VM2 Rank
SciTegic.value.IntegerValue
1

@<SCITEGIC>MOL_PROPERTY
Conf_Id
SciTegic.value.IntegerValue
811

@<SCITEGIC>MOL_PROPERTY
Probability
SciTegic.value.DoubleValue
13.58

@<SCITEGIC>MOL_PROPERTY
Sum Probability
SciTegic.value.DoubleValue
13.58

@<SCITEGIC>MOL_PROPERTY
Delta G
SciTegic.value.DoubleValue
0.000

@<SCITEGIC>MOL_PROPERTY
G
SciTegic.value.DoubleValue
-21.890

@<SCITEGIC>MOL_PROPERTY
E
SciTegic.value.DoubleValue
-37.137

@<SCITEGIC>MOL_PROPERTY
-TS
SciTegic.value.DoubleValue
15.248

@<SCITEGIC>MOL_PROPERTY
U+W
SciTegic.value.DoubleValue
-53.234

@<SCITEGIC>MOL_PROPERTY
U
SciTegic.value.DoubleValue
6.572

@<SCITEGIC>MOL_PROPERTY
W
SciTegic.value.DoubleValue
-59.803

@<SCITEGIC>MOL_PROPERTY
W(PB)
SciTegic.value.DoubleValue
-62.038

@<SCITEGIC>MOL_PROPERTY
W(SA)
SciTegic.value.DoubleValue
2.234

@<SCITEGIC>MOL_PROPERTY
Valence
SciTegic.value.DoubleValue
7.989

@<SCITEGIC>MOL_PROPERTY
Coulomb
SciTegic.value.DoubleValue
-2.698

@<SCITEGIC>MOL_PROPERTY
VdW
SciTegic.value.DoubleValue
1.281

@<SCITEGIC>MOL_PROPERTY
VdW6
SciTegic.value.DoubleValue
-6.467

@<SCITEGIC>MOL_PROPERTY
VdW12
SciTegic.value.DoubleValue
7.748

@<SCITEGIC>MOL_PROPERTY
Bond
SciTegic.value.DoubleValue
0.136

@<SCITEGIC>MOL_PROPERTY
Angle
SciTegic.value.DoubleValue
2.854

@<SCITEGIC>MOL_PROPERTY
Pdih
SciTegic.value.DoubleValue
4.998

@<SCITEGIC>MOL_PROPERTY
Idih
SciTegic.value.DoubleValue
0.001

@<SCITEGIC>MOL_PROPERTY
Tether
SciTegic.value.DoubleValue
0.000

@<TRIPOS>MOLECULE
guest-s22_vm2.mol2 : vm2 ligand conformer 2
          20          19           1
SMALL
USER_CHARGES
 
@<TRIPOS>ATOM
       1    C1      19.735240   18.452241   18.241106 C.2        1 MOL1        -0.2535
       2    H1      18.652315   18.360236   18.307448 H          1 MOL1         0.0845
       3    H2      20.219036   18.046447   17.354230 H          1 MOL1         0.0845
       4    C2      20.446333   19.036936   19.208642 C.2        1 MOL1        -0.1324
       5    H3      21.529726   19.118155   19.123066 H          1 MOL1         0.0833
       6    C3      19.844908   19.623306   20.466450 C.3        1 MOL1        -0.1813
       7    H4      18.757868   19.733602   20.352503 H          1 MOL1         0.0753
       8    H5      20.249129   20.630988   20.631752 H          1 MOL1         0.0753
       9    C4      20.145772   18.737160   21.693268 C.3        1 MOL1        -0.1855
      10    H6      19.743057   17.729377   21.521156 H          1 MOL1         0.0755
      11    H7      21.233143   18.630788   21.809513 H          1 MOL1         0.0755
      12    C5      19.541083   19.323305   22.987601 C.3        1 MOL1        -0.1855
      13    H8      18.453177   19.428752   22.873713 H          1 MOL1         0.0755
      14    H9      19.942844   20.331326   23.161078 H          1 MOL1         0.0755
      15    C6      19.842374   18.433833   24.218878 C.3        1 MOL1        -0.1958
      16    H10     19.435856   17.426692   24.067135 H          1 MOL1         0.0753
      17    H11     20.925525   18.329312   24.354753 H          1 MOL1         0.0753
      18    C7      19.254894   18.991976   25.510129 C.2        1 MOL1         0.6174
      19    O1      19.933952   19.757766   26.165181 O.co2      1 MOL1        -0.6695
      20    O2      18.126444   18.661477   25.816746 O.co2      1 MOL1        -0.6695
@<TRIPOS>BOND
    1     1     2    1
    2     1     3    1
    3     1     4    2
    4     4     5    1
    5     4     6    1
    6     6     7    1
    7     6     8    1
    8     6     9    1
    9     9    10    1
   10     9    11    1
   11     9    12    1
   12    12    13    1
   13    12    14    1
   14    12    15    1
   15    15    16    1
   16    15    17    1
   17    15    18    1
   18    18    19    1
   19    18    20    2
@<TRIPOS>SUBSTRUCTURE
       1 MOL1            1 RESIDUE      1      MOL     
@<SCITEGIC>MOL_PROPERTY
VM2 Rank
SciTegic.value.IntegerValue
2

@<SCITEGIC>MOL_PROPERTY
Conf_Id
SciTegic.value.IntegerValue
464

@<SCITEGIC>MOL_PROPERTY
Probability
SciTegic.value.DoubleValue
13.37

@<SCITEGIC>MOL_PROPERTY
Sum Probability
SciTegic.value.DoubleValue
26.95

@<SCITEGIC>MOL_PROPERTY
Delta G
SciTegic.value.DoubleValue
0.009

@<SCITEGIC>MOL_PROPERTY
G
SciTegic.value.DoubleValue
-21.880

@<SCITEGIC>MOL_PROPERTY
E
SciTegic.value.DoubleValue
-36.772

@<SCITEGIC>MOL_PROPERTY
-TS
SciTegic.value.DoubleValue
14.892

@<SCITEGIC>MOL_PROPERTY
U+W
SciTegic.value.DoubleValue
-52.869

@<SCITEGIC>MOL_PROPERTY
U
SciTegic.value.DoubleValue
6.632

@<SCITEGIC>MOL_PROPERTY
W
SciTegic.value.DoubleValue
-59.501

@<SCITEGIC>MOL_PROPERTY
W(PB)
SciTegic.value.DoubleValue
-61.760

@<SCITEGIC>MOL_PROPERTY
W(SA)
SciTegic.value.DoubleValue
2.259

@<SCITEGIC>MOL_PROPERTY
Valence
SciTegic.value.DoubleValue
9.076

@<SCITEGIC>MOL_PROPERTY
Coulomb
SciTegic.value.DoubleValue
-3.008

@<SCITEGIC>MOL_PROPERTY
VdW
SciTegic.value.DoubleValue
0.564

@<SCITEGIC>MOL_PROPERTY
VdW6
SciTegic.value.DoubleValue
-5.773

@<SCITEGIC>MOL_PROPERTY
VdW12
SciTegic.value.DoubleValue
6.337

@<SCITEGIC>MOL_PROPERTY
Bond
SciTegic.value.DoubleValue
0.084

@<SCITEGIC>MOL_PROPERTY
Angle
SciTegic.value.DoubleValue
2.239

@<SCITEGIC>MOL_PROPERTY
Pdih
SciTegic.value.DoubleValue
6.752

@<SCITEGIC>MOL_PROPERTY
Idih
SciTegic.value.DoubleValue
0.001

@<SCITEGIC>MOL_PROPERTY
Tether
SciTegic.value.DoubleValue
0.000

@<TRIPOS>MOLECULE
guest-s22_vm2.mol2 : vm2 ligand conformer 3
          20          19           1
SMALL
USER_CHARGES
 
@<TRIPOS>ATOM
       1    C1      19.835708   18.356746   18.256968 C.2        1 MOL1        -0.2535
       2    H1      19.562433   18.670480   17.250903 H          1 MOL1         0.0845
       3    H2      19.774514   17.293631   18.484195 H          1 MOL1         0.0845
       4    C2      20.227661   19.244800   19.174236 C.2        1 MOL1        -0.1324
       5    H3      20.281239   20.304726   18.926559 H          1 MOL1         0.0833
       6    C3      20.622642   18.884052   20.588969 C.3        1 MOL1        -0.1813
       7    H4      21.574053   19.371614   20.840454 H          1 MOL1         0.0753
       8    H5      20.790407   17.801620   20.672644 H          1 MOL1         0.0753
       9    C4      19.537431   19.315400   21.597486 C.3        1 MOL1        -0.1855
      10    H6      19.373176   20.398768   21.516636 H          1 MOL1         0.0755
      11    H7      18.586968   18.828289   21.339083 H          1 MOL1         0.0755
      12    C5      19.926323   18.957037   23.048295 C.3        1 MOL1        -0.1855
      13    H8      20.876873   19.443367   23.308196 H          1 MOL1         0.0755
      14    H9      20.089222   17.873438   23.131398 H          1 MOL1         0.0755
      15    C6      18.837149   19.389388   24.060592 C.3        1 MOL1        -0.1958
      16    H10     18.671761   20.471773   23.999845 H          1 MOL1         0.0753
      17    H11     17.884085   18.901815   23.822779 H          1 MOL1         0.0753
      18    C7      19.198297   19.045731   25.501237 C.2        1 MOL1         0.6174
      19    O1      19.821353   19.864874   26.147343 O.co2      1 MOL1        -0.6695
      20    O2      18.864436   17.959973   25.932873 O.co2      1 MOL1        -0.6695
@<TRIPOS>BOND
    1     1     2    1
    2     1     3    1
    3     1     4    2
    4     4     5    1
    5     4     6    1
    6     6     7    1
    7     6     8    1
    8     6     9    1
    9     9    10    1
   10     9    11    1
   11     9    12    1
   12    12    13    1
   13    12    14    1
   14    12    15    1
   15    15    16    1
   16    15    17    1
   17    15    18    1
   18    18    19    1
   19    18    20    2
@<TRIPOS>SUBSTRUCTURE
       1 MOL1            1 RESIDUE      1      MOL     
@<SCITEGIC>MOL_PROPERTY
VM2 Rank
SciTegic.value.IntegerValue
3

@<SCITEGIC>MOL_PROPERTY
Conf_Id
SciTegic.value.IntegerValue
691

@<SCITEGIC>MOL_PROPERTY
Probability
SciTegic.value.DoubleValue
12.14

@<SCITEGIC>MOL_PROPERTY
Sum Probability
SciTegic.value.DoubleValue
39.10

@<SCITEGIC>MOL_PROPERTY
Delta G
SciTegic.value.DoubleValue
0.067

@<SCITEGIC>MOL_PROPERTY
G
SciTegic.value.DoubleValue
-21.823

@<SCITEGIC>MOL_PROPERTY
E
SciTegic.value.DoubleValue
-36.714

@<SCITEGIC>MOL_PROPERTY
-TS
SciTegic.value.DoubleValue
14.891

@<SCITEGIC>MOL_PROPERTY
U+W
SciTegic.value.DoubleValue
-52.810

@<SCITEGIC>MOL_PROPERTY
U
SciTegic.value.DoubleValue
6.633

@<SCITEGIC>MOL_PROPERTY
W
SciTegic.value.DoubleValue
-59.443

@<SCITEGIC>MOL_PROPERTY
W(PB)
SciTegic.value.DoubleValue
-61.702

@<SCITEGIC>MOL_PROPERTY
W(SA)
SciTegic.value.DoubleValue
2.259

@<SCITEGIC>MOL_PROPERTY
Valence
SciTegic.value.DoubleValue
9.076

@<SCITEGIC>MOL_PROPERTY
Coulomb
SciTegic.value.DoubleValue
-3.007

@<SCITEGIC>MOL_PROPERTY
VdW
SciTegic.value.DoubleValue
0.564

@<SCITEGIC>MOL_PROPERTY
VdW6
SciTegic.value.DoubleValue
-5.773

@<SCITEGIC>MOL_PROPERTY
VdW12
SciTegic.value.DoubleValue
6.337

@<SCITEGIC>MOL_PROPERTY
Bond
SciTegic.value.DoubleValue
0.084

@<SCITEGIC>MOL_PROPERTY
Angle
SciTegic.value.DoubleValue
2.239

@<SCITEGIC>MOL_PROPERTY
Pdih
SciTegic.value.DoubleValue
6.752

@<SCITEGIC>MOL_PROPERTY
Idih
SciTegic.value.DoubleValue
0.001

@<SCITEGIC>MOL_PROPERTY
Tether
SciTegic.value.DoubleValue
0.000

@<TRIPOS>MOLECULE
guest-s22_vm2.mol2 : vm2 ligand conformer 4
          20          19           1
SMALL
USER_CHARGES
 
@<TRIPOS>ATOM
       1    C1      19.231011   18.403544   18.728656 C.2        1 MOL1        -0.2535
       2    H1      18.250654   18.255186   18.279116 H          1 MOL1         0.0845
       3    H2      20.063337   17.836939   18.314290 H          1 MOL1         0.0845
       4    C2      19.401219   19.246274   19.750668 C.2        1 MOL1        -0.1324
       5    H3      18.554969   19.805839   20.148211 H          1 MOL1         0.0833
       6    C3      20.733299   19.507687   20.420758 C.3        1 MOL1        -0.1813
       7    H4      20.863214   20.585386   20.587329 H          1 MOL1         0.0753
       8    H5      21.549982   19.199180   19.754119 H          1 MOL1         0.0753
       9    C4      20.875858   18.751773   21.761029 C.3        1 MOL1        -0.1855
      10    H6      20.729398   17.676230   21.590554 H          1 MOL1         0.0755
      11    H7      21.903731   18.874773   22.128760 H          1 MOL1         0.0755
      12    C5      19.887832   19.250436   22.840464 C.3        1 MOL1        -0.1855
      13    H8      18.854024   19.097157   22.502192 H          1 MOL1         0.0755
      14    H9      20.017785   20.331075   22.991093 H          1 MOL1         0.0755
      15    C6      20.091784   18.517863   24.189463 C.3        1 MOL1        -0.1958
      16    H10     19.953449   17.437940   24.058172 H          1 MOL1         0.0753
      17    H11     21.114502   18.672105   24.553868 H          1 MOL1         0.0753
      18    C7      19.127607   18.990970   25.271396 C.2        1 MOL1         0.6174
      19    O1      19.462212   19.929298   25.967298 O.co2      1 MOL1        -0.6695
      20    O2      18.060177   18.420154   25.378269 O.co2      1 MOL1        -0.6695
@<TRIPOS>BOND
    1     1     2    1
    2     1     3    1
    3     1     4    2
    4     4     5    1
    5     4     6    1
    6     6     7    1
    7     6     8    1
    8     6     9    1
    9     9    10    1
   10     9    11    1
   11     9    12    1
   12    12    13    1
   13    12    14    1
   14    12    15    1
   15    15    16    1
   16    15    17    1
   17    15    18    1
   18    18    19    1
   19    18    20    2
@<TRIPOS>SUBSTRUCTURE
       1 MOL1            1 RESIDUE      1      MOL     
@<SCITEGIC>MOL_PROPERTY
VM2 Rank
SciTegic.value.IntegerValue
4

@<SCITEGIC>MOL_PROPERTY
Conf_Id
SciTegic.value.IntegerValue
900

@<SCITEGIC>MOL_PROPERTY
Probability
SciTegic.value.DoubleValue
4.86

@<SCITEGIC>MOL_PROPERTY
Sum Probability
SciTegic.value.DoubleValue
43.95

@<SCITEGIC>MOL_PROPERTY
Delta G
SciTegic.value.DoubleValue
0.613

@<SCITEGIC>MOL_PROPERTY
G
SciTegic.value.DoubleValue
-21.277

@<SCITEGIC>MOL_PROPERTY
E
SciTegic.value.DoubleValue
-36.308

@<SCITEGIC>MOL_PROPERTY
-TS
SciTegic.value.DoubleValue
15.032

@<SCITEGIC>MOL_PROPERTY
U+W
SciTegic.value.DoubleValue
-52.405

@<SCITEGIC>MOL_PROPERTY
U
SciTegic.value.DoubleValue
7.828

@<SCITEGIC>MOL_PROPERTY
W
SciTegic.value.DoubleValue
-60.233

@<SCITEGIC>MOL_PROPERTY
W(PB)
SciTegic.value.DoubleValue
-62.486

@<SCITEGIC>MOL_PROPERTY
W(SA)
SciTegic.value.DoubleValue
2.254

@<SCITEGIC>MOL_PROPERTY
Valence
SciTegic.value.DoubleValue
9.300

@<SCITEGIC>MOL_PROPERTY
Coulomb
SciTegic.value.DoubleValue
-2.080

@<SCITEGIC>MOL_PROPERTY
VdW
SciTegic.value.DoubleValue
0.608

@<SCITEGIC>MOL_PROPERTY
VdW6
SciTegic.value.DoubleValue
-6.341

@<SCITEGIC>MOL_PROPERTY
VdW12
SciTegic.value.DoubleValue
6.949

@<SCITEGIC>MOL_PROPERTY
Bond
SciTegic.value.DoubleValue
0.103

@<SCITEGIC>MOL_PROPERTY
Angle
SciTegic.value.DoubleValue
2.334

@<SCITEGIC>MOL_PROPERTY
Pdih
SciTegic.value.DoubleValue
6.862

@<SCITEGIC>MOL_PROPERTY
Idih
SciTegic.value.DoubleValue
0.001

@<SCITEGIC>MOL_PROPERTY
Tether
SciTegic.value.DoubleValue
0.000

@<TRIPOS>MOLECULE
guest-s22_vm2.mol2 : vm2 ligand conformer 5
          20          19           1
SMALL
USER_CHARGES
 
@<TRIPOS>ATOM
       1    C1      21.242793   19.010595   18.987926 C.2        1 MOL1        -0.2535
       2    H1      20.977352   18.112895   18.431884 H          1 MOL1         0.0845
       3    H2      22.218053   19.452303   18.790541 H          1 MOL1         0.0845
       4    C2      20.408705   19.550148   19.880594 C.2        1 MOL1        -0.1324
       5    H3      20.693072   20.450797   20.423970 H          1 MOL1         0.0833
       6    C3      19.037109   18.995870   20.201992 C.3        1 MOL1        -0.1813
       7    H4      18.702477   18.340006   19.386874 H          1 MOL1         0.0753
       8    H5      18.306580   19.813976   20.257587 H          1 MOL1         0.0753
       9    C4      19.021920   18.192384   21.521930 C.3        1 MOL1        -0.1855
      10    H6      18.041206   17.709407   21.630602 H          1 MOL1         0.0755
      11    H7      19.765507   17.385361   21.466268 H          1 MOL1         0.0755
      12    C5      19.294853   19.071490   22.763993 C.3        1 MOL1        -0.1855
      13    H8      18.566496   19.893238   22.803815 H          1 MOL1         0.0755
      14    H9      20.290041   19.530216   22.687477 H          1 MOL1         0.0755
      15    C6      19.215235   18.253485   24.076470 C.3        1 MOL1        -0.1958
      16    H10     18.222347   17.799826   24.180876 H          1 MOL1         0.0753
      17    H11     19.945398   17.435497   24.057284 H          1 MOL1         0.0753
      18    C7      19.482367   19.098045   25.317198 C.2        1 MOL1         0.6174
      19    O1      20.628294   19.194417   25.709909 O.co2      1 MOL1        -0.6695
      20    O2      18.539724   19.651567   25.847988 O.co2      1 MOL1        -0.6695
@<TRIPOS>BOND
    1     1     2    1
    2     1     3    1
    3     1     4    2
    4     4     5    1
    5     4     6    1
    6     6     7    1
    7     6     8    1
    8     6     9    1
    9     9    10    1
   10     9    11    1
   11     9    12    1
   12    12    13    1
   13    12    14    1
   14    12    15    1
   15    15    16    1
   16    15    17    1
   17    15    18    1
   18    18    19    1
   19    18    20    2
@<TRIPOS>SUBSTRUCTURE
       1 MOL1            1 RESIDUE      1      MOL     
@<SCITEGIC>MOL_PROPERTY
VM2 Rank
SciTegic.value.IntegerValue
5

@<SCITEGIC>MOL_PROPERTY
Conf_Id
SciTegic.value.IntegerValue
1093

@<SCITEGIC>MOL_PROPERTY
Probability
SciTegic.value.DoubleValue
4.70

@<SCITEGIC>MOL_PROPERTY
Sum Probability
SciTegic.value.DoubleValue
48.66

@<SCITEGIC>MOL_PROPERTY
Delta G
SciTegic.value.DoubleValue
0.632

@<SCITEGIC>MOL_PROPERTY
G
SciTegic.value.DoubleValue
-21.257

@<SCITEGIC>MOL_PROPERTY
E
SciTegic.value.DoubleValue
-36.290

@<SCITEGIC>MOL_PROPERTY
-TS
SciTegic.value.DoubleValue
15.033

@<SCITEGIC>MOL_PROPERTY
U+W
SciTegic.value.DoubleValue
-52.387

@<SCITEGIC>MOL_PROPERTY
U
SciTegic.value.DoubleValue
7.828

@<SCITEGIC>MOL_PROPERTY
W
SciTegic.value.DoubleValue
-60.214

@<SCITEGIC>MOL_PROPERTY
W(PB)
SciTegic.value.DoubleValue
-62.457

@<SCITEGIC>MOL_PROPERTY
W(SA)
SciTegic.value.DoubleValue
2.242

@<SCITEGIC>MOL_PROPERTY
Valence
SciTegic.value.DoubleValue
9.300

@<SCITEGIC>MOL_PROPERTY
Coulomb
SciTegic.value.DoubleValue
-2.080

@<SCITEGIC>MOL_PROPERTY
VdW
SciTegic.value.DoubleValue
0.608

@<SCITEGIC>MOL_PROPERTY
VdW6
SciTegic.value.DoubleValue
-6.341

@<SCITEGIC>MOL_PROPERTY
VdW12
SciTegic.value.DoubleValue
6.949

@<SCITEGIC>MOL_PROPERTY
Bond
SciTegic.value.DoubleValue
0.104

@<SCITEGIC>MOL_PROPERTY
Angle
SciTegic.value.DoubleValue
2.334

@<SCITEGIC>MOL_PROPERTY
Pdih
SciTegic.value.DoubleValue
6.862

@<SCITEGIC>MOL_PROPERTY
Idih
SciTegic.value.DoubleValue
0.001

@<SCITEGIC>MOL_PROPERTY
Tether
SciTegic.value.DoubleValue
0.000

@<TRIPOS>MOLECULE
guest-s22_vm2.mol2 : vm2 ligand conformer 6
          20          19           1
SMALL
USER_CHARGES
 
@<TRIPOS>ATOM
       1    C1      19.721840   18.915885   18.306255 C.2        1 MOL1        -0.2535
       2    H1      18.743250   19.392994   18.323740 H          1 MOL1         0.0845
       3    H2      20.215618   18.820827   17.340643 H          1 MOL1         0.0845
       4    C2      20.298478   18.465532   19.423548 C.2        1 MOL1        -0.1324
       5    H3      21.279069   17.991677   19.384407 H          1 MOL1         0.0833
       6    C3      19.674277   18.561521   20.797914 C.3        1 MOL1        -0.1813
       7    H4      19.736905   17.583113   21.290706 H          1 MOL1         0.0753
       8    H5      18.606972   18.807240   20.713797 H          1 MOL1         0.0753
       9    C4      20.383108   19.633892   21.655463 C.3        1 MOL1        -0.1855
      10    H6      21.437264   19.357870   21.795320 H          1 MOL1         0.0755
      11    H7      20.381978   20.584547   21.104470 H          1 MOL1         0.0755
      12    C5      19.717212   19.861537   23.033484 C.3        1 MOL1        -0.1855
      13    H8      18.666196   20.150557   22.894834 H          1 MOL1         0.0755
      14    H9      20.209754   20.711090   23.526594 H          1 MOL1         0.0755
      15    C6      19.795909   18.628150   23.970253 C.3        1 MOL1        -0.1958
      16    H10     19.236038   17.785890   23.548489 H          1 MOL1         0.0753
      17    H11     20.837354   18.303837   24.082497 H          1 MOL1         0.0753
      18    C7      19.235341   18.907459   25.360116 C.2        1 MOL1         0.6174
      19    O1      19.994823   19.325892   26.211487 O.co2      1 MOL1        -0.6695
      20    O2      18.050012   18.718132   25.549481 O.co2      1 MOL1        -0.6695
@<TRIPOS>BOND
    1     1     2    1
    2     1     3    1
    3     1     4    2
    4     4     5    1
    5     4     6    1
    6     6     7    1
    7     6     8    1
    8     6     9    1
    9     9    10    1
   10     9    11    1
   11     9    12    1
   12    12    13    1
   13    12    14    1
   14    12    15    1
   15    15    16    1
   16    15    17    1
   17    15    18    1
   18    18    19    1
   19    18    20    2
@<TRIPOS>SUBSTRUCTURE
       1 MOL1            1 RESIDUE      1      MOL     
@<SCITEGIC>MOL_PROPERTY
VM2 Rank
SciTegic.value.IntegerValue
6

@<SCITEGIC>MOL_PROPERTY
Conf_Id
SciTegic.value.IntegerValue
902

@<SCITEGIC>MOL_PROPERTY
Probability
SciTegic.value.DoubleValue
3.95

@<SCITEGIC>MOL_PROPERTY
Sum Probability
SciTegic.value.DoubleValue
52.60

@<SCITEGIC>MOL_PROPERTY
Delta G
SciTegic.value.DoubleValue
0.737

@<SCITEGIC>MOL_PROPERTY
G
SciTegic.value.DoubleValue
-21.153

@<SCITEGIC>MOL_PROPERTY
E
SciTegic.value.DoubleValue
-36.159

@<SCITEGIC>MOL_PROPERTY
-TS
SciTegic.value.DoubleValue
15.007

@<SCITEGIC>MOL_PROPERTY
U+W
SciTegic.value.DoubleValue
-52.256

@<SCITEGIC>MOL_PROPERTY
U
SciTegic.value.DoubleValue
7.491

@<SCITEGIC>MOL_PROPERTY
W
SciTegic.value.DoubleValue
-59.747

@<SCITEGIC>MOL_PROPERTY
W(PB)
SciTegic.value.DoubleValue
-61.973

@<SCITEGIC>MOL_PROPERTY
W(SA)
SciTegic.value.DoubleValue
2.226

@<SCITEGIC>MOL_PROPERTY
Valence
SciTegic.value.DoubleValue
9.604

@<SCITEGIC>MOL_PROPERTY
Coulomb
SciTegic.value.DoubleValue
-2.799

@<SCITEGIC>MOL_PROPERTY
VdW
SciTegic.value.DoubleValue
0.686

@<SCITEGIC>MOL_PROPERTY
VdW6
SciTegic.value.DoubleValue
-6.435

@<SCITEGIC>MOL_PROPERTY
VdW12
SciTegic.value.DoubleValue
7.121

@<SCITEGIC>MOL_PROPERTY
Bond
SciTegic.value.DoubleValue
0.124

@<SCITEGIC>MOL_PROPERTY
Angle
SciTegic.value.DoubleValue
2.493

@<SCITEGIC>MOL_PROPERTY
Pdih
SciTegic.value.DoubleValue
6.986

@<SCITEGIC>MOL_PROPERTY
Idih
SciTegic.value.DoubleValue
0.001

@<SCITEGIC>MOL_PROPERTY
Tether
SciTegic.value.DoubleValue
0.000

@<TRIPOS>MOLECULE
guest-s22_vm2.mol2 : vm2 ligand conformer 7
          20          19           1
SMALL
USER_CHARGES
 
@<TRIPOS>ATOM
       1    C1      18.638809   19.559347   19.394220 C.2        1 MOL1        -0.2535
       2    H1      17.730554   19.221250   18.898368 H          1 MOL1         0.0845
       3    H2      18.702638   20.613504   19.658979 H          1 MOL1         0.0845
       4    C2      19.632407   18.710017   19.668835 C.2        1 MOL1        -0.1324
       5    H3      19.547554   17.658085   19.397483 H          1 MOL1         0.0833
       6    C3      20.922572   19.105467   20.355179 C.3        1 MOL1        -0.1813
       7    H4      21.013061   20.198950   20.407935 H          1 MOL1         0.0753
       8    H5      21.771288   18.753250   19.753957 H          1 MOL1         0.0753
       9    C4      21.036788   18.509202   21.776223 C.3        1 MOL1        -0.1855
      10    H6      20.945417   17.415608   21.723427 H          1 MOL1         0.0755
      11    H7      22.039669   18.722424   22.170746 H          1 MOL1         0.0755
      12    C5      19.977246   19.076974   22.748123 C.3        1 MOL1        -0.1855
      13    H8      18.968652   18.846785   22.378010 H          1 MOL1         0.0755
      14    H9      20.059302   20.172004   22.786391 H          1 MOL1         0.0755
      15    C6      20.137955   18.500888   24.176519 C.3        1 MOL1        -0.1958
      16    H10     20.045782   17.408331   24.156316 H          1 MOL1         0.0753
      17    H11     21.134345   18.735362   24.569860 H          1 MOL1         0.0753
      18    C7      19.103214   19.046003   25.154402 C.2        1 MOL1         0.6174
      19    O1      19.362547   20.072758   25.750448 O.co2      1 MOL1        -0.6695
      20    O2      18.059464   18.437343   25.284050 O.co2      1 MOL1        -0.6695
@<TRIPOS>BOND
    1     1     2    1
    2     1     3    1
    3     1     4    2
    4     4     5    1
    5     4     6    1
    6     6     7    1
    7     6     8    1
    8     6     9    1
    9     9    10    1
   10     9    11    1
   11     9    12    1
   12    12    13    1
   13    12    14    1
   14    12    15    1
   15    15    16    1
   16    15    17    1
   17    15    18    1
   18    18    19    1
   19    18    20    2
@<TRIPOS>SUBSTRUCTURE
       1 MOL1            1 RESIDUE      1      MOL     
@<SCITEGIC>MOL_PROPERTY
VM2 Rank
SciTegic.value.IntegerValue
7

@<SCITEGIC>MOL_PROPERTY
Conf_Id
SciTegic.value.IntegerValue
1047

@<SCITEGIC>MOL_PROPERTY
Probability
SciTegic.value.DoubleValue
3.86

@<SCITEGIC>MOL_PROPERTY
Sum Probability
SciTegic.value.DoubleValue
56.46

@<SCITEGIC>MOL_PROPERTY
Delta G
SciTegic.value.DoubleValue
0.750

@<SCITEGIC>MOL_PROPERTY
G
SciTegic.value.DoubleValue
-21.140

@<SCITEGIC>MOL_PROPERTY
E
SciTegic.value.DoubleValue
-36.251

@<SCITEGIC>MOL_PROPERTY
-TS
SciTegic.value.DoubleValue
15.112

@<SCITEGIC>MOL_PROPERTY
U+W
SciTegic.value.DoubleValue
-52.348

@<SCITEGIC>MOL_PROPERTY
U
SciTegic.value.DoubleValue
8.428

@<SCITEGIC>MOL_PROPERTY
W
SciTegic.value.DoubleValue
-60.776

@<SCITEGIC>MOL_PROPERTY
W(PB)
SciTegic.value.DoubleValue
-62.984

@<SCITEGIC>MOL_PROPERTY
W(SA)
SciTegic.value.DoubleValue
2.208

@<SCITEGIC>MOL_PROPERTY
Valence
SciTegic.value.DoubleValue
9.231

@<SCITEGIC>MOL_PROPERTY
Coulomb
SciTegic.value.DoubleValue
-1.304

@<SCITEGIC>MOL_PROPERTY
VdW
SciTegic.value.DoubleValue
0.501

@<SCITEGIC>MOL_PROPERTY
VdW6
SciTegic.value.DoubleValue
-6.515

@<SCITEGIC>MOL_PROPERTY
VdW12
SciTegic.value.DoubleValue
7.016

@<SCITEGIC>MOL_PROPERTY
Bond
SciTegic.value.DoubleValue
0.103

@<SCITEGIC>MOL_PROPERTY
Angle
SciTegic.value.DoubleValue
2.328

@<SCITEGIC>MOL_PROPERTY
Pdih
SciTegic.value.DoubleValue
6.799

@<SCITEGIC>MOL_PROPERTY
Idih
SciTegic.value.DoubleValue
0.001

@<SCITEGIC>MOL_PROPERTY
Tether
SciTegic.value.DoubleValue
0.000

@<TRIPOS>MOLECULE
guest-s22_vm2.mol2 : vm2 ligand conformer 8
          20          19           1
SMALL
USER_CHARGES
 
@<TRIPOS>ATOM
       1    C1      20.396441   17.503574   19.623174 C.2        1 MOL1        -0.2535
       2    H1      21.411840   17.444854   20.011679 H          1 MOL1         0.0845
       3    H2      19.972298   16.599134   19.190511 H          1 MOL1         0.0845
       4    C2      19.693798   18.638217   19.676926 C.2        1 MOL1        -0.1324
       5    H3      18.677867   18.675110   19.284602 H          1 MOL1         0.0833
       6    C3      20.215005   19.933104   20.263092 C.3        1 MOL1        -0.1813
       7    H4      20.072217   20.740590   19.532735 H          1 MOL1         0.0753
       8    H5      21.296365   19.867613   20.444885 H          1 MOL1         0.0753
       9    C4      19.493447   20.314441   21.575296 C.3        1 MOL1        -0.1855
      10    H6      19.821471   21.317056   21.881966 H          1 MOL1         0.0755
      11    H7      18.411847   20.379163   21.393540 H          1 MOL1         0.0755
      12    C5      19.773065   19.315706   22.721560 C.3        1 MOL1        -0.1855
      13    H8      20.856160   19.239733   22.890142 H          1 MOL1         0.0755
      14    H9      19.424753   18.313121   22.437428 H          1 MOL1         0.0755
      15    C6      19.078090   19.740614   24.038556 C.3        1 MOL1        -0.1958
      16    H10     19.426072   20.733574   24.347468 H          1 MOL1         0.0753
      17    H11     17.993810   19.808573   23.889212 H          1 MOL1         0.0753
      18    C7      19.338894   18.770311   25.185109 C.2        1 MOL1         0.6174
      19    O1      20.323137   18.949169   25.875054 O.co2      1 MOL1        -0.6695
      20    O2      18.559122   17.852864   25.349233 O.co2      1 MOL1        -0.6695
@<TRIPOS>BOND
    1     1     2    1
    2     1     3    1
    3     1     4    2
    4     4     5    1
    5     4     6    1
    6     6     7    1
    7     6     8    1
    8     6     9    1
    9     9    10    1
   10     9    11    1
   11     9    12    1
   12    12    13    1
   13    12    14    1
   14    12    15    1
   15    15    16    1
   16    15    17    1
   17    15    18    1
   18    18    19    1
   19    18    20    2
@<TRIPOS>SUBSTRUCTURE
       1 MOL1            1 RESIDUE      1      MOL     
@<SCITEGIC>MOL_PROPERTY
VM2 Rank
SciTegic.value.IntegerValue
8

@<SCITEGIC>MOL_PROPERTY
Conf_Id
SciTegic.value.IntegerValue
712

@<SCITEGIC>MOL_PROPERTY
Probability
SciTegic.value.DoubleValue
3.80

@<SCITEGIC>MOL_PROPERTY
Sum Probability
SciTegic.value.DoubleValue
60.26

@<SCITEGIC>MOL_PROPERTY
Delta G
SciTegic.value.DoubleValue
0.760

@<SCITEGIC>MOL_PROPERTY
G
SciTegic.value.DoubleValue
-21.130

@<SCITEGIC>MOL_PROPERTY
E
SciTegic.value.DoubleValue
-36.242

@<SCITEGIC>MOL_PROPERTY
-TS
SciTegic.value.DoubleValue
15.112

@<SCITEGIC>MOL_PROPERTY
U+W
SciTegic.value.DoubleValue
-52.338

@<SCITEGIC>MOL_PROPERTY
U
SciTegic.value.DoubleValue
8.429

@<SCITEGIC>MOL_PROPERTY
W
SciTegic.value.DoubleValue
-60.767

@<SCITEGIC>MOL_PROPERTY
W(PB)
SciTegic.value.DoubleValue
-62.976

@<SCITEGIC>MOL_PROPERTY
W(SA)
SciTegic.value.DoubleValue
2.209

@<SCITEGIC>MOL_PROPERTY
Valence
SciTegic.value.DoubleValue
9.230

@<SCITEGIC>MOL_PROPERTY
Coulomb
SciTegic.value.DoubleValue
-1.303

@<SCITEGIC>MOL_PROPERTY
VdW
SciTegic.value.DoubleValue
0.502

@<SCITEGIC>MOL_PROPERTY
VdW6
SciTegic.value.DoubleValue
-6.515

@<SCITEGIC>MOL_PROPERTY
VdW12
SciTegic.value.DoubleValue
7.017

@<SCITEGIC>MOL_PROPERTY
Bond
SciTegic.value.DoubleValue
0.103

@<SCITEGIC>MOL_PROPERTY
Angle
SciTegic.value.DoubleValue
2.328

@<SCITEGIC>MOL_PROPERTY
Pdih
SciTegic.value.DoubleValue
6.799

@<SCITEGIC>MOL_PROPERTY
Idih
SciTegic.value.DoubleValue
0.000

@<SCITEGIC>MOL_PROPERTY
Tether
SciTegic.value.DoubleValue
0.000

@<TRIPOS>MOLECULE
guest-s22_vm2.mol2 : vm2 ligand conformer 9
          20          19           1
SMALL
USER_CHARGES
 
@<TRIPOS>ATOM
       1    C1      19.831553   18.536231   18.333293 C.2        1 MOL1        -0.2535
       2    H1      20.235816   18.751421   17.345607 H          1 MOL1         0.0845
       3    H2      19.255039   17.619931   18.449931 H          1 MOL1         0.0845
       4    C2      20.038976   19.365370   19.359538 C.2        1 MOL1        -0.1324
       5    H3      20.619637   20.277227   19.221775 H          1 MOL1         0.0833
       6    C3      19.509181   19.133763   20.757177 C.3        1 MOL1        -0.1813
       7    H4      18.738450   18.351172   20.746164 H          1 MOL1         0.0753
       8    H5      19.025032   20.051121   21.115089 H          1 MOL1         0.0753
       9    C4      20.645666   18.723114   21.720284 C.3        1 MOL1        -0.1855
      10    H6      21.169342   17.853939   21.298814 H          1 MOL1         0.0755
      11    H7      21.387137   19.531371   21.782993 H          1 MOL1         0.0755
      12    C5      20.150193   18.359711   23.140363 C.3        1 MOL1        -0.1855
      13    H8      20.999112   17.973473   23.721441 H          1 MOL1         0.0755
      14    H9      19.418232   17.542376   23.080452 H          1 MOL1         0.0755
      15    C6      19.527819   19.557358   23.904085 C.3        1 MOL1        -0.1958
      16    H10     20.233924   20.395771   23.933479 H          1 MOL1         0.0753
      17    H11     18.622978   19.911068   23.397237 H          1 MOL1         0.0753
      18    C7      19.148651   19.208121   25.338738 C.2        1 MOL1         0.6174
      19    O1      19.981889   19.371170   26.208142 O.co2      1 MOL1        -0.6695
      20    O2      18.037073   18.763163   25.546380 O.co2      1 MOL1        -0.6695
@<TRIPOS>BOND
    1     1     2    1
    2     1     3    1
    3     1     4    2
    4     4     5    1
    5     4     6    1
    6     6     7    1
    7     6     8    1
    8     6     9    1
    9     9    10    1
   10     9    11    1
   11     9    12    1
   12    12    13    1
   13    12    14    1
   14    12    15    1
   15    15    16    1
   16    15    17    1
   17    15    18    1
   18    18    19    1
   19    18    20    2
@<TRIPOS>SUBSTRUCTURE
       1 MOL1            1 RESIDUE      1      MOL     
@<SCITEGIC>MOL_PROPERTY
VM2 Rank
SciTegic.value.IntegerValue
9

@<SCITEGIC>MOL_PROPERTY
Conf_Id
SciTegic.value.IntegerValue
373

@<SCITEGIC>MOL_PROPERTY
Probability
SciTegic.value.DoubleValue
3.72

@<SCITEGIC>MOL_PROPERTY
Sum Probability
SciTegic.value.DoubleValue
63.98

@<SCITEGIC>MOL_PROPERTY
Delta G
SciTegic.value.DoubleValue
0.772

@<SCITEGIC>MOL_PROPERTY
G
SciTegic.value.DoubleValue
-21.118

@<SCITEGIC>MOL_PROPERTY
E
SciTegic.value.DoubleValue
-36.124

@<SCITEGIC>MOL_PROPERTY
-TS
SciTegic.value.DoubleValue
15.006

@<SCITEGIC>MOL_PROPERTY
U+W
SciTegic.value.DoubleValue
-52.220

@<SCITEGIC>MOL_PROPERTY
U
SciTegic.value.DoubleValue
7.491

@<SCITEGIC>MOL_PROPERTY
W
SciTegic.value.DoubleValue
-59.712

@<SCITEGIC>MOL_PROPERTY
W(PB)
SciTegic.value.DoubleValue
-61.947

@<SCITEGIC>MOL_PROPERTY
W(SA)
SciTegic.value.DoubleValue
2.236

@<SCITEGIC>MOL_PROPERTY
Valence
SciTegic.value.DoubleValue
9.604

@<SCITEGIC>MOL_PROPERTY
Coulomb
SciTegic.value.DoubleValue
-2.799

@<SCITEGIC>MOL_PROPERTY
VdW
SciTegic.value.DoubleValue
0.686

@<SCITEGIC>MOL_PROPERTY
VdW6
SciTegic.value.DoubleValue
-6.435

@<SCITEGIC>MOL_PROPERTY
VdW12
SciTegic.value.DoubleValue
7.121

@<SCITEGIC>MOL_PROPERTY
Bond
SciTegic.value.DoubleValue
0.124

@<SCITEGIC>MOL_PROPERTY
Angle
SciTegic.value.DoubleValue
2.493

@<SCITEGIC>MOL_PROPERTY
Pdih
SciTegic.value.DoubleValue
6.986

@<SCITEGIC>MOL_PROPERTY
Idih
SciTegic.value.DoubleValue
0.001

@<SCITEGIC>MOL_PROPERTY
Tether
SciTegic.value.DoubleValue
0.000

@<TRIPOS>MOLECULE
guest-s22_vm2.mol2 : vm2 ligand conformer 10
          20          19           1
SMALL
USER_CHARGES
 
@<TRIPOS>ATOM
       1    C1      20.749813   18.724845   18.701358 C.2        1 MOL1        -0.2535
       2    H1      21.642110   18.999405   19.259853 H          1 MOL1         0.0845
       3    H2      20.879258   18.515267   17.640935 H          1 MOL1         0.0845
       4    C2      19.542666   18.640586   19.272008 C.2        1 MOL1        -0.1324
       5    H3      18.686022   18.358988   18.660067 H          1 MOL1         0.0833
       6    C3      19.206249   18.902958   20.730524 C.3        1 MOL1        -0.1813
       7    H4      18.796555   17.981284   21.162252 H          1 MOL1         0.0753
       8    H5      18.393532   19.640090   20.776078 H          1 MOL1         0.0753
       9    C4      20.390083   19.406128   21.593406 C.3        1 MOL1        -0.1855
      10    H6      21.183127   18.646208   21.615228 H          1 MOL1         0.0755
      11    H7      20.821017   20.299595   21.121259 H          1 MOL1         0.0755
      12    C5      19.985340   19.769858   23.042159 C.3        1 MOL1        -0.1855
      13    H8      19.195941   20.534047   23.027008 H          1 MOL1         0.0755
      14    H9      20.849272   20.227175   23.544149 H          1 MOL1         0.0755
      15    C6      19.512147   18.552404   23.878286 C.3        1 MOL1        -0.1958
      16    H10     18.594717   18.126475   23.456974 H          1 MOL1         0.0753
      17    H11     20.274167   17.764047   23.863826 H          1 MOL1         0.0753
      18    C7      19.230465   18.910825   25.332992 C.2        1 MOL1         0.6174
      19    O1      20.142160   18.824857   26.131840 O.co2      1 MOL1        -0.6695
      20    O2      18.112077   19.285538   25.625426 O.co2      1 MOL1        -0.6695
@<TRIPOS>BOND
    1     1     2    1
    2     1     3    1
    3     1     4    2
    4     4     5    1
    5     4     6    1
    6     6     7    1
    7     6     8    1
    8     6     9    1
    9     9    10    1
   10     9    11    1
   11     9    12    1
   12    12    13    1
   13    12    14    1
   14    12    15    1
   15    15    16    1
   16    15    17    1
   17    15    18    1
   18    18    19    1
   19    18    20    2
@<TRIPOS>SUBSTRUCTURE
       1 MOL1            1 RESIDUE      1      MOL     
@<SCITEGIC>MOL_PROPERTY
VM2 Rank
SciTegic.value.IntegerValue
10

@<SCITEGIC>MOL_PROPERTY
Conf_Id
SciTegic.value.IntegerValue
159

@<SCITEGIC>MOL_PROPERTY
Probability
SciTegic.value.DoubleValue
3.61

@<SCITEGIC>MOL_PROPERTY
Sum Probability
SciTegic.value.DoubleValue
67.59

@<SCITEGIC>MOL_PROPERTY
Delta G
SciTegic.value.DoubleValue
0.790

@<SCITEGIC>MOL_PROPERTY
G
SciTegic.value.DoubleValue
-21.100

@<SCITEGIC>MOL_PROPERTY
E
SciTegic.value.DoubleValue
-36.457

@<SCITEGIC>MOL_PROPERTY
-TS
SciTegic.value.DoubleValue
15.358

@<SCITEGIC>MOL_PROPERTY
U+W
SciTegic.value.DoubleValue
-52.554

@<SCITEGIC>MOL_PROPERTY
U
SciTegic.value.DoubleValue
7.428

@<SCITEGIC>MOL_PROPERTY
W
SciTegic.value.DoubleValue
-59.981

@<SCITEGIC>MOL_PROPERTY
W(PB)
SciTegic.value.DoubleValue
-62.178

@<SCITEGIC>MOL_PROPERTY
W(SA)
SciTegic.value.DoubleValue
2.196

@<SCITEGIC>MOL_PROPERTY
Valence
SciTegic.value.DoubleValue
8.549

@<SCITEGIC>MOL_PROPERTY
Coulomb
SciTegic.value.DoubleValue
-2.540

@<SCITEGIC>MOL_PROPERTY
VdW
SciTegic.value.DoubleValue
1.419

@<SCITEGIC>MOL_PROPERTY
VdW6
SciTegic.value.DoubleValue
-7.115

@<SCITEGIC>MOL_PROPERTY
VdW12
SciTegic.value.DoubleValue
8.535

@<SCITEGIC>MOL_PROPERTY
Bond
SciTegic.value.DoubleValue
0.184

@<SCITEGIC>MOL_PROPERTY
Angle
SciTegic.value.DoubleValue
3.112

@<SCITEGIC>MOL_PROPERTY
Pdih
SciTegic.value.DoubleValue
5.252

@<SCITEGIC>MOL_PROPERTY
Idih
SciTegic.value.DoubleValue
0.001

@<SCITEGIC>MOL_PROPERTY
Tether
SciTegic.value.DoubleValue
0.000

@<TRIPOS>MOLECULE
guest-s22_vm2.mol2 : vm2 ligand conformer 11
          20          19           1
SMALL
USER_CHARGES
 
@<TRIPOS>ATOM
       1    C1      20.552826   17.981549   18.723160 C.2        1 MOL1        -0.2535
       2    H1      20.851850   17.092905   19.276761 H          1 MOL1         0.0845
       3    H2      20.487706   17.898381   17.639602 H          1 MOL1         0.0845
       4    C2      20.273597   19.129957   19.345183 C.2        1 MOL1        -0.1324
       5    H3      19.975523   20.007772   18.772270 H          1 MOL1         0.0833
       6    C3      20.343259   19.321105   20.844018 C.3        1 MOL1        -0.1813
       7    H4      20.898529   20.240968   21.070867 H          1 MOL1         0.0753
       8    H5      20.901315   18.493176   21.299764 H          1 MOL1         0.0753
       9    C4      18.928185   19.404769   21.459266 C.3        1 MOL1        -0.1855
      10    H6      18.360272   20.188521   20.939368 H          1 MOL1         0.0755
      11    H7      18.392570   18.462591   21.278688 H          1 MOL1         0.0755
      12    C5      18.930908   19.720725   22.974021 C.3        1 MOL1        -0.1855
      13    H8      17.893975   19.875401   23.303180 H          1 MOL1         0.0755
      14    H9      19.458060   20.667653   23.155157 H          1 MOL1         0.0755
      15    C6      19.565616   18.600837   23.838924 C.3        1 MOL1        -0.1958
      16    H10     19.076246   17.641162   23.634137 H          1 MOL1         0.0753
      17    H11     20.628243   18.482274   23.599204 H          1 MOL1         0.0753
      18    C7      19.456240   18.877805   25.334001 C.2        1 MOL1         0.6174
      19    O1      20.346035   19.511089   25.866849 O.co2      1 MOL1        -0.6695
      20    O2      18.474334   18.470165   25.922578 O.co2      1 MOL1        -0.6695
@<TRIPOS>BOND
    1     1     2    1
    2     1     3    1
    3     1     4    2
    4     4     5    1
    5     4     6    1
    6     6     7    1
    7     6     8    1
    8     6     9    1
    9     9    10    1
   10     9    11    1
   11     9    12    1
   12    12    13    1
   13    12    14    1
   14    12    15    1
   15    15    16    1
   16    15    17    1
   17    15    18    1
   18    18    19    1
   19    18    20    2
@<TRIPOS>SUBSTRUCTURE
       1 MOL1            1 RESIDUE      1      MOL     
@<SCITEGIC>MOL_PROPERTY
VM2 Rank
SciTegic.value.IntegerValue
11

@<SCITEGIC>MOL_PROPERTY
Conf_Id
SciTegic.value.IntegerValue
527

@<SCITEGIC>MOL_PROPERTY
Probability
SciTegic.value.DoubleValue
3.42

@<SCITEGIC>MOL_PROPERTY
Sum Probability
SciTegic.value.DoubleValue
71.01

@<SCITEGIC>MOL_PROPERTY
Delta G
SciTegic.value.DoubleValue
0.822

@<SCITEGIC>MOL_PROPERTY
G
SciTegic.value.DoubleValue
-21.068

@<SCITEGIC>MOL_PROPERTY
E
SciTegic.value.DoubleValue
-36.064

@<SCITEGIC>MOL_PROPERTY
-TS
SciTegic.value.DoubleValue
14.996

@<SCITEGIC>MOL_PROPERTY
U+W
SciTegic.value.DoubleValue
-52.161

@<SCITEGIC>MOL_PROPERTY
U
SciTegic.value.DoubleValue
7.601

@<SCITEGIC>MOL_PROPERTY
W
SciTegic.value.DoubleValue
-59.762

@<SCITEGIC>MOL_PROPERTY
W(PB)
SciTegic.value.DoubleValue
-62.010

@<SCITEGIC>MOL_PROPERTY
W(SA)
SciTegic.value.DoubleValue
2.248

@<SCITEGIC>MOL_PROPERTY
Valence
SciTegic.value.DoubleValue
9.602

@<SCITEGIC>MOL_PROPERTY
Coulomb
SciTegic.value.DoubleValue
-2.686

@<SCITEGIC>MOL_PROPERTY
VdW
SciTegic.value.DoubleValue
0.685

@<SCITEGIC>MOL_PROPERTY
VdW6
SciTegic.value.DoubleValue
-6.453

@<SCITEGIC>MOL_PROPERTY
VdW12
SciTegic.value.DoubleValue
7.139

@<SCITEGIC>MOL_PROPERTY
Bond
SciTegic.value.DoubleValue
0.125

@<SCITEGIC>MOL_PROPERTY
Angle
SciTegic.value.DoubleValue
2.485

@<SCITEGIC>MOL_PROPERTY
Pdih
SciTegic.value.DoubleValue
6.991

@<SCITEGIC>MOL_PROPERTY
Idih
SciTegic.value.DoubleValue
0.001

@<SCITEGIC>MOL_PROPERTY
Tether
SciTegic.value.DoubleValue
0.000

@<TRIPOS>MOLECULE
guest-s22_vm2.mol2 : vm2 ligand conformer 12
          20          19           1
SMALL
USER_CHARGES
 
@<TRIPOS>ATOM
       1    C1      20.750453   18.727228   18.701400 C.2        1 MOL1        -0.2535
       2    H1      20.974551   18.854594   17.643698 H          1 MOL1         0.0845
       3    H2      21.366771   18.019713   19.251918 H          1 MOL1         0.0845
       4    C2      19.761544   19.419393   19.278384 C.2        1 MOL1        -0.1324
       5    H3      19.179487   20.115077   18.674364 H          1 MOL1         0.0833
       6    C3      19.331554   19.348725   20.734196 C.3        1 MOL1        -0.1813
       7    H4      18.253628   19.142362   20.772094 H          1 MOL1         0.0753
       8    H5      19.460224   20.342235   21.181525 H          1 MOL1         0.0753
       9    C4      20.076243   18.289509   21.584318 C.3        1 MOL1        -0.1855
      10    H6      19.980592   17.309620   21.096896 H          1 MOL1         0.0755
      11    H7      21.148962   18.524568   21.614224 H          1 MOL1         0.0755
      12    C5      19.535167   18.168058   23.029130 C.3        1 MOL1        -0.1855
      13    H8      20.032270   17.320142   23.520491 H          1 MOL1         0.0755
      14    H9      18.463324   17.927282   23.005813 H          1 MOL1         0.0755
      15    C6      19.761912   19.441008   23.885518 C.3        1 MOL1        -0.1958
      16    H10     20.823103   19.717104   23.879728 H          1 MOL1         0.0753
      17    H11     19.202474   20.288795   23.474566 H          1 MOL1         0.0753
      18    C7      19.328581   19.259921   25.335831 C.2        1 MOL1         0.6174
      19    O1      20.148115   18.846080   26.131969 O.co2      1 MOL1        -0.6695
      20    O2      18.177431   19.518078   25.627254 O.co2      1 MOL1        -0.6695
@<TRIPOS>BOND
    1     1     2    1
    2     1     3    1
    3     1     4    2
    4     4     5    1
    5     4     6    1
    6     6     7    1
    7     6     8    1
    8     6     9    1
    9     9    10    1
   10     9    11    1
   11     9    12    1
   12    12    13    1
   13    12    14    1
   14    12    15    1
   15    15    16    1
   16    15    17    1
   17    15    18    1
   18    18    19    1
   19    18    20    2
@<TRIPOS>SUBSTRUCTURE
       1 MOL1            1 RESIDUE      1      MOL     
@<SCITEGIC>MOL_PROPERTY
VM2 Rank
SciTegic.value.IntegerValue
12

@<SCITEGIC>MOL_PROPERTY
Conf_Id
SciTegic.value.IntegerValue
1081

@<SCITEGIC>MOL_PROPERTY
Probability
SciTegic.value.DoubleValue
3.35

@<SCITEGIC>MOL_PROPERTY
Sum Probability
SciTegic.value.DoubleValue
74.36

@<SCITEGIC>MOL_PROPERTY
Delta G
SciTegic.value.DoubleValue
0.835

@<SCITEGIC>MOL_PROPERTY
G
SciTegic.value.DoubleValue
-21.055

@<SCITEGIC>MOL_PROPERTY
E
SciTegic.value.DoubleValue
-36.411

@<SCITEGIC>MOL_PROPERTY
-TS
SciTegic.value.DoubleValue
15.356

@<SCITEGIC>MOL_PROPERTY
U+W
SciTegic.value.DoubleValue
-52.507

@<SCITEGIC>MOL_PROPERTY
U
SciTegic.value.DoubleValue
7.428

@<SCITEGIC>MOL_PROPERTY
W
SciTegic.value.DoubleValue
-59.935

@<SCITEGIC>MOL_PROPERTY
W(PB)
SciTegic.value.DoubleValue
-62.137

@<SCITEGIC>MOL_PROPERTY
W(SA)
SciTegic.value.DoubleValue
2.203

@<SCITEGIC>MOL_PROPERTY
Valence
SciTegic.value.DoubleValue
8.548

@<SCITEGIC>MOL_PROPERTY
Coulomb
SciTegic.value.DoubleValue
-2.540

@<SCITEGIC>MOL_PROPERTY
VdW
SciTegic.value.DoubleValue
1.420

@<SCITEGIC>MOL_PROPERTY
VdW6
SciTegic.value.DoubleValue
-7.116

@<SCITEGIC>MOL_PROPERTY
VdW12
SciTegic.value.DoubleValue
8.536

@<SCITEGIC>MOL_PROPERTY
Bond
SciTegic.value.DoubleValue
0.184

@<SCITEGIC>MOL_PROPERTY
Angle
SciTegic.value.DoubleValue
3.112

@<SCITEGIC>MOL_PROPERTY
Pdih
SciTegic.value.DoubleValue
5.251

@<SCITEGIC>MOL_PROPERTY
Idih
SciTegic.value.DoubleValue
0.001

@<SCITEGIC>MOL_PROPERTY
Tether
SciTegic.value.DoubleValue
0.000

@<TRIPOS>MOLECULE
guest-s22_vm2.mol2 : vm2 ligand conformer 13
          20          19           1
SMALL
USER_CHARGES
 
@<TRIPOS>ATOM
       1    C1      20.408698   17.938012   18.704648 C.2        1 MOL1        -0.2535
       2    H1      20.758829   17.979919   17.674645 H          1 MOL1         0.0845
       3    H2      20.522429   16.993561   19.234418 H          1 MOL1         0.0845
       4    C2      19.863801   19.006390   19.292333 C.2        1 MOL1        -0.1324
       5    H3      19.759592   19.942596   18.744342 H          1 MOL1         0.0833
       6    C3      19.354397   19.023097   20.716454 C.3        1 MOL1        -0.1813
       7    H4      19.249147   17.995260   21.086682 H          1 MOL1         0.0753
       8    H5      18.353368   19.473867   20.742484 H          1 MOL1         0.0753
       9    C4      20.305874   19.820139   21.636985 C.3        1 MOL1        -0.1855
      10    H6      21.292454   19.336814   21.652771 H          1 MOL1         0.0755
      11    H7      20.458000   20.820942   21.209977 H          1 MOL1         0.0755
      12    C5      19.778811   19.976377   23.083399 C.3        1 MOL1        -0.1855
      13    H8      18.796328   20.468224   23.069794 H          1 MOL1         0.0755
      14    H9      20.453538   20.647026   23.633376 H          1 MOL1         0.0755
      15    C6      19.675485   18.633991   23.853066 C.3        1 MOL1        -0.1958
      16    H10     18.939546   17.973269   23.381324 H          1 MOL1         0.0753
      17    H11     20.639966   18.112576   23.835801 H          1 MOL1         0.0753
      18    C7      19.264587   18.820015   25.309255 C.2        1 MOL1         0.6174
      19    O1      20.140663   18.972543   26.137482 O.co2      1 MOL1        -0.6695
      20    O2      18.078684   18.827436   25.574378 O.co2      1 MOL1        -0.6695
@<TRIPOS>BOND
    1     1     2    1
    2     1     3    1
    3     1     4    2
    4     4     5    1
    5     4     6    1
    6     6     7    1
    7     6     8    1
    8     6     9    1
    9     9    10    1
   10     9    11    1
   11     9    12    1
   12    12    13    1
   13    12    14    1
   14    12    15    1
   15    15    16    1
   16    15    17    1
   17    15    18    1
   18    18    19    1
   19    18    20    2
@<TRIPOS>SUBSTRUCTURE
       1 MOL1            1 RESIDUE      1      MOL     
@<SCITEGIC>MOL_PROPERTY
VM2 Rank
SciTegic.value.IntegerValue
13

@<SCITEGIC>MOL_PROPERTY
Conf_Id
SciTegic.value.IntegerValue
857

@<SCITEGIC>MOL_PROPERTY
Probability
SciTegic.value.DoubleValue
3.23

@<SCITEGIC>MOL_PROPERTY
Sum Probability
SciTegic.value.DoubleValue
77.59

@<SCITEGIC>MOL_PROPERTY
Delta G
SciTegic.value.DoubleValue
0.856

@<SCITEGIC>MOL_PROPERTY
G
SciTegic.value.DoubleValue
-21.034

@<SCITEGIC>MOL_PROPERTY
E
SciTegic.value.DoubleValue
-36.029

@<SCITEGIC>MOL_PROPERTY
-TS
SciTegic.value.DoubleValue
14.996

@<SCITEGIC>MOL_PROPERTY
U+W
SciTegic.value.DoubleValue
-52.126

@<SCITEGIC>MOL_PROPERTY
U
SciTegic.value.DoubleValue
7.601

@<SCITEGIC>MOL_PROPERTY
W
SciTegic.value.DoubleValue
-59.727

@<SCITEGIC>MOL_PROPERTY
W(PB)
SciTegic.value.DoubleValue
-61.964

@<SCITEGIC>MOL_PROPERTY
W(SA)
SciTegic.value.DoubleValue
2.236

@<SCITEGIC>MOL_PROPERTY
Valence
SciTegic.value.DoubleValue
9.602

@<SCITEGIC>MOL_PROPERTY
Coulomb
SciTegic.value.DoubleValue
-2.686

@<SCITEGIC>MOL_PROPERTY
VdW
SciTegic.value.DoubleValue
0.685

@<SCITEGIC>MOL_PROPERTY
VdW6
SciTegic.value.DoubleValue
-6.453

@<SCITEGIC>MOL_PROPERTY
VdW12
SciTegic.value.DoubleValue
7.139

@<SCITEGIC>MOL_PROPERTY
Bond
SciTegic.value.DoubleValue
0.125

@<SCITEGIC>MOL_PROPERTY
Angle
SciTegic.value.DoubleValue
2.485

@<SCITEGIC>MOL_PROPERTY
Pdih
SciTegic.value.DoubleValue
6.991

@<SCITEGIC>MOL_PROPERTY
Idih
SciTegic.value.DoubleValue
0.001

@<SCITEGIC>MOL_PROPERTY
Tether
SciTegic.value.DoubleValue
0.000

@<TRIPOS>MOLECULE
guest-s22_vm2.mol2 : vm2 ligand conformer 14
          20          19           1
SMALL
USER_CHARGES
 
@<TRIPOS>ATOM
       1    C1      19.856144   17.566522   19.830139 C.2        1 MOL1        -0.2535
       2    H1      20.196680   16.651892   19.347989 H          1 MOL1         0.0845
       3    H2      18.962825   17.494302   20.446475 H          1 MOL1         0.0845
       4    C2      20.516130   18.717268   19.657859 C.2        1 MOL1        -0.1324
       5    H3      21.404275   18.728076   19.026572 H          1 MOL1         0.0833
       6    C3      20.167099   20.067558   20.264179 C.3        1 MOL1        -0.1813
       7    H4      19.757162   20.710187   19.473775 H          1 MOL1         0.0753
       8    H5      21.093827   20.561820   20.585201 H          1 MOL1         0.0753
       9    C4      19.183660   20.044998   21.460587 C.3        1 MOL1        -0.1855
      10    H6      18.901448   21.079767   21.698115 H          1 MOL1         0.0755
      11    H7      18.254395   19.534264   21.175568 H          1 MOL1         0.0755
      12    C5      19.791568   19.395352   22.725649 C.3        1 MOL1        -0.1855
      13    H8      20.703342   19.935420   23.015812 H          1 MOL1         0.0755
      14    H9      20.092349   18.360840   22.513170 H          1 MOL1         0.0755
      15    C6      18.794987   19.401101   23.910853 C.3        1 MOL1        -0.1958
      16    H10     18.497734   20.428876   24.151238 H          1 MOL1         0.0753
      17    H11     17.883584   18.854217   23.640960 H          1 MOL1         0.0753
      18    C7      19.371555   18.768103   25.172190 C.2        1 MOL1         0.6174
      19    O1      19.989453   19.479329   25.939739 O.co2      1 MOL1        -0.6695
      20    O2      19.200404   17.577768   25.346805 O.co2      1 MOL1        -0.6695
@<TRIPOS>BOND
    1     1     2    1
    2     1     3    1
    3     1     4    2
    4     4     5    1
    5     4     6    1
    6     6     7    1
    7     6     8    1
    8     6     9    1
    9     9    10    1
   10     9    11    1
   11     9    12    1
   12    12    13    1
   13    12    14    1
   14    12    15    1
   15    15    16    1
   16    15    17    1
   17    15    18    1
   18    18    19    1
   19    18    20    2
@<TRIPOS>SUBSTRUCTURE
       1 MOL1            1 RESIDUE      1      MOL     
@<SCITEGIC>MOL_PROPERTY
VM2 Rank
SciTegic.value.IntegerValue
14

@<SCITEGIC>MOL_PROPERTY
Conf_Id
SciTegic.value.IntegerValue
832

@<SCITEGIC>MOL_PROPERTY
Probability
SciTegic.value.DoubleValue
1.68

@<SCITEGIC>MOL_PROPERTY
Sum Probability
SciTegic.value.DoubleValue
79.27

@<SCITEGIC>MOL_PROPERTY
Delta G
SciTegic.value.DoubleValue
1.245

@<SCITEGIC>MOL_PROPERTY
G
SciTegic.value.DoubleValue
-20.645

@<SCITEGIC>MOL_PROPERTY
E
SciTegic.value.DoubleValue
-36.098

@<SCITEGIC>MOL_PROPERTY
-TS
SciTegic.value.DoubleValue
15.454

@<SCITEGIC>MOL_PROPERTY
U+W
SciTegic.value.DoubleValue
-52.195

@<SCITEGIC>MOL_PROPERTY
U
SciTegic.value.DoubleValue
8.773

@<SCITEGIC>MOL_PROPERTY
W
SciTegic.value.DoubleValue
-60.968

@<SCITEGIC>MOL_PROPERTY
W(PB)
SciTegic.value.DoubleValue
-63.158

@<SCITEGIC>MOL_PROPERTY
W(SA)
SciTegic.value.DoubleValue
2.191

@<SCITEGIC>MOL_PROPERTY
Valence
SciTegic.value.DoubleValue
8.762

@<SCITEGIC>MOL_PROPERTY
Coulomb
SciTegic.value.DoubleValue
-1.079

@<SCITEGIC>MOL_PROPERTY
VdW
SciTegic.value.DoubleValue
1.090

@<SCITEGIC>MOL_PROPERTY
VdW6
SciTegic.value.DoubleValue
-7.279

@<SCITEGIC>MOL_PROPERTY
VdW12
SciTegic.value.DoubleValue
8.369

@<SCITEGIC>MOL_PROPERTY
Bond
SciTegic.value.DoubleValue
0.166

@<SCITEGIC>MOL_PROPERTY
Angle
SciTegic.value.DoubleValue
3.199

@<SCITEGIC>MOL_PROPERTY
Pdih
SciTegic.value.DoubleValue
5.396

@<SCITEGIC>MOL_PROPERTY
Idih
SciTegic.value.DoubleValue
0.000

@<SCITEGIC>MOL_PROPERTY
Tether
SciTegic.value.DoubleValue
0.000

@<TRIPOS>MOLECULE
guest-s22_vm2.mol2 : vm2 ligand conformer 15
          20          19           1
SMALL
USER_CHARGES
 
@<TRIPOS>ATOM
       1    C1      20.938329   17.892770   19.969792 C.2        1 MOL1        -0.2535
       2    H1      21.274158   16.976686   19.487101 H          1 MOL1         0.0845
       3    H2      21.553785   18.275341   20.780937 H          1 MOL1         0.0845
       4    C2      19.820206   18.507475   19.568023 C.2        1 MOL1        -0.1324
       5    H3      19.245741   18.077317   18.748027 H          1 MOL1         0.0833
       6    C3      19.224980   19.783500   20.142654 C.3        1 MOL1        -0.1813
       7    H4      18.134350   19.669452   20.203462 H          1 MOL1         0.0753
       8    H5      19.389473   20.599375   19.426379 H          1 MOL1         0.0753
       9    C4      19.751040   20.216051   21.533773 C.3        1 MOL1        -0.1855
      10    H6      20.844307   20.315074   21.509644 H          1 MOL1         0.0755
      11    H7      19.359773   21.217946   21.757217 H          1 MOL1         0.0755
      12    C5      19.320172   19.253253   22.664854 C.3        1 MOL1        -0.1855
      13    H8      19.690474   18.239699   22.461349 H          1 MOL1         0.0755
      14    H9      18.223832   19.187937   22.696002 H          1 MOL1         0.0755
      15    C6      19.844056   19.717388   24.046172 C.3        1 MOL1        -0.1958
      16    H10     20.939086   19.775415   24.035073 H          1 MOL1         0.0753
      17    H11     19.468047   20.721417   24.276405 H          1 MOL1         0.0753
      18    C7      19.430275   18.785808   25.179765 C.2        1 MOL1         0.6174
      19    O1      20.175543   17.871728   25.472536 O.co2      1 MOL1        -0.6695
      20    O2      18.366399   18.990026   25.730432 O.co2      1 MOL1        -0.6695
@<TRIPOS>BOND
    1     1     2    1
    2     1     3    1
    3     1     4    2
    4     4     5    1
    5     4     6    1
    6     6     7    1
    7     6     8    1
    8     6     9    1
    9     9    10    1
   10     9    11    1
   11     9    12    1
   12    12    13    1
   13    12    14    1
   14    12    15    1
   15    15    16    1
   16    15    17    1
   17    15    18    1
   18    18    19    1
   19    18    20    2
@<TRIPOS>SUBSTRUCTURE
       1 MOL1            1 RESIDUE      1      MOL     
@<SCITEGIC>MOL_PROPERTY
VM2 Rank
SciTegic.value.IntegerValue
15

@<SCITEGIC>MOL_PROPERTY
Conf_Id
SciTegic.value.IntegerValue
1025

@<SCITEGIC>MOL_PROPERTY
Probability
SciTegic.value.DoubleValue
1.53

@<SCITEGIC>MOL_PROPERTY
Sum Probability
SciTegic.value.DoubleValue
80.80

@<SCITEGIC>MOL_PROPERTY
Delta G
SciTegic.value.DoubleValue
1.302

@<SCITEGIC>MOL_PROPERTY
G
SciTegic.value.DoubleValue
-20.587

@<SCITEGIC>MOL_PROPERTY
E
SciTegic.value.DoubleValue
-36.041

@<SCITEGIC>MOL_PROPERTY
-TS
SciTegic.value.DoubleValue
15.454

@<SCITEGIC>MOL_PROPERTY
U+W
SciTegic.value.DoubleValue
-52.138

@<SCITEGIC>MOL_PROPERTY
U
SciTegic.value.DoubleValue
8.773

@<SCITEGIC>MOL_PROPERTY
W
SciTegic.value.DoubleValue
-60.910

@<SCITEGIC>MOL_PROPERTY
W(PB)
SciTegic.value.DoubleValue
-63.120

@<SCITEGIC>MOL_PROPERTY
W(SA)
SciTegic.value.DoubleValue
2.210

@<SCITEGIC>MOL_PROPERTY
Valence
SciTegic.value.DoubleValue
8.762

@<SCITEGIC>MOL_PROPERTY
Coulomb
SciTegic.value.DoubleValue
-1.079

@<SCITEGIC>MOL_PROPERTY
VdW
SciTegic.value.DoubleValue
1.090

@<SCITEGIC>MOL_PROPERTY
VdW6
SciTegic.value.DoubleValue
-7.279

@<SCITEGIC>MOL_PROPERTY
VdW12
SciTegic.value.DoubleValue
8.369

@<SCITEGIC>MOL_PROPERTY
Bond
SciTegic.value.DoubleValue
0.166

@<SCITEGIC>MOL_PROPERTY
Angle
SciTegic.value.DoubleValue
3.199

@<SCITEGIC>MOL_PROPERTY
Pdih
SciTegic.value.DoubleValue
5.396

@<SCITEGIC>MOL_PROPERTY
Idih
SciTegic.value.DoubleValue
0.000

@<SCITEGIC>MOL_PROPERTY
Tether
SciTegic.value.DoubleValue
0.000

@<TRIPOS>MOLECULE
guest-s22_vm2.mol2 : vm2 ligand conformer 16
          20          19           1
SMALL
USER_CHARGES
 
@<TRIPOS>ATOM
       1    C1      19.529708   18.519057   18.556528 C.2        1 MOL1        -0.2535
       2    H1      18.784390   18.531467   17.763046 H          1 MOL1         0.0845
       3    H2      20.334582   17.790120   18.476489 H          1 MOL1         0.0845
       4    C2      19.454415   19.364905   19.587322 C.2        1 MOL1        -0.1324
       5    H3      18.639892   20.086296   19.649027 H          1 MOL1         0.0833
       6    C3      20.451101   19.406806   20.724206 C.3        1 MOL1        -0.1813
       7    H4      20.766400   20.444311   20.898262 H          1 MOL1         0.0753
       8    H5      21.354998   18.841924   20.458465 H          1 MOL1         0.0753
       9    C4      19.844093   18.826910   22.018915 C.3        1 MOL1        -0.1855
      10    H6      18.941523   19.394974   22.283682 H          1 MOL1         0.0755
      11    H7      19.525696   17.790702   21.839558 H          1 MOL1         0.0755
      12    C5      20.849167   18.865184   23.192239 C.3        1 MOL1        -0.1855
      13    H8      21.161586   19.901694   23.381277 H          1 MOL1         0.0755
      14    H9      21.753775   18.308369   22.912553 H          1 MOL1         0.0755
      15    C6      20.267669   18.258328   24.495495 C.3        1 MOL1        -0.1958
      16    H10     19.925349   17.231988   24.315771 H          1 MOL1         0.0753
      17    H11     21.054822   18.201814   25.256530 H          1 MOL1         0.0753
      18    C7      19.113598   19.059501   25.091402 C.2        1 MOL1         0.6174
      19    O1      19.375787   20.091737   25.676928 O.co2      1 MOL1        -0.6695
      20    O2      17.985462   18.625574   24.964964 O.co2      1 MOL1        -0.6695
@<TRIPOS>BOND
    1     1     2    1
    2     1     3    1
    3     1     4    2
    4     4     5    1
    5     4     6    1
    6     6     7    1
    7     6     8    1
    8     6     9    1
    9     9    10    1
   10     9    11    1
   11     9    12    1
   12    12    13    1
   13    12    14    1
   14    12    15    1
   15    15    16    1
   16    15    17    1
   17    15    18    1
   18    18    19    1
   19    18    20    2
@<TRIPOS>SUBSTRUCTURE
       1 MOL1            1 RESIDUE      1      MOL     
@<SCITEGIC>MOL_PROPERTY
VM2 Rank
SciTegic.value.IntegerValue
16

@<SCITEGIC>MOL_PROPERTY
Conf_Id
SciTegic.value.IntegerValue
539

@<SCITEGIC>MOL_PROPERTY
Probability
SciTegic.value.DoubleValue
1.44

@<SCITEGIC>MOL_PROPERTY
Sum Probability
SciTegic.value.DoubleValue
82.24

@<SCITEGIC>MOL_PROPERTY
Delta G
SciTegic.value.DoubleValue
1.337

@<SCITEGIC>MOL_PROPERTY
G
SciTegic.value.DoubleValue
-20.553

@<SCITEGIC>MOL_PROPERTY
E
SciTegic.value.DoubleValue
-35.757

@<SCITEGIC>MOL_PROPERTY
-TS
SciTegic.value.DoubleValue
15.204

@<SCITEGIC>MOL_PROPERTY
U+W
SciTegic.value.DoubleValue
-51.854

@<SCITEGIC>MOL_PROPERTY
U
SciTegic.value.DoubleValue
8.963

@<SCITEGIC>MOL_PROPERTY
W
SciTegic.value.DoubleValue
-60.817

@<SCITEGIC>MOL_PROPERTY
W(PB)
SciTegic.value.DoubleValue
-63.056

@<SCITEGIC>MOL_PROPERTY
W(SA)
SciTegic.value.DoubleValue
2.240

@<SCITEGIC>MOL_PROPERTY
Valence
SciTegic.value.DoubleValue
9.327

@<SCITEGIC>MOL_PROPERTY
Coulomb
SciTegic.value.DoubleValue
-0.781

@<SCITEGIC>MOL_PROPERTY
VdW
SciTegic.value.DoubleValue
0.417

@<SCITEGIC>MOL_PROPERTY
VdW6
SciTegic.value.DoubleValue
-6.635

@<SCITEGIC>MOL_PROPERTY
VdW12
SciTegic.value.DoubleValue
7.051

@<SCITEGIC>MOL_PROPERTY
Bond
SciTegic.value.DoubleValue
0.105

@<SCITEGIC>MOL_PROPERTY
Angle
SciTegic.value.DoubleValue
2.399

@<SCITEGIC>MOL_PROPERTY
Pdih
SciTegic.value.DoubleValue
6.822

@<SCITEGIC>MOL_PROPERTY
Idih
SciTegic.value.DoubleValue
0.000

@<SCITEGIC>MOL_PROPERTY
Tether
SciTegic.value.DoubleValue
0.000

@<TRIPOS>MOLECULE
guest-s22_vm2.mol2 : vm2 ligand conformer 17
          20          19           1
SMALL
USER_CHARGES
 
@<TRIPOS>ATOM
       1    C1      19.105604   19.795121   18.882170 C.2        1 MOL1        -0.2535
       2    H1      18.427483   19.631418   18.046339 H          1 MOL1         0.0845
       3    H2      19.307760   20.825915   19.168841 H          1 MOL1         0.0845
       4    C2      19.663560   18.768759   19.529418 C.2        1 MOL1        -0.1324
       5    H3      19.447306   17.744331   19.227065 H          1 MOL1         0.0833
       6    C3      20.613931   18.918257   20.696513 C.3        1 MOL1        -0.1813
       7    H4      20.971668   19.954634   20.765327 H          1 MOL1         0.0753
       8    H5      21.498683   18.288643   20.532557 H          1 MOL1         0.0753
       9    C4      19.934011   18.520704   22.023434 C.3        1 MOL1        -0.1855
      10    H6      19.046376   19.149953   22.177799 H          1 MOL1         0.0755
      11    H7      19.579672   17.482889   21.956848 H          1 MOL1         0.0755
      12    C5      20.893479   18.664764   23.226348 C.3        1 MOL1        -0.1855
      13    H8      21.238811   19.705126   23.304486 H          1 MOL1         0.0755
      14    H9      21.785695   18.047637   23.054083 H          1 MOL1         0.0755
      15    C6      20.238435   18.239216   24.566013 C.3        1 MOL1        -0.1958
      16    H10     19.864035   17.210806   24.494946 H          1 MOL1         0.0753
      17    H11     20.992484   18.248283   25.361817 H          1 MOL1         0.0753
      18    C7      19.093770   19.144676   25.011853 C.2        1 MOL1         0.6174
      19    O1      19.372490   20.231153   25.479815 O.co2      1 MOL1        -0.6695
      20    O2      17.955718   18.735349   24.892437 O.co2      1 MOL1        -0.6695
@<TRIPOS>BOND
    1     1     2    1
    2     1     3    1
    3     1     4    2
    4     4     5    1
    5     4     6    1
    6     6     7    1
    7     6     8    1
    8     6     9    1
    9     9    10    1
   10     9    11    1
   11     9    12    1
   12    12    13    1
   13    12    14    1
   14    12    15    1
   15    15    16    1
   16    15    17    1
   17    15    18    1
   18    18    19    1
   19    18    20    2
@<TRIPOS>SUBSTRUCTURE
       1 MOL1            1 RESIDUE      1      MOL     
@<SCITEGIC>MOL_PROPERTY
VM2 Rank
SciTegic.value.IntegerValue
17

@<SCITEGIC>MOL_PROPERTY
Conf_Id
SciTegic.value.IntegerValue
232

@<SCITEGIC>MOL_PROPERTY
Probability
SciTegic.value.DoubleValue
1.31

@<SCITEGIC>MOL_PROPERTY
Sum Probability
SciTegic.value.DoubleValue
83.55

@<SCITEGIC>MOL_PROPERTY
Delta G
SciTegic.value.DoubleValue
1.394

@<SCITEGIC>MOL_PROPERTY
G
SciTegic.value.DoubleValue
-20.496

@<SCITEGIC>MOL_PROPERTY
E
SciTegic.value.DoubleValue
-35.703

@<SCITEGIC>MOL_PROPERTY
-TS
SciTegic.value.DoubleValue
15.207

@<SCITEGIC>MOL_PROPERTY
U+W
SciTegic.value.DoubleValue
-51.799

@<SCITEGIC>MOL_PROPERTY
U
SciTegic.value.DoubleValue
9.411

@<SCITEGIC>MOL_PROPERTY
W
SciTegic.value.DoubleValue
-61.210

@<SCITEGIC>MOL_PROPERTY
W(PB)
SciTegic.value.DoubleValue
-63.461

@<SCITEGIC>MOL_PROPERTY
W(SA)
SciTegic.value.DoubleValue
2.251

@<SCITEGIC>MOL_PROPERTY
Valence
SciTegic.value.DoubleValue
9.329

@<SCITEGIC>MOL_PROPERTY
Coulomb
SciTegic.value.DoubleValue
-0.324

@<SCITEGIC>MOL_PROPERTY
VdW
SciTegic.value.DoubleValue
0.406

@<SCITEGIC>MOL_PROPERTY
VdW6
SciTegic.value.DoubleValue
-6.640

@<SCITEGIC>MOL_PROPERTY
VdW12
SciTegic.value.DoubleValue
7.046

@<SCITEGIC>MOL_PROPERTY
Bond
SciTegic.value.DoubleValue
0.105

@<SCITEGIC>MOL_PROPERTY
Angle
SciTegic.value.DoubleValue
2.401

@<SCITEGIC>MOL_PROPERTY
Pdih
SciTegic.value.DoubleValue
6.823

@<SCITEGIC>MOL_PROPERTY
Idih
SciTegic.value.DoubleValue
0.000

@<SCITEGIC>MOL_PROPERTY
Tether
SciTegic.value.DoubleValue
0.000

@<TRIPOS>MOLECULE
guest-s22_vm2.mol2 : vm2 ligand conformer 18
          20          19           1
SMALL
USER_CHARGES
 
@<TRIPOS>ATOM
       1    C1      19.949138   18.192099   18.616809 C.2        1 MOL1        -0.2535
       2    H1      20.271076   17.372513   17.976574 H          1 MOL1         0.0845
       3    H2      19.081834   18.767176   18.296424 H          1 MOL1         0.0845
       4    C2      20.594285   18.476060   19.751188 C.2        1 MOL1        -0.1324
       5    H3      21.459926   17.887441   20.054261 H          1 MOL1         0.0833
       6    C3      20.206552   19.597466   20.689142 C.3        1 MOL1        -0.1813
       7    H4      19.506414   20.283272   20.192940 H          1 MOL1         0.0753
       8    H5      21.097390   20.186216   20.945862 H          1 MOL1         0.0753
       9    C4      19.561291   19.047446   21.978374 C.3        1 MOL1        -0.1855
      10    H6      18.673381   18.455261   21.717214 H          1 MOL1         0.0755
      11    H7      20.264379   18.363645   22.473868 H          1 MOL1         0.0755
      12    C5      19.161645   20.180976   22.949826 C.3        1 MOL1        -0.1855
      13    H8      18.471506   20.867536   22.440979 H          1 MOL1         0.0755
      14    H9      20.049503   20.768836   23.221533 H          1 MOL1         0.0755
      15    C6      18.483231   19.649708   24.239167 C.3        1 MOL1        -0.1958
      16    H10     18.115382   20.493814   24.834272 H          1 MOL1         0.0753
      17    H11     17.610219   19.037176   23.983208 H          1 MOL1         0.0753
      18    C7      19.408389   18.829581   25.133784 C.2        1 MOL1         0.6174
      19    O1      20.234009   19.422660   25.799896 O.co2      1 MOL1        -0.6695
      20    O2      19.272462   17.622005   25.149814 O.co2      1 MOL1        -0.6695
@<TRIPOS>BOND
    1     1     2    1
    2     1     3    1
    3     1     4    2
    4     4     5    1
    5     4     6    1
    6     6     7    1
    7     6     8    1
    8     6     9    1
    9     9    10    1
   10     9    11    1
   11     9    12    1
   12    12    13    1
   13    12    14    1
   14    12    15    1
   15    15    16    1
   16    15    17    1
   17    15    18    1
   18    18    19    1
   19    18    20    2
@<TRIPOS>SUBSTRUCTURE
       1 MOL1            1 RESIDUE      1      MOL     
@<SCITEGIC>MOL_PROPERTY
VM2 Rank
SciTegic.value.IntegerValue
18

@<SCITEGIC>MOL_PROPERTY
Conf_Id
SciTegic.value.IntegerValue
828

@<SCITEGIC>MOL_PROPERTY
Probability
SciTegic.value.DoubleValue
1.30

@<SCITEGIC>MOL_PROPERTY
Sum Probability
SciTegic.value.DoubleValue
84.86

@<SCITEGIC>MOL_PROPERTY
Delta G
SciTegic.value.DoubleValue
1.398

@<SCITEGIC>MOL_PROPERTY
G
SciTegic.value.DoubleValue
-20.492

@<SCITEGIC>MOL_PROPERTY
E
SciTegic.value.DoubleValue
-35.696

@<SCITEGIC>MOL_PROPERTY
-TS
SciTegic.value.DoubleValue
15.205

@<SCITEGIC>MOL_PROPERTY
U+W
SciTegic.value.DoubleValue
-51.793

@<SCITEGIC>MOL_PROPERTY
U
SciTegic.value.DoubleValue
8.964

@<SCITEGIC>MOL_PROPERTY
W
SciTegic.value.DoubleValue
-60.757

@<SCITEGIC>MOL_PROPERTY
W(PB)
SciTegic.value.DoubleValue
-63.007

@<SCITEGIC>MOL_PROPERTY
W(SA)
SciTegic.value.DoubleValue
2.251

@<SCITEGIC>MOL_PROPERTY
Valence
SciTegic.value.DoubleValue
9.326

@<SCITEGIC>MOL_PROPERTY
Coulomb
SciTegic.value.DoubleValue
-0.779

@<SCITEGIC>MOL_PROPERTY
VdW
SciTegic.value.DoubleValue
0.417

@<SCITEGIC>MOL_PROPERTY
VdW6
SciTegic.value.DoubleValue
-6.635

@<SCITEGIC>MOL_PROPERTY
VdW12
SciTegic.value.DoubleValue
7.052

@<SCITEGIC>MOL_PROPERTY
Bond
SciTegic.value.DoubleValue
0.105

@<SCITEGIC>MOL_PROPERTY
Angle
SciTegic.value.DoubleValue
2.399

@<SCITEGIC>MOL_PROPERTY
Pdih
SciTegic.value.DoubleValue
6.821

@<SCITEGIC>MOL_PROPERTY
Idih
SciTegic.value.DoubleValue
0.000

@<SCITEGIC>MOL_PROPERTY
Tether
SciTegic.value.DoubleValue
0.000

@<TRIPOS>MOLECULE
guest-s22_vm2.mol2 : vm2 ligand conformer 19
          20          19           1
SMALL
USER_CHARGES
 
@<TRIPOS>ATOM
       1    C1      20.144949   17.560572   19.500791 C.2        1 MOL1        -0.2535
       2    H1      20.387518   16.945315   18.636046 H          1 MOL1         0.0845
       3    H2      19.714560   17.051240   20.360490 H          1 MOL1         0.0845
       4    C2      20.373223   18.878764   19.487199 C.2        1 MOL1        -0.1324
       5    H3      20.806858   19.332334   18.596222 H          1 MOL1         0.0833
       6    C3      20.088777   19.861506   20.610752 C.3        1 MOL1        -0.1813
       7    H4      19.421176   20.646811   20.231704 H          1 MOL1         0.0753
       8    H5      21.023743   20.371491   20.878833 H          1 MOL1         0.0753
       9    C4      19.468306   19.238773   21.883289 C.3        1 MOL1        -0.1855
      10    H6      18.521922   18.743515   21.626363 H          1 MOL1         0.0755
      11    H7      20.141923   18.465134   22.277062 H          1 MOL1         0.0755
      12    C5      19.210071   20.302797   22.974134 C.3        1 MOL1        -0.1855
      13    H8      18.553042   21.084662   22.569713 H          1 MOL1         0.0755
      14    H9      20.154872   20.793336   23.246910 H          1 MOL1         0.0755
      15    C6      18.555904   19.704984   24.246801 C.3        1 MOL1        -0.1958
      16    H10     18.289853   20.514294   24.936879 H          1 MOL1         0.0753
      17    H11     17.623274   19.189652   23.987025 H          1 MOL1         0.0753
      18    C7      19.453589   18.733165   25.007479 C.2        1 MOL1         0.6174
      19    O1      20.357241   19.193521   25.677251 O.co2      1 MOL1        -0.6695
      20    O2      19.218940   17.543918   24.920304 O.co2      1 MOL1        -0.6695
@<TRIPOS>BOND
    1     1     2    1
    2     1     3    1
    3     1     4    2
    4     4     5    1
    5     4     6    1
    6     6     7    1
    7     6     8    1
    8     6     9    1
    9     9    10    1
   10     9    11    1
   11     9    12    1
   12    12    13    1
   13    12    14    1
   14    12    15    1
   15    15    16    1
   16    15    17    1
   17    15    18    1
   18    18    19    1
   19    18    20    2
@<TRIPOS>SUBSTRUCTURE
       1 MOL1            1 RESIDUE      1      MOL     
@<SCITEGIC>MOL_PROPERTY
VM2 Rank
SciTegic.value.IntegerValue
19

@<SCITEGIC>MOL_PROPERTY
Conf_Id
SciTegic.value.IntegerValue
867

@<SCITEGIC>MOL_PROPERTY
Probability
SciTegic.value.DoubleValue
1.30

@<SCITEGIC>MOL_PROPERTY
Sum Probability
SciTegic.value.DoubleValue
86.15

@<SCITEGIC>MOL_PROPERTY
Delta G
SciTegic.value.DoubleValue
1.400

@<SCITEGIC>MOL_PROPERTY
G
SciTegic.value.DoubleValue
-20.490

@<SCITEGIC>MOL_PROPERTY
E
SciTegic.value.DoubleValue
-36.061

@<SCITEGIC>MOL_PROPERTY
-TS
SciTegic.value.DoubleValue
15.571

@<SCITEGIC>MOL_PROPERTY
U+W
SciTegic.value.DoubleValue
-52.158

@<SCITEGIC>MOL_PROPERTY
U
SciTegic.value.DoubleValue
9.324

@<SCITEGIC>MOL_PROPERTY
W
SciTegic.value.DoubleValue
-61.481

@<SCITEGIC>MOL_PROPERTY
W(PB)
SciTegic.value.DoubleValue
-63.687

@<SCITEGIC>MOL_PROPERTY
W(SA)
SciTegic.value.DoubleValue
2.205

@<SCITEGIC>MOL_PROPERTY
Valence
SciTegic.value.DoubleValue
8.234

@<SCITEGIC>MOL_PROPERTY
Coulomb
SciTegic.value.DoubleValue
-0.022

@<SCITEGIC>MOL_PROPERTY
VdW
SciTegic.value.DoubleValue
1.111

@<SCITEGIC>MOL_PROPERTY
VdW6
SciTegic.value.DoubleValue
-7.367

@<SCITEGIC>MOL_PROPERTY
VdW12
SciTegic.value.DoubleValue
8.478

@<SCITEGIC>MOL_PROPERTY
Bond
SciTegic.value.DoubleValue
0.158

@<SCITEGIC>MOL_PROPERTY
Angle
SciTegic.value.DoubleValue
3.010

@<SCITEGIC>MOL_PROPERTY
Pdih
SciTegic.value.DoubleValue
5.066

@<SCITEGIC>MOL_PROPERTY
Idih
SciTegic.value.DoubleValue
0.000

@<SCITEGIC>MOL_PROPERTY
Tether
SciTegic.value.DoubleValue
0.000

@<TRIPOS>MOLECULE
guest-s22_vm2.mol2 : vm2 ligand conformer 20
          20          19           1
SMALL
USER_CHARGES
 
@<TRIPOS>ATOM
       1    C1      20.614613   17.727965   19.100728 C.2        1 MOL1        -0.2535
       2    H1      20.333258   17.020535   18.322497 H          1 MOL1         0.0845
       3    H2      21.623232   17.653971   19.504207 H          1 MOL1         0.0845
       4    C2      19.752279   18.647240   19.542289 C.2        1 MOL1        -0.1324
       5    H3      18.746813   18.703740   19.125778 H          1 MOL1         0.0833
       6    C3      20.071358   19.661520   20.617973 C.3        1 MOL1        -0.1813
       7    H4      19.766490   20.661562   20.281740 H          1 MOL1         0.0753
       8    H5      21.155234   19.703163   20.791949 H          1 MOL1         0.0753
       9    C4      19.352199   19.317709   21.939211 C.3        1 MOL1        -0.1855
      10    H6      18.267795   19.279987   21.766893 H          1 MOL1         0.0755
      11    H7      19.656807   18.313743   22.266233 H          1 MOL1         0.0755
      12    C5      19.665358   20.347103   23.048542 C.3        1 MOL1        -0.1855
      13    H8      19.375426   21.349374   22.705087 H          1 MOL1         0.0755
      14    H9      20.748225   20.377134   23.233499 H          1 MOL1         0.0755
      15    C6      18.926157   20.036813   24.376015 C.3        1 MOL1        -0.1958
      16    H10     19.088724   20.856100   25.086166 H          1 MOL1         0.0753
      17    H11     17.844881   19.976715   24.202568 H          1 MOL1         0.0753
      18    C7      19.383187   18.748178   25.053833 C.2        1 MOL1         0.6174
      19    O1      20.450164   18.754937   25.635743 O.co2      1 MOL1        -0.6695
      20    O2      18.655684   17.776535   24.993666 O.co2      1 MOL1        -0.6695
@<TRIPOS>BOND
    1     1     2    1
    2     1     3    1
    3     1     4    2
    4     4     5    1
    5     4     6    1
    6     6     7    1
    7     6     8    1
    8     6     9    1
    9     9    10    1
   10     9    11    1
   11     9    12    1
   12    12    13    1
   13    12    14    1
   14    12    15    1
   15    15    16    1
   16    15    17    1
   17    15    18    1
   18    18    19    1
   19    18    20    2
@<TRIPOS>SUBSTRUCTURE
       1 MOL1            1 RESIDUE      1      MOL     
@<SCITEGIC>MOL_PROPERTY
VM2 Rank
SciTegic.value.IntegerValue
20

@<SCITEGIC>MOL_PROPERTY
Conf_Id
SciTegic.value.IntegerValue
1112

@<SCITEGIC>MOL_PROPERTY
Probability
SciTegic.value.DoubleValue
1.28

@<SCITEGIC>MOL_PROPERTY
Sum Probability
SciTegic.value.DoubleValue
87.43

@<SCITEGIC>MOL_PROPERTY
Delta G
SciTegic.value.DoubleValue
1.408

@<SCITEGIC>MOL_PROPERTY
G
SciTegic.value.DoubleValue
-20.482

@<SCITEGIC>MOL_PROPERTY
E
SciTegic.value.DoubleValue
-35.689

@<SCITEGIC>MOL_PROPERTY
-TS
SciTegic.value.DoubleValue
15.207

@<SCITEGIC>MOL_PROPERTY
U+W
SciTegic.value.DoubleValue
-51.785

@<SCITEGIC>MOL_PROPERTY
U
SciTegic.value.DoubleValue
9.412

@<SCITEGIC>MOL_PROPERTY
W
SciTegic.value.DoubleValue
-61.196

@<SCITEGIC>MOL_PROPERTY
W(PB)
SciTegic.value.DoubleValue
-63.440

@<SCITEGIC>MOL_PROPERTY
W(SA)
SciTegic.value.DoubleValue
2.243

@<SCITEGIC>MOL_PROPERTY
Valence
SciTegic.value.DoubleValue
9.329

@<SCITEGIC>MOL_PROPERTY
Coulomb
SciTegic.value.DoubleValue
-0.324

@<SCITEGIC>MOL_PROPERTY
VdW
SciTegic.value.DoubleValue
0.406

@<SCITEGIC>MOL_PROPERTY
VdW6
SciTegic.value.DoubleValue
-6.640

@<SCITEGIC>MOL_PROPERTY
VdW12
SciTegic.value.DoubleValue
7.047

@<SCITEGIC>MOL_PROPERTY
Bond
SciTegic.value.DoubleValue
0.105

@<SCITEGIC>MOL_PROPERTY
Angle
SciTegic.value.DoubleValue
2.401

@<SCITEGIC>MOL_PROPERTY
Pdih
SciTegic.value.DoubleValue
6.823

@<SCITEGIC>MOL_PROPERTY
Idih
SciTegic.value.DoubleValue
0.000

@<SCITEGIC>MOL_PROPERTY
Tether
SciTegic.value.DoubleValue
0.000

@<TRIPOS>MOLECULE
guest-s22_vm2.mol2 : vm2 ligand conformer 21
          20          19           1
SMALL
USER_CHARGES
 
@<TRIPOS>ATOM
       1    C1      20.785598   17.753767   19.583334 C.2        1 MOL1        -0.2535
       2    H1      21.126331   17.168034   18.731288 H          1 MOL1         0.0845
       3    H2      21.209599   17.502067   20.553182 H          1 MOL1         0.0845
       4    C2      19.887034   18.732168   19.424477 C.2        1 MOL1        -0.1324
       5    H3      19.497910   18.937560   18.427482 H          1 MOL1         0.0833
       6    C3      19.319546   19.629559   20.511542 C.3        1 MOL1        -0.1813
       7    H4      18.226044   19.527951   20.518043 H          1 MOL1         0.0753
       8    H5      19.518205   20.676049   20.244214 H          1 MOL1         0.0753
       9    C4      19.862242   19.357512   21.934075 C.3        1 MOL1        -0.1855
      10    H6      19.648954   18.316462   22.213463 H          1 MOL1         0.0755
      11    H7      20.954328   19.476868   21.940033 H          1 MOL1         0.0755
      12    C5      19.236970   20.310871   22.977588 C.3        1 MOL1        -0.1855
      13    H8      18.145028   20.187392   22.987630 H          1 MOL1         0.0755
      14    H9      19.434981   21.350506   22.683467 H          1 MOL1         0.0755
      15    C6      19.793106   20.077925   24.406380 C.3        1 MOL1        -0.1958
      16    H10     20.885715   20.173080   24.407848 H          1 MOL1         0.0753
      17    H11     19.406202   20.850825   25.080847 H          1 MOL1         0.0753
      18    C7      19.421518   18.723517   25.003374 C.2        1 MOL1         0.6174
      19    O1      20.278279   17.863248   25.056947 O.co2      1 MOL1        -0.6695
      20    O2      18.286708   18.569433   25.410282 O.co2      1 MOL1        -0.6695
@<TRIPOS>BOND
    1     1     2    1
    2     1     3    1
    3     1     4    2
    4     4     5    1
    5     4     6    1
    6     6     7    1
    7     6     8    1
    8     6     9    1
    9     9    10    1
   10     9    11    1
   11     9    12    1
   12    12    13    1
   13    12    14    1
   14    12    15    1
   15    15    16    1
   16    15    17    1
   17    15    18    1
   18    18    19    1
   19    18    20    2
@<TRIPOS>SUBSTRUCTURE
       1 MOL1            1 RESIDUE      1      MOL     
@<SCITEGIC>MOL_PROPERTY
VM2 Rank
SciTegic.value.IntegerValue
21

@<SCITEGIC>MOL_PROPERTY
Conf_Id
SciTegic.value.IntegerValue
683

@<SCITEGIC>MOL_PROPERTY
Probability
SciTegic.value.DoubleValue
1.15

@<SCITEGIC>MOL_PROPERTY
Sum Probability
SciTegic.value.DoubleValue
88.58

@<SCITEGIC>MOL_PROPERTY
Delta G
SciTegic.value.DoubleValue
1.472

@<SCITEGIC>MOL_PROPERTY
G
SciTegic.value.DoubleValue
-20.418

@<SCITEGIC>MOL_PROPERTY
E
SciTegic.value.DoubleValue
-35.990

@<SCITEGIC>MOL_PROPERTY
-TS
SciTegic.value.DoubleValue
15.572

@<SCITEGIC>MOL_PROPERTY
U+W
SciTegic.value.DoubleValue
-52.086

@<SCITEGIC>MOL_PROPERTY
U
SciTegic.value.DoubleValue
9.323

@<SCITEGIC>MOL_PROPERTY
W
SciTegic.value.DoubleValue
-61.410

@<SCITEGIC>MOL_PROPERTY
W(PB)
SciTegic.value.DoubleValue
-63.641

@<SCITEGIC>MOL_PROPERTY
W(SA)
SciTegic.value.DoubleValue
2.232

@<SCITEGIC>MOL_PROPERTY
Valence
SciTegic.value.DoubleValue
8.234

@<SCITEGIC>MOL_PROPERTY
Coulomb
SciTegic.value.DoubleValue
-0.022

@<SCITEGIC>MOL_PROPERTY
VdW
SciTegic.value.DoubleValue
1.111

@<SCITEGIC>MOL_PROPERTY
VdW6
SciTegic.value.DoubleValue
-7.367

@<SCITEGIC>MOL_PROPERTY
VdW12
SciTegic.value.DoubleValue
8.478

@<SCITEGIC>MOL_PROPERTY
Bond
SciTegic.value.DoubleValue
0.158

@<SCITEGIC>MOL_PROPERTY
Angle
SciTegic.value.DoubleValue
3.010

@<SCITEGIC>MOL_PROPERTY
Pdih
SciTegic.value.DoubleValue
5.066

@<SCITEGIC>MOL_PROPERTY
Idih
SciTegic.value.DoubleValue
0.000

@<SCITEGIC>MOL_PROPERTY
Tether
SciTegic.value.DoubleValue
0.000

@<TRIPOS>MOLECULE
guest-s22_vm2.mol2 : vm2 ligand conformer 22
          20          19           1
SMALL
USER_CHARGES
 
@<TRIPOS>ATOM
       1    C1      21.101223   18.480928   19.143108 C.2        1 MOL1        -0.2535
       2    H1      22.071342   18.005161   19.010160 H          1 MOL1         0.0845
       3    H2      20.425602   18.488824   18.289329 H          1 MOL1         0.0845
       4    C2      20.756034   19.029797   20.310698 C.2        1 MOL1        -0.1324
       5    H3      21.448148   19.013203   21.152259 H          1 MOL1         0.0833
       6    C3      19.429505   19.712156   20.567967 C.3        1 MOL1        -0.1813
       7    H4      18.961649   19.983225   19.611916 H          1 MOL1         0.0753
       8    H5      19.591653   20.657638   21.100714 H          1 MOL1         0.0753
       9    C4      18.447292   18.814303   21.358258 C.3        1 MOL1        -0.1855
      10    H6      17.488588   19.339963   21.464378 H          1 MOL1         0.0755
      11    H7      18.238018   17.913203   20.765593 H          1 MOL1         0.0755
      12    C5      18.947802   18.384624   22.760118 C.3        1 MOL1        -0.1855
      13    H8      19.870454   17.796046   22.665796 H          1 MOL1         0.0755
      14    H9      18.201833   17.713668   23.208048 H          1 MOL1         0.0755
      15    C6      19.189583   19.574800   23.724303 C.3        1 MOL1        -0.1958
      16    H10     19.994994   20.216611   23.349834 H          1 MOL1         0.0753
      17    H11     18.286727   20.192672   23.797366 H          1 MOL1         0.0753
      18    C7      19.571261   19.125751   25.130167 C.2        1 MOL1         0.6174
      19    O1      20.748845   18.959004   25.379635 O.co2      1 MOL1        -0.6695
      20    O2      18.679455   18.936638   25.933746 O.co2      1 MOL1        -0.6695
@<TRIPOS>BOND
    1     1     2    1
    2     1     3    1
    3     1     4    2
    4     4     5    1
    5     4     6    1
    6     6     7    1
    7     6     8    1
    8     6     9    1
    9     9    10    1
   10     9    11    1
   11     9    12    1
   12    12    13    1
   13    12    14    1
   14    12    15    1
   15    15    16    1
   16    15    17    1
   17    15    18    1
   18    18    19    1
   19    18    20    2
@<TRIPOS>SUBSTRUCTURE
       1 MOL1            1 RESIDUE      1      MOL     
@<SCITEGIC>MOL_PROPERTY
VM2 Rank
SciTegic.value.IntegerValue
22

@<SCITEGIC>MOL_PROPERTY
Conf_Id
SciTegic.value.IntegerValue
507

@<SCITEGIC>MOL_PROPERTY
Probability
SciTegic.value.DoubleValue
1.01

@<SCITEGIC>MOL_PROPERTY
Sum Probability
SciTegic.value.DoubleValue
89.60

@<SCITEGIC>MOL_PROPERTY
Delta G
SciTegic.value.DoubleValue
1.547

@<SCITEGIC>MOL_PROPERTY
G
SciTegic.value.DoubleValue
-20.343

@<SCITEGIC>MOL_PROPERTY
E
SciTegic.value.DoubleValue
-35.610

@<SCITEGIC>MOL_PROPERTY
-TS
SciTegic.value.DoubleValue
15.267

@<SCITEGIC>MOL_PROPERTY
U+W
SciTegic.value.DoubleValue
-51.707

@<SCITEGIC>MOL_PROPERTY
U
SciTegic.value.DoubleValue
8.691

@<SCITEGIC>MOL_PROPERTY
W
SciTegic.value.DoubleValue
-60.398

@<SCITEGIC>MOL_PROPERTY
W(PB)
SciTegic.value.DoubleValue
-62.591

@<SCITEGIC>MOL_PROPERTY
W(SA)
SciTegic.value.DoubleValue
2.193

@<SCITEGIC>MOL_PROPERTY
Valence
SciTegic.value.DoubleValue
9.775

@<SCITEGIC>MOL_PROPERTY
Coulomb
SciTegic.value.DoubleValue
-1.698

@<SCITEGIC>MOL_PROPERTY
VdW
SciTegic.value.DoubleValue
0.614

@<SCITEGIC>MOL_PROPERTY
VdW6
SciTegic.value.DoubleValue
-7.233

@<SCITEGIC>MOL_PROPERTY
VdW12
SciTegic.value.DoubleValue
7.847

@<SCITEGIC>MOL_PROPERTY
Bond
SciTegic.value.DoubleValue
0.151

@<SCITEGIC>MOL_PROPERTY
Angle
SciTegic.value.DoubleValue
2.692

@<SCITEGIC>MOL_PROPERTY
Pdih
SciTegic.value.DoubleValue
6.931

@<SCITEGIC>MOL_PROPERTY
Idih
SciTegic.value.DoubleValue
0.001

@<SCITEGIC>MOL_PROPERTY
Tether
SciTegic.value.DoubleValue
0.000

@<TRIPOS>MOLECULE
guest-s22_vm2.mol2 : vm2 ligand conformer 23
          20          19           1
SMALL
USER_CHARGES
 
@<TRIPOS>ATOM
       1    C1      19.597297   18.027645   18.948972 C.2        1 MOL1        -0.2535
       2    H1      19.105532   17.111182   18.627377 H          1 MOL1         0.0845
       3    H2      20.336596   18.461858   18.277882 H          1 MOL1         0.0845
       4    C2      19.304511   18.592386   20.123290 C.2        1 MOL1        -0.1324
       5    H3      18.559654   18.142675   20.779393 H          1 MOL1         0.0833
       6    C3      19.942221   19.866698   20.634104 C.3        1 MOL1        -0.1813
       7    H4      19.172813   20.531387   21.046713 H          1 MOL1         0.0753
       8    H5      20.394491   20.415150   19.796814 H          1 MOL1         0.0753
       9    C4      21.038335   19.595129   21.692510 C.3        1 MOL1        -0.1855
      10    H6      21.835479   18.997327   21.229667 H          1 MOL1         0.0755
      11    H7      21.500190   20.548872   21.981920 H          1 MOL1         0.0755
      12    C5      20.542182   18.865077   22.965771 C.3        1 MOL1        -0.1855
      13    H8      21.404197   18.678556   23.621081 H          1 MOL1         0.0755
      14    H9      20.140752   17.877580   22.700613 H          1 MOL1         0.0755
      15    C6      19.475098   19.660854   23.761192 C.3        1 MOL1        -0.1958
      16    H10     19.849560   20.663591   23.998991 H          1 MOL1         0.0753
      17    H11     18.563890   19.785443   23.165363 H          1 MOL1         0.0753
      18    C7      19.084421   18.979054   25.067444 C.2        1 MOL1         0.6174
      19    O1      19.718868   19.249983   26.067890 O.co2      1 MOL1        -0.6695
      20    O2      18.168067   18.181173   25.046829 O.co2      1 MOL1        -0.6695
@<TRIPOS>BOND
    1     1     2    1
    2     1     3    1
    3     1     4    2
    4     4     5    1
    5     4     6    1
    6     6     7    1
    7     6     8    1
    8     6     9    1
    9     9    10    1
   10     9    11    1
   11     9    12    1
   12    12    13    1
   13    12    14    1
   14    12    15    1
   15    15    16    1
   16    15    17    1
   17    15    18    1
   18    18    19    1
   19    18    20    2
@<TRIPOS>SUBSTRUCTURE
       1 MOL1            1 RESIDUE      1      MOL     
@<SCITEGIC>MOL_PROPERTY
VM2 Rank
SciTegic.value.IntegerValue
23

@<SCITEGIC>MOL_PROPERTY
Conf_Id
SciTegic.value.IntegerValue
890

@<SCITEGIC>MOL_PROPERTY
Probability
SciTegic.value.DoubleValue
0.98

@<SCITEGIC>MOL_PROPERTY
Sum Probability
SciTegic.value.DoubleValue
90.58

@<SCITEGIC>MOL_PROPERTY
Delta G
SciTegic.value.DoubleValue
1.565

@<SCITEGIC>MOL_PROPERTY
G
SciTegic.value.DoubleValue
-20.325

@<SCITEGIC>MOL_PROPERTY
E
SciTegic.value.DoubleValue
-35.591

@<SCITEGIC>MOL_PROPERTY
-TS
SciTegic.value.DoubleValue
15.266

@<SCITEGIC>MOL_PROPERTY
U+W
SciTegic.value.DoubleValue
-51.687

@<SCITEGIC>MOL_PROPERTY
U
SciTegic.value.DoubleValue
8.691

@<SCITEGIC>MOL_PROPERTY
W
SciTegic.value.DoubleValue
-60.378

@<SCITEGIC>MOL_PROPERTY
W(PB)
SciTegic.value.DoubleValue
-62.583

@<SCITEGIC>MOL_PROPERTY
W(SA)
SciTegic.value.DoubleValue
2.205

@<SCITEGIC>MOL_PROPERTY
Valence
SciTegic.value.DoubleValue
9.775

@<SCITEGIC>MOL_PROPERTY
Coulomb
SciTegic.value.DoubleValue
-1.698

@<SCITEGIC>MOL_PROPERTY
VdW
SciTegic.value.DoubleValue
0.614

@<SCITEGIC>MOL_PROPERTY
VdW6
SciTegic.value.DoubleValue
-7.233

@<SCITEGIC>MOL_PROPERTY
VdW12
SciTegic.value.DoubleValue
7.847

@<SCITEGIC>MOL_PROPERTY
Bond
SciTegic.value.DoubleValue
0.151

@<SCITEGIC>MOL_PROPERTY
Angle
SciTegic.value.DoubleValue
2.692

@<SCITEGIC>MOL_PROPERTY
Pdih
SciTegic.value.DoubleValue
6.931

@<SCITEGIC>MOL_PROPERTY
Idih
SciTegic.value.DoubleValue
0.001

@<SCITEGIC>MOL_PROPERTY
Tether
SciTegic.value.DoubleValue
0.000

@<TRIPOS>MOLECULE
guest-s22_vm2.mol2 : vm2 ligand conformer 24
          20          19           1
SMALL
USER_CHARGES
 
@<TRIPOS>ATOM
       1    C1      20.257505   18.201954   18.303879 C.2        1 MOL1        -0.2535
       2    H1      19.653994   17.308804   18.457655 H          1 MOL1         0.0845
       3    H2      20.905575   18.224148   17.429357 H          1 MOL1         0.0845
       4    C2      20.209625   19.231151   19.153650 C.2        1 MOL1        -0.1324
       5    H3      20.822506   20.115752   18.981843 H          1 MOL1         0.0833
       6    C3      19.334676   19.272394   20.386697 C.3        1 MOL1        -0.1813
       7    H4      18.576158   18.479037   20.341521 H          1 MOL1         0.0753
       8    H5      18.792041   20.226619   20.420520 H          1 MOL1         0.0753
       9    C4      20.173927   19.108378   21.671077 C.3        1 MOL1        -0.1855
      10    H6      20.717828   18.154496   21.630268 H          1 MOL1         0.0755
      11    H7      20.929406   19.904744   21.718102 H          1 MOL1         0.0755
      12    C5      19.295810   19.151106   22.940801 C.3        1 MOL1        -0.1855
      13    H8      18.540229   18.354539   22.894720 H          1 MOL1         0.0755
      14    H9      18.750640   20.104340   22.981546 H          1 MOL1         0.0755
      15    C6      20.140189   18.985384   24.232295 C.3        1 MOL1        -0.1958
      16    H10     20.682088   18.032864   24.201218 H          1 MOL1         0.0753
      17    H11     20.892386   19.780993   24.288102 H          1 MOL1         0.0753
      18    C7      19.346272   19.015924   25.539230 C.2        1 MOL1         0.6174
      19    O1      19.973615   18.890520   26.572116 O.co2      1 MOL1        -0.6695
      20    O2      18.139381   19.161189   25.508253 O.co2      1 MOL1        -0.6695
@<TRIPOS>BOND
    1     1     2    1
    2     1     3    1
    3     1     4    2
    4     4     5    1
    5     4     6    1
    6     6     7    1
    7     6     8    1
    8     6     9    1
    9     9    10    1
   10     9    11    1
   11     9    12    1
   12    12    13    1
   13    12    14    1
   14    12    15    1
   15    15    16    1
   16    15    17    1
   17    15    18    1
   18    18    19    1
   19    18    20    2
@<TRIPOS>SUBSTRUCTURE
       1 MOL1            1 RESIDUE      1      MOL     
@<SCITEGIC>MOL_PROPERTY
VM2 Rank
SciTegic.value.IntegerValue
24

@<SCITEGIC>MOL_PROPERTY
Conf_Id
SciTegic.value.IntegerValue
33

@<SCITEGIC>MOL_PROPERTY
Probability
SciTegic.value.DoubleValue
0.84

@<SCITEGIC>MOL_PROPERTY
Sum Probability
SciTegic.value.DoubleValue
91.42

@<SCITEGIC>MOL_PROPERTY
Delta G
SciTegic.value.DoubleValue
1.659

@<SCITEGIC>MOL_PROPERTY
G
SciTegic.value.DoubleValue
-20.231

@<SCITEGIC>MOL_PROPERTY
E
SciTegic.value.DoubleValue
-35.649

@<SCITEGIC>MOL_PROPERTY
-TS
SciTegic.value.DoubleValue
15.418

@<SCITEGIC>MOL_PROPERTY
U+W
SciTegic.value.DoubleValue
-51.745

@<SCITEGIC>MOL_PROPERTY
U
SciTegic.value.DoubleValue
7.593

@<SCITEGIC>MOL_PROPERTY
W
SciTegic.value.DoubleValue
-59.338

@<SCITEGIC>MOL_PROPERTY
W(PB)
SciTegic.value.DoubleValue
-61.574

@<SCITEGIC>MOL_PROPERTY
W(SA)
SciTegic.value.DoubleValue
2.236

@<SCITEGIC>MOL_PROPERTY
Valence
SciTegic.value.DoubleValue
9.570

@<SCITEGIC>MOL_PROPERTY
Coulomb
SciTegic.value.DoubleValue
-3.091

@<SCITEGIC>MOL_PROPERTY
VdW
SciTegic.value.DoubleValue
1.114

@<SCITEGIC>MOL_PROPERTY
VdW6
SciTegic.value.DoubleValue
-6.064

@<SCITEGIC>MOL_PROPERTY
VdW12
SciTegic.value.DoubleValue
7.178

@<SCITEGIC>MOL_PROPERTY
Bond
SciTegic.value.DoubleValue
0.117

@<SCITEGIC>MOL_PROPERTY
Angle
SciTegic.value.DoubleValue
2.692

@<SCITEGIC>MOL_PROPERTY
Pdih
SciTegic.value.DoubleValue
6.761

@<SCITEGIC>MOL_PROPERTY
Idih
SciTegic.value.DoubleValue
0.000

@<SCITEGIC>MOL_PROPERTY
Tether
SciTegic.value.DoubleValue
0.000

@<TRIPOS>MOLECULE
guest-s22_vm2.mol2 : vm2 ligand conformer 25
          20          19           1
SMALL
USER_CHARGES
 
@<TRIPOS>ATOM
       1    C1      19.096621   17.564012   20.121217 C.2        1 MOL1        -0.2535
       2    H1      18.165445   17.717020   20.664188 H          1 MOL1         0.0845
       3    H2      19.285884   16.569393   19.721359 H          1 MOL1         0.0845
       4    C2      19.977831   18.553928   19.955352 C.2        1 MOL1        -0.1324
       5    H3      20.905735   18.378801   19.411668 H          1 MOL1         0.0833
       6    C3      19.785162   19.960026   20.482174 C.3        1 MOL1        -0.1813
       7    H4      18.750074   20.111325   20.814226 H          1 MOL1         0.0753
       8    H5      19.946639   20.673060   19.662903 H          1 MOL1         0.0753
       9    C4      20.766131   20.297032   21.630802 C.3        1 MOL1        -0.1855
      10    H6      21.794964   20.208833   21.255873 H          1 MOL1         0.0755
      11    H7      20.634767   21.349142   21.918054 H          1 MOL1         0.0755
      12    C5      20.613754   19.404805   22.888026 C.3        1 MOL1        -0.1855
      13    H8      21.402916   19.670492   23.604860 H          1 MOL1         0.0755
      14    H9      20.780164   18.351563   22.623498 H          1 MOL1         0.0755
      15    C6      19.236850   19.550283   23.586458 C.3        1 MOL1        -0.1958
      16    H10     19.036694   20.603997   23.813825 H          1 MOL1         0.0753
      17    H11     18.433427   19.199807   22.928838 H          1 MOL1         0.0753
      18    C7      19.149179   18.761811   24.888261 C.2        1 MOL1         0.6174
      19    O1      19.532143   19.297850   25.909530 O.co2      1 MOL1        -0.6695
      20    O2      18.713329   17.628254   24.846180 O.co2      1 MOL1        -0.6695
@<TRIPOS>BOND
    1     1     2    1
    2     1     3    1
    3     1     4    2
    4     4     5    1
    5     4     6    1
    6     6     7    1
    7     6     8    1
    8     6     9    1
    9     9    10    1
   10     9    11    1
   11     9    12    1
   12    12    13    1
   13    12    14    1
   14    12    15    1
   15    15    16    1
   16    15    17    1
   17    15    18    1
   18    18    19    1
   19    18    20    2
@<TRIPOS>SUBSTRUCTURE
       1 MOL1            1 RESIDUE      1      MOL     
@<SCITEGIC>MOL_PROPERTY
VM2 Rank
SciTegic.value.IntegerValue
25

@<SCITEGIC>MOL_PROPERTY
Conf_Id
SciTegic.value.IntegerValue
931

@<SCITEGIC>MOL_PROPERTY
Probability
SciTegic.value.DoubleValue
0.69

@<SCITEGIC>MOL_PROPERTY
Sum Probability
SciTegic.value.DoubleValue
92.11

@<SCITEGIC>MOL_PROPERTY
Delta G
SciTegic.value.DoubleValue
1.776

@<SCITEGIC>MOL_PROPERTY
G
SciTegic.value.DoubleValue
-20.114

@<SCITEGIC>MOL_PROPERTY
E
SciTegic.value.DoubleValue
-35.468

@<SCITEGIC>MOL_PROPERTY
-TS
SciTegic.value.DoubleValue
15.354

@<SCITEGIC>MOL_PROPERTY
U+W
SciTegic.value.DoubleValue
-51.565

@<SCITEGIC>MOL_PROPERTY
U
SciTegic.value.DoubleValue
9.796

@<SCITEGIC>MOL_PROPERTY
W
SciTegic.value.DoubleValue
-61.361

@<SCITEGIC>MOL_PROPERTY
W(PB)
SciTegic.value.DoubleValue
-63.521

@<SCITEGIC>MOL_PROPERTY
W(SA)
SciTegic.value.DoubleValue
2.160

@<SCITEGIC>MOL_PROPERTY
Valence
SciTegic.value.DoubleValue
9.746

@<SCITEGIC>MOL_PROPERTY
Coulomb
SciTegic.value.DoubleValue
-0.309

@<SCITEGIC>MOL_PROPERTY
VdW
SciTegic.value.DoubleValue
0.360

@<SCITEGIC>MOL_PROPERTY
VdW6
SciTegic.value.DoubleValue
-7.585

@<SCITEGIC>MOL_PROPERTY
VdW12
SciTegic.value.DoubleValue
7.944

@<SCITEGIC>MOL_PROPERTY
Bond
SciTegic.value.DoubleValue
0.150

@<SCITEGIC>MOL_PROPERTY
Angle
SciTegic.value.DoubleValue
2.663

@<SCITEGIC>MOL_PROPERTY
Pdih
SciTegic.value.DoubleValue
6.933

@<SCITEGIC>MOL_PROPERTY
Idih
SciTegic.value.DoubleValue
0.000

@<SCITEGIC>MOL_PROPERTY
Tether
SciTegic.value.DoubleValue
0.000

@<TRIPOS>MOLECULE
guest-s22_vm2.mol2 : vm2 ligand conformer 26
          20          19           1
SMALL
USER_CHARGES
 
@<TRIPOS>ATOM
       1    C1      19.008700   17.620192   20.111129 C.2        1 MOL1        -0.2535
       2    H1      18.103337   17.324798   19.583841 H          1 MOL1         0.0845
       3    H2      19.436019   16.905434   20.812441 H          1 MOL1         0.0845
       4    C2      19.567097   18.816307   19.907467 C.2        1 MOL1        -0.1324
       5    H3      19.121294   19.518679   19.203761 H          1 MOL1         0.0833
       6    C3      20.822786   19.297212   20.602987 C.3        1 MOL1        -0.1813
       7    H4      21.532132   19.660271   19.847531 H          1 MOL1         0.0753
       8    H5      21.325461   18.466196   21.114148 H          1 MOL1         0.0753
       9    C4      20.538333   20.442553   21.604234 C.3        1 MOL1        -0.1855
      10    H6      21.490221   20.802685   22.017656 H          1 MOL1         0.0755
      11    H7      20.101938   21.290341   21.058651 H          1 MOL1         0.0755
      12    C5      19.592490   20.057181   22.769038 C.3        1 MOL1        -0.1855
      13    H8      18.621614   19.730408   22.372042 H          1 MOL1         0.0755
      14    H9      19.392708   20.954587   23.370674 H          1 MOL1         0.0755
      15    C6      20.168988   18.954885   23.695012 C.3        1 MOL1        -0.1958
      16    H10     20.288708   18.014752   23.144918 H          1 MOL1         0.0753
      17    H11     21.160091   19.247666   24.061159 H          1 MOL1         0.0753
      18    C7      19.282734   18.676518   24.903784 C.2        1 MOL1         0.6174
      19    O1      19.441122   19.356049   25.898841 O.co2      1 MOL1        -0.6695
      20    O2      18.448750   17.797105   24.815508 O.co2      1 MOL1        -0.6695
@<TRIPOS>BOND
    1     1     2    1
    2     1     3    1
    3     1     4    2
    4     4     5    1
    5     4     6    1
    6     6     7    1
    7     6     8    1
    8     6     9    1
    9     9    10    1
   10     9    11    1
   11     9    12    1
   12    12    13    1
   13    12    14    1
   14    12    15    1
   15    15    16    1
   16    15    17    1
   17    15    18    1
   18    18    19    1
   19    18    20    2
@<TRIPOS>SUBSTRUCTURE
       1 MOL1            1 RESIDUE      1      MOL     
@<SCITEGIC>MOL_PROPERTY
VM2 Rank
SciTegic.value.IntegerValue
26

@<SCITEGIC>MOL_PROPERTY
Conf_Id
SciTegic.value.IntegerValue
108

@<SCITEGIC>MOL_PROPERTY
Probability
SciTegic.value.DoubleValue
0.65

@<SCITEGIC>MOL_PROPERTY
Sum Probability
SciTegic.value.DoubleValue
92.76

@<SCITEGIC>MOL_PROPERTY
Delta G
SciTegic.value.DoubleValue
1.814

@<SCITEGIC>MOL_PROPERTY
G
SciTegic.value.DoubleValue
-20.076

@<SCITEGIC>MOL_PROPERTY
E
SciTegic.value.DoubleValue
-35.429

@<SCITEGIC>MOL_PROPERTY
-TS
SciTegic.value.DoubleValue
15.354

@<SCITEGIC>MOL_PROPERTY
U+W
SciTegic.value.DoubleValue
-51.526

@<SCITEGIC>MOL_PROPERTY
U
SciTegic.value.DoubleValue
9.796

@<SCITEGIC>MOL_PROPERTY
W
SciTegic.value.DoubleValue
-61.321

@<SCITEGIC>MOL_PROPERTY
W(PB)
SciTegic.value.DoubleValue
-63.482

@<SCITEGIC>MOL_PROPERTY
W(SA)
SciTegic.value.DoubleValue
2.161

@<SCITEGIC>MOL_PROPERTY
Valence
SciTegic.value.DoubleValue
9.746

@<SCITEGIC>MOL_PROPERTY
Coulomb
SciTegic.value.DoubleValue
-0.310

@<SCITEGIC>MOL_PROPERTY
VdW
SciTegic.value.DoubleValue
0.360

@<SCITEGIC>MOL_PROPERTY
VdW6
SciTegic.value.DoubleValue
-7.585

@<SCITEGIC>MOL_PROPERTY
VdW12
SciTegic.value.DoubleValue
7.945

@<SCITEGIC>MOL_PROPERTY
Bond
SciTegic.value.DoubleValue
0.150

@<SCITEGIC>MOL_PROPERTY
Angle
SciTegic.value.DoubleValue
2.663

@<SCITEGIC>MOL_PROPERTY
Pdih
SciTegic.value.DoubleValue
6.933

@<SCITEGIC>MOL_PROPERTY
Idih
SciTegic.value.DoubleValue
0.000

@<SCITEGIC>MOL_PROPERTY
Tether
SciTegic.value.DoubleValue
0.000

@<TRIPOS>MOLECULE
guest-s22_vm2.mol2 : vm2 ligand conformer 27
          20          19           1
SMALL
USER_CHARGES
 
@<TRIPOS>ATOM
       1    C1      20.271816   17.571069   19.444792 C.2        1 MOL1        -0.2535
       2    H1      19.735096   16.719511   19.030116 H          1 MOL1         0.0845
       3    H2      21.359864   17.535418   19.425547 H          1 MOL1         0.0845
       4    C2      19.617257   18.615313   19.959382 C.2        1 MOL1        -0.1324
       5    H3      18.527793   18.631694   19.966232 H          1 MOL1         0.0833
       6    C3      20.295193   19.834671   20.547047 C.3        1 MOL1        -0.1813
       7    H4      19.799209   20.747006   20.189783 H          1 MOL1         0.0753
       8    H5      21.332833   19.889408   20.190918 H          1 MOL1         0.0753
       9    C4      20.302623   19.815839   22.092288 C.3        1 MOL1        -0.1855
      10    H6      20.790019   18.895132   22.442060 H          1 MOL1         0.0755
      11    H7      20.917096   20.651596   22.453784 H          1 MOL1         0.0755
      12    C5      18.885031   19.927269   22.701998 C.3        1 MOL1        -0.1855
      13    H8      18.274449   19.067288   22.394692 H          1 MOL1         0.0755
      14    H9      18.390090   20.824621   22.306900 H          1 MOL1         0.0755
      15    C6      18.908102   20.005931   24.250588 C.3        1 MOL1        -0.1958
      16    H10     19.532991   20.845378   24.578619 H          1 MOL1         0.0753
      17    H11     17.895221   20.200013   24.622622 H          1 MOL1         0.0753
      18    C7      19.407791   18.733208   24.928326 C.2        1 MOL1         0.6174
      19    O1      20.537730   18.724704   25.375862 O.co2      1 MOL1        -0.6695
      20    O2      18.645457   17.789996   25.007718 O.co2      1 MOL1        -0.6695
@<TRIPOS>BOND
    1     1     2    1
    2     1     3    1
    3     1     4    2
    4     4     5    1
    5     4     6    1
    6     6     7    1
    7     6     8    1
    8     6     9    1
    9     9    10    1
   10     9    11    1
   11     9    12    1
   12    12    13    1
   13    12    14    1
   14    12    15    1
   15    15    16    1
   16    15    17    1
   17    15    18    1
   18    18    19    1
   19    18    20    2
@<TRIPOS>SUBSTRUCTURE
       1 MOL1            1 RESIDUE      1      MOL     
@<SCITEGIC>MOL_PROPERTY
VM2 Rank
SciTegic.value.IntegerValue
27

@<SCITEGIC>MOL_PROPERTY
Conf_Id
SciTegic.value.IntegerValue
377

@<SCITEGIC>MOL_PROPERTY
Probability
SciTegic.value.DoubleValue
0.54

@<SCITEGIC>MOL_PROPERTY
Sum Probability
SciTegic.value.DoubleValue
93.31

@<SCITEGIC>MOL_PROPERTY
Delta G
SciTegic.value.DoubleValue
1.918

@<SCITEGIC>MOL_PROPERTY
G
SciTegic.value.DoubleValue
-19.972

@<SCITEGIC>MOL_PROPERTY
E
SciTegic.value.DoubleValue
-35.340

@<SCITEGIC>MOL_PROPERTY
-TS
SciTegic.value.DoubleValue
15.368

@<SCITEGIC>MOL_PROPERTY
U+W
SciTegic.value.DoubleValue
-51.436

@<SCITEGIC>MOL_PROPERTY
U
SciTegic.value.DoubleValue
10.461

@<SCITEGIC>MOL_PROPERTY
W
SciTegic.value.DoubleValue
-61.897

@<SCITEGIC>MOL_PROPERTY
W(PB)
SciTegic.value.DoubleValue
-64.078

@<SCITEGIC>MOL_PROPERTY
W(SA)
SciTegic.value.DoubleValue
2.180

@<SCITEGIC>MOL_PROPERTY
Valence
SciTegic.value.DoubleValue
9.555

@<SCITEGIC>MOL_PROPERTY
Coulomb
SciTegic.value.DoubleValue
0.483

@<SCITEGIC>MOL_PROPERTY
VdW
SciTegic.value.DoubleValue
0.423

@<SCITEGIC>MOL_PROPERTY
VdW6
SciTegic.value.DoubleValue
-7.224

@<SCITEGIC>MOL_PROPERTY
VdW12
SciTegic.value.DoubleValue
7.647

@<SCITEGIC>MOL_PROPERTY
Bond
SciTegic.value.DoubleValue
0.126

@<SCITEGIC>MOL_PROPERTY
Angle
SciTegic.value.DoubleValue
2.492

@<SCITEGIC>MOL_PROPERTY
Pdih
SciTegic.value.DoubleValue
6.936

@<SCITEGIC>MOL_PROPERTY
Idih
SciTegic.value.DoubleValue
0.001

@<SCITEGIC>MOL_PROPERTY
Tether
SciTegic.value.DoubleValue
0.000

@<TRIPOS>MOLECULE
guest-s22_vm2.mol2 : vm2 ligand conformer 28
          20          19           1
SMALL
USER_CHARGES
 
@<TRIPOS>ATOM
       1    C1      20.732319   18.610754   18.783856 C.2        1 MOL1        -0.2535
       2    H1      21.614883   19.248384   18.779469 H          1 MOL1         0.0845
       3    H2      20.693646   17.803484   18.054467 H          1 MOL1         0.0845
       4    C2      19.735221   18.806129   19.650629 C.2        1 MOL1        -0.1324
       5    H3      18.859274   18.158253   19.635607 H          1 MOL1         0.0833
       6    C3      19.716832   19.910103   20.686367 C.3        1 MOL1        -0.1813
       7    H4      18.724745   20.380199   20.715028 H          1 MOL1         0.0753
       8    H5      20.422874   20.700330   20.397266 H          1 MOL1         0.0753
       9    C4      20.093788   19.401695   22.096200 C.3        1 MOL1        -0.1855
      10    H6      21.078935   18.916725   22.058411 H          1 MOL1         0.0755
      11    H7      20.196664   20.266734   22.765606 H          1 MOL1         0.0755
      12    C5      19.049321   18.421771   22.681816 C.3        1 MOL1        -0.1855
      13    H8      18.959848   17.546088   22.025563 H          1 MOL1         0.0755
      14    H9      18.061056   18.901538   22.706152 H          1 MOL1         0.0755
      15    C6      19.420634   17.937752   24.107660 C.3        1 MOL1        -0.1958
      16    H10     18.719675   17.156046   24.423174 H          1 MOL1         0.0753
      17    H11     20.420109   17.486222   24.105938 H          1 MOL1         0.0753
      18    C7      19.384035   19.036878   25.165684 C.2        1 MOL1         0.6174
      19    O1      20.439892   19.484375   25.568128 O.co2      1 MOL1        -0.6695
      20    O2      18.298957   19.408542   25.567661 O.co2      1 MOL1        -0.6695
@<TRIPOS>BOND
    1     1     2    1
    2     1     3    1
    3     1     4    2
    4     4     5    1
    5     4     6    1
    6     6     7    1
    7     6     8    1
    8     6     9    1
    9     9    10    1
   10     9    11    1
   11     9    12    1
   12    12    13    1
   13    12    14    1
   14    12    15    1
   15    15    16    1
   16    15    17    1
   17    15    18    1
   18    18    19    1
   19    18    20    2
@<TRIPOS>SUBSTRUCTURE
       1 MOL1            1 RESIDUE      1      MOL     
@<SCITEGIC>MOL_PROPERTY
VM2 Rank
SciTegic.value.IntegerValue
28

@<SCITEGIC>MOL_PROPERTY
Conf_Id
SciTegic.value.IntegerValue
506

@<SCITEGIC>MOL_PROPERTY
Probability
SciTegic.value.DoubleValue
0.54

@<SCITEGIC>MOL_PROPERTY
Sum Probability
SciTegic.value.DoubleValue
93.84

@<SCITEGIC>MOL_PROPERTY
Delta G
SciTegic.value.DoubleValue
1.924

@<SCITEGIC>MOL_PROPERTY
G
SciTegic.value.DoubleValue
-19.965

@<SCITEGIC>MOL_PROPERTY
E
SciTegic.value.DoubleValue
-35.309

@<SCITEGIC>MOL_PROPERTY
-TS
SciTegic.value.DoubleValue
15.344

@<SCITEGIC>MOL_PROPERTY
U+W
SciTegic.value.DoubleValue
-51.405

@<SCITEGIC>MOL_PROPERTY
U
SciTegic.value.DoubleValue
9.191

@<SCITEGIC>MOL_PROPERTY
W
SciTegic.value.DoubleValue
-60.597

@<SCITEGIC>MOL_PROPERTY
W(PB)
SciTegic.value.DoubleValue
-62.798

@<SCITEGIC>MOL_PROPERTY
W(SA)
SciTegic.value.DoubleValue
2.201

@<SCITEGIC>MOL_PROPERTY
Valence
SciTegic.value.DoubleValue
9.572

@<SCITEGIC>MOL_PROPERTY
Coulomb
SciTegic.value.DoubleValue
-0.885

@<SCITEGIC>MOL_PROPERTY
VdW
SciTegic.value.DoubleValue
0.504

@<SCITEGIC>MOL_PROPERTY
VdW6
SciTegic.value.DoubleValue
-7.168

@<SCITEGIC>MOL_PROPERTY
VdW12
SciTegic.value.DoubleValue
7.672

@<SCITEGIC>MOL_PROPERTY
Bond
SciTegic.value.DoubleValue
0.127

@<SCITEGIC>MOL_PROPERTY
Angle
SciTegic.value.DoubleValue
2.504

@<SCITEGIC>MOL_PROPERTY
Pdih
SciTegic.value.DoubleValue
6.941

@<SCITEGIC>MOL_PROPERTY
Idih
SciTegic.value.DoubleValue
0.001

@<SCITEGIC>MOL_PROPERTY
Tether
SciTegic.value.DoubleValue
0.000

@<TRIPOS>MOLECULE
guest-s22_vm2.mol2 : vm2 ligand conformer 29
          20          19           1
SMALL
USER_CHARGES
 
@<TRIPOS>ATOM
       1    C1      20.690753   17.697420   19.498724 C.2        1 MOL1        -0.2535
       2    H1      21.683476   17.307086   19.281199 H          1 MOL1         0.0845
       3    H2      19.837910   17.076640   19.228942 H          1 MOL1         0.0845
       4    C2      20.529759   18.890412   20.077124 C.2        1 MOL1        -0.1324
       5    H3      21.397117   19.496814   20.336377 H          1 MOL1         0.0833
       6    C3      19.182695   19.499212   20.403559 C.3        1 MOL1        -0.1813
       7    H4      18.399731   19.005022   19.812575 H          1 MOL1         0.0753
       8    H5      19.168841   20.556918   20.108496 H          1 MOL1         0.0753
       9    C4      18.827020   19.370892   21.901962 C.3        1 MOL1        -0.1855
      10    H6      17.792621   19.709451   22.050764 H          1 MOL1         0.0755
      11    H7      18.854154   18.311396   22.192359 H          1 MOL1         0.0755
      12    C5      19.766575   20.193085   22.815726 C.3        1 MOL1        -0.1855
      13    H8      19.768809   21.240351   22.484760 H          1 MOL1         0.0755
      14    H9      20.798406   19.828350   22.720280 H          1 MOL1         0.0755
      15    C6      19.344434   20.137499   24.306885 C.3        1 MOL1        -0.1958
      16    H10     19.968282   20.825054   24.890054 H          1 MOL1         0.0753
      17    H11     18.307449   20.475890   24.420539 H          1 MOL1         0.0753
      18    C7      19.476850   18.754038   24.937236 C.2        1 MOL1         0.6174
      19    O1      20.586219   18.375012   25.257775 O.co2      1 MOL1        -0.6695
      20    O2      18.466695   18.100429   25.109010 O.co2      1 MOL1        -0.6695
@<TRIPOS>BOND
    1     1     2    1
    2     1     3    1
    3     1     4    2
    4     4     5    1
    5     4     6    1
    6     6     7    1
    7     6     8    1
    8     6     9    1
    9     9    10    1
   10     9    11    1
   11     9    12    1
   12    12    13    1
   13    12    14    1
   14    12    15    1
   15    15    16    1
   16    15    17    1
   17    15    18    1
   18    18    19    1
   19    18    20    2
@<TRIPOS>SUBSTRUCTURE
       1 MOL1            1 RESIDUE      1      MOL     
@<SCITEGIC>MOL_PROPERTY
VM2 Rank
SciTegic.value.IntegerValue
29

@<SCITEGIC>MOL_PROPERTY
Conf_Id
SciTegic.value.IntegerValue
1123

@<SCITEGIC>MOL_PROPERTY
Probability
SciTegic.value.DoubleValue
0.52

@<SCITEGIC>MOL_PROPERTY
Sum Probability
SciTegic.value.DoubleValue
94.36

@<SCITEGIC>MOL_PROPERTY
Delta G
SciTegic.value.DoubleValue
1.947

@<SCITEGIC>MOL_PROPERTY
G
SciTegic.value.DoubleValue
-19.942

@<SCITEGIC>MOL_PROPERTY
E
SciTegic.value.DoubleValue
-35.310

@<SCITEGIC>MOL_PROPERTY
-TS
SciTegic.value.DoubleValue
15.368

@<SCITEGIC>MOL_PROPERTY
U+W
SciTegic.value.DoubleValue
-51.407

@<SCITEGIC>MOL_PROPERTY
U
SciTegic.value.DoubleValue
10.461

@<SCITEGIC>MOL_PROPERTY
W
SciTegic.value.DoubleValue
-61.868

@<SCITEGIC>MOL_PROPERTY
W(PB)
SciTegic.value.DoubleValue
-64.045

@<SCITEGIC>MOL_PROPERTY
W(SA)
SciTegic.value.DoubleValue
2.178

@<SCITEGIC>MOL_PROPERTY
Valence
SciTegic.value.DoubleValue
9.554

@<SCITEGIC>MOL_PROPERTY
Coulomb
SciTegic.value.DoubleValue
0.484

@<SCITEGIC>MOL_PROPERTY
VdW
SciTegic.value.DoubleValue
0.423

@<SCITEGIC>MOL_PROPERTY
VdW6
SciTegic.value.DoubleValue
-7.224

@<SCITEGIC>MOL_PROPERTY
VdW12
SciTegic.value.DoubleValue
7.647

@<SCITEGIC>MOL_PROPERTY
Bond
SciTegic.value.DoubleValue
0.126

@<SCITEGIC>MOL_PROPERTY
Angle
SciTegic.value.DoubleValue
2.492

@<SCITEGIC>MOL_PROPERTY
Pdih
SciTegic.value.DoubleValue
6.936

@<SCITEGIC>MOL_PROPERTY
Idih
SciTegic.value.DoubleValue
0.001

@<SCITEGIC>MOL_PROPERTY
Tether
SciTegic.value.DoubleValue
0.000

@<TRIPOS>MOLECULE
guest-s22_vm2.mol2 : vm2 ligand conformer 30
          20          19           1
SMALL
USER_CHARGES
 
@<TRIPOS>ATOM
       1    C1      19.907528   18.362119   18.677421 C.2        1 MOL1        -0.2535
       2    H1      18.850221   18.414899   18.422812 H          1 MOL1         0.0845
       3    H2      20.548077   17.759557   18.035701 H          1 MOL1         0.0845
       4    C2      20.402716   19.007301   19.736762 C.2        1 MOL1        -0.1324
       5    H3      21.464790   18.943713   19.971719 H          1 MOL1         0.0833
       6    C3      19.575266   19.867426   20.668084 C.3        1 MOL1        -0.1813
       7    H4      18.643470   20.163889   20.167685 H          1 MOL1         0.0753
       8    H5      20.112144   20.798448   20.893932 H          1 MOL1         0.0753
       9    C4      19.219841   19.138309   21.983481 C.3        1 MOL1        -0.1855
      10    H6      18.510148   19.758441   22.548064 H          1 MOL1         0.0755
      11    H7      18.698710   18.199311   21.751441 H          1 MOL1         0.0755
      12    C5      20.458557   18.846597   22.863594 C.3        1 MOL1        -0.1855
      13    H8      20.988150   19.783886   23.083724 H          1 MOL1         0.0755
      14    H9      21.160194   18.209381   22.309379 H          1 MOL1         0.0755
      15    C6      20.090672   18.139738   24.194080 C.3        1 MOL1        -0.1958
      16    H10     19.531427   17.218353   23.991281 H          1 MOL1         0.0753
      17    H11     21.007578   17.845708   24.718281 H          1 MOL1         0.0753
      18    C7      19.275390   19.004122   25.151674 C.2        1 MOL1         0.6174
      19    O1      19.853839   19.877297   25.768175 O.co2      1 MOL1        -0.6695
      20    O2      18.087192   18.775093   25.264729 O.co2      1 MOL1        -0.6695
@<TRIPOS>BOND
    1     1     2    1
    2     1     3    1
    3     1     4    2
    4     4     5    1
    5     4     6    1
    6     6     7    1
    7     6     8    1
    8     6     9    1
    9     9    10    1
   10     9    11    1
   11     9    12    1
   12    12    13    1
   13    12    14    1
   14    12    15    1
   15    15    16    1
   16    15    17    1
   17    15    18    1
   18    18    19    1
   19    18    20    2
@<TRIPOS>SUBSTRUCTURE
       1 MOL1            1 RESIDUE      1      MOL     
@<SCITEGIC>MOL_PROPERTY
VM2 Rank
SciTegic.value.IntegerValue
30

@<SCITEGIC>MOL_PROPERTY
Conf_Id
SciTegic.value.IntegerValue
220

@<SCITEGIC>MOL_PROPERTY
Probability
SciTegic.value.DoubleValue
0.49

@<SCITEGIC>MOL_PROPERTY
Sum Probability
SciTegic.value.DoubleValue
94.85

@<SCITEGIC>MOL_PROPERTY
Delta G
SciTegic.value.DoubleValue
1.986

@<SCITEGIC>MOL_PROPERTY
G
SciTegic.value.DoubleValue
-19.904

@<SCITEGIC>MOL_PROPERTY
E
SciTegic.value.DoubleValue
-35.247

@<SCITEGIC>MOL_PROPERTY
-TS
SciTegic.value.DoubleValue
15.343

@<SCITEGIC>MOL_PROPERTY
U+W
SciTegic.value.DoubleValue
-51.344

@<SCITEGIC>MOL_PROPERTY
U
SciTegic.value.DoubleValue
9.191

@<SCITEGIC>MOL_PROPERTY
W
SciTegic.value.DoubleValue
-60.535

@<SCITEGIC>MOL_PROPERTY
W(PB)
SciTegic.value.DoubleValue
-62.743

@<SCITEGIC>MOL_PROPERTY
W(SA)
SciTegic.value.DoubleValue
2.208

@<SCITEGIC>MOL_PROPERTY
Valence
SciTegic.value.DoubleValue
9.572

@<SCITEGIC>MOL_PROPERTY
Coulomb
SciTegic.value.DoubleValue
-0.885

@<SCITEGIC>MOL_PROPERTY
VdW
SciTegic.value.DoubleValue
0.504

@<SCITEGIC>MOL_PROPERTY
VdW6
SciTegic.value.DoubleValue
-7.168

@<SCITEGIC>MOL_PROPERTY
VdW12
SciTegic.value.DoubleValue
7.672

@<SCITEGIC>MOL_PROPERTY
Bond
SciTegic.value.DoubleValue
0.127

@<SCITEGIC>MOL_PROPERTY
Angle
SciTegic.value.DoubleValue
2.504

@<SCITEGIC>MOL_PROPERTY
Pdih
SciTegic.value.DoubleValue
6.941

@<SCITEGIC>MOL_PROPERTY
Idih
SciTegic.value.DoubleValue
0.001

@<SCITEGIC>MOL_PROPERTY
Tether
SciTegic.value.DoubleValue
0.000

@<TRIPOS>MOLECULE
guest-s22_vm2.mol2 : vm2 ligand conformer 31
          20          19           1
SMALL
USER_CHARGES
 
@<TRIPOS>ATOM
       1    C1      21.012674   18.030455   19.912149 C.2        1 MOL1        -0.2535
       2    H1      20.261377   17.256966   20.055165 H          1 MOL1         0.0845
       3    H2      22.005606   17.703951   19.608148 H          1 MOL1         0.0845
       4    C2      20.743476   19.328153   20.092123 C.2        1 MOL1        -0.1324
       5    H3      21.533518   20.061435   19.932524 H          1 MOL1         0.0833
       6    C3      19.412228   19.925116   20.518742 C.3        1 MOL1        -0.1813
       7    H4      18.902926   20.316954   19.628430 H          1 MOL1         0.0753
       8    H5      19.602312   20.806770   21.143405 H          1 MOL1         0.0753
       9    C4      18.451711   18.970011   21.274717 C.3        1 MOL1        -0.1855
      10    H6      17.499356   19.490580   21.444003 H          1 MOL1         0.0755
      11    H7      18.210136   18.112721   20.632698 H          1 MOL1         0.0755
      12    C5      18.986338   18.457967   22.636586 C.3        1 MOL1        -0.1855
      13    H8      19.929950   17.914879   22.494281 H          1 MOL1         0.0755
      14    H9      18.270655   17.729300   23.041581 H          1 MOL1         0.0755
      15    C6      19.195289   19.583168   23.683093 C.3        1 MOL1        -0.1958
      16    H10     19.981376   20.272508   23.354890 H          1 MOL1         0.0753
      17    H11     18.275272   20.168019   23.799995 H          1 MOL1         0.0753
      18    C7      19.590873   19.046991   25.054322 C.2        1 MOL1         0.6174
      19    O1      20.773817   18.930281   25.306858 O.co2      1 MOL1        -0.6695
      20    O2      18.704595   18.745859   25.829410 O.co2      1 MOL1        -0.6695
@<TRIPOS>BOND
    1     1     2    1
    2     1     3    1
    3     1     4    2
    4     4     5    1
    5     4     6    1
    6     6     7    1
    7     6     8    1
    8     6     9    1
    9     9    10    1
   10     9    11    1
   11     9    12    1
   12    12    13    1
   13    12    14    1
   14    12    15    1
   15    15    16    1
   16    15    17    1
   17    15    18    1
   18    18    19    1
   19    18    20    2
@<TRIPOS>SUBSTRUCTURE
       1 MOL1            1 RESIDUE      1      MOL     
@<SCITEGIC>MOL_PROPERTY
VM2 Rank
SciTegic.value.IntegerValue
31

@<SCITEGIC>MOL_PROPERTY
Conf_Id
SciTegic.value.IntegerValue
766

@<SCITEGIC>MOL_PROPERTY
Probability
SciTegic.value.DoubleValue
0.44

@<SCITEGIC>MOL_PROPERTY
Sum Probability
SciTegic.value.DoubleValue
95.29

@<SCITEGIC>MOL_PROPERTY
Delta G
SciTegic.value.DoubleValue
2.044

@<SCITEGIC>MOL_PROPERTY
G
SciTegic.value.DoubleValue
-19.845

@<SCITEGIC>MOL_PROPERTY
E
SciTegic.value.DoubleValue
-35.290

@<SCITEGIC>MOL_PROPERTY
-TS
SciTegic.value.DoubleValue
15.444

@<SCITEGIC>MOL_PROPERTY
U+W
SciTegic.value.DoubleValue
-51.386

@<SCITEGIC>MOL_PROPERTY
U
SciTegic.value.DoubleValue
10.001

@<SCITEGIC>MOL_PROPERTY
W
SciTegic.value.DoubleValue
-61.387

@<SCITEGIC>MOL_PROPERTY
W(PB)
SciTegic.value.DoubleValue
-63.554

@<SCITEGIC>MOL_PROPERTY
W(SA)
SciTegic.value.DoubleValue
2.168

@<SCITEGIC>MOL_PROPERTY
Valence
SciTegic.value.DoubleValue
9.398

@<SCITEGIC>MOL_PROPERTY
Coulomb
SciTegic.value.DoubleValue
-0.503

@<SCITEGIC>MOL_PROPERTY
VdW
SciTegic.value.DoubleValue
1.105

@<SCITEGIC>MOL_PROPERTY
VdW6
SciTegic.value.DoubleValue
-7.976

@<SCITEGIC>MOL_PROPERTY
VdW12
SciTegic.value.DoubleValue
9.080

@<SCITEGIC>MOL_PROPERTY
Bond
SciTegic.value.DoubleValue
0.216

@<SCITEGIC>MOL_PROPERTY
Angle
SciTegic.value.DoubleValue
3.417

@<SCITEGIC>MOL_PROPERTY
Pdih
SciTegic.value.DoubleValue
5.765

@<SCITEGIC>MOL_PROPERTY
Idih
SciTegic.value.DoubleValue
0.001

@<SCITEGIC>MOL_PROPERTY
Tether
SciTegic.value.DoubleValue
0.000

@<TRIPOS>MOLECULE
guest-s22_vm2.mol2 : vm2 ligand conformer 32
          20          19           1
SMALL
USER_CHARGES
 
@<TRIPOS>ATOM
       1    C1      21.223576   19.660772   19.931533 C.2        1 MOL1        -0.2535
       2    H1      22.267832   19.730928   19.632294 H          1 MOL1         0.0845
       3    H2      20.693381   20.596390   20.094926 H          1 MOL1         0.0845
       4    C2      20.632490   18.470426   20.081775 C.2        1 MOL1        -0.1324
       5    H3      21.210462   17.564210   19.902718 H          1 MOL1         0.0833
       6    C3      19.191888   18.221995   20.498354 C.3        1 MOL1        -0.1813
       7    H4      19.149499   17.306556   21.101533 H          1 MOL1         0.0753
       8    H5      18.602314   17.993700   19.600652 H          1 MOL1         0.0753
       9    C4      18.503755   19.372017   21.279530 C.3        1 MOL1        -0.1855
      10    H6      18.490222   20.277421   20.658601 H          1 MOL1         0.0755
      11    H7      17.449778   19.107089   21.439446 H          1 MOL1         0.0755
      12    C5      19.146960   19.698971   22.651423 C.3        1 MOL1        -0.1855
      13    H8      18.639063   20.576063   23.075606 H          1 MOL1         0.0755
      14    H9      20.198149   19.987207   22.519053 H          1 MOL1         0.0755
      15    C6      19.059465   18.533372   23.670557 C.3        1 MOL1        -0.1958
      16    H10     18.020541   18.199348   23.776472 H          1 MOL1         0.0753
      17    H11     19.645230   17.674578   23.323864 H          1 MOL1         0.0753
      18    C7      19.574292   18.918858   25.052799 C.2        1 MOL1         0.6174
      19    O1      20.747122   18.724340   25.304564 O.co2      1 MOL1        -0.6695
      20    O2      18.791451   19.417249   25.837464 O.co2      1 MOL1        -0.6695
@<TRIPOS>BOND
    1     1     2    1
    2     1     3    1
    3     1     4    2
    4     4     5    1
    5     4     6    1
    6     6     7    1
    7     6     8    1
    8     6     9    1
    9     9    10    1
   10     9    11    1
   11     9    12    1
   12    12    13    1
   13    12    14    1
   14    12    15    1
   15    15    16    1
   16    15    17    1
   17    15    18    1
   18    18    19    1
   19    18    20    2
@<TRIPOS>SUBSTRUCTURE
       1 MOL1            1 RESIDUE      1      MOL     
@<SCITEGIC>MOL_PROPERTY
VM2 Rank
SciTegic.value.IntegerValue
32

@<SCITEGIC>MOL_PROPERTY
Conf_Id
SciTegic.value.IntegerValue
1060

@<SCITEGIC>MOL_PROPERTY
Probability
SciTegic.value.DoubleValue
0.44

@<SCITEGIC>MOL_PROPERTY
Sum Probability
SciTegic.value.DoubleValue
95.72

@<SCITEGIC>MOL_PROPERTY
Delta G
SciTegic.value.DoubleValue
2.050

@<SCITEGIC>MOL_PROPERTY
G
SciTegic.value.DoubleValue
-19.840

@<SCITEGIC>MOL_PROPERTY
E
SciTegic.value.DoubleValue
-35.283

@<SCITEGIC>MOL_PROPERTY
-TS
SciTegic.value.DoubleValue
15.443

@<SCITEGIC>MOL_PROPERTY
U+W
SciTegic.value.DoubleValue
-51.380

@<SCITEGIC>MOL_PROPERTY
U
SciTegic.value.DoubleValue
10.000

@<SCITEGIC>MOL_PROPERTY
W
SciTegic.value.DoubleValue
-61.380

@<SCITEGIC>MOL_PROPERTY
W(PB)
SciTegic.value.DoubleValue
-63.541

@<SCITEGIC>MOL_PROPERTY
W(SA)
SciTegic.value.DoubleValue
2.161

@<SCITEGIC>MOL_PROPERTY
Valence
SciTegic.value.DoubleValue
9.399

@<SCITEGIC>MOL_PROPERTY
Coulomb
SciTegic.value.DoubleValue
-0.503

@<SCITEGIC>MOL_PROPERTY
VdW
SciTegic.value.DoubleValue
1.105

@<SCITEGIC>MOL_PROPERTY
VdW6
SciTegic.value.DoubleValue
-7.975

@<SCITEGIC>MOL_PROPERTY
VdW12
SciTegic.value.DoubleValue
9.080

@<SCITEGIC>MOL_PROPERTY
Bond
SciTegic.value.DoubleValue
0.216

@<SCITEGIC>MOL_PROPERTY
Angle
SciTegic.value.DoubleValue
3.417

@<SCITEGIC>MOL_PROPERTY
Pdih
SciTegic.value.DoubleValue
5.765

@<SCITEGIC>MOL_PROPERTY
Idih
SciTegic.value.DoubleValue
0.001

@<SCITEGIC>MOL_PROPERTY
Tether
SciTegic.value.DoubleValue
0.000

@<TRIPOS>MOLECULE
guest-s22_vm2.mol2 : vm2 ligand conformer 33
          20          19           1
SMALL
USER_CHARGES
 
@<TRIPOS>ATOM
       1    C1      19.679886   18.146827   18.985335 C.2        1 MOL1        -0.2535
       2    H1      20.183840   17.475607   18.292083 H          1 MOL1         0.0845
       3    H2      18.600198   18.047131   19.084119 H          1 MOL1         0.0845
       4    C2      20.363609   19.053689   19.688289 C.2        1 MOL1        -0.1324
       5    H3      21.444412   19.135686   19.576336 H          1 MOL1         0.0833
       6    C3      19.733605   20.019064   20.669718 C.3        1 MOL1        -0.1813
       7    H4      18.639396   20.009838   20.573360 H          1 MOL1         0.0753
       8    H5      20.057203   21.039796   20.426386 H          1 MOL1         0.0753
       9    C4      20.124966   19.707842   22.131922 C.3        1 MOL1        -0.1855
      10    H6      21.219320   19.712953   22.228293 H          1 MOL1         0.0755
      11    H7      19.750447   20.514907   22.776429 H          1 MOL1         0.0755
      12    C5      19.561775   18.353984   22.625368 C.3        1 MOL1        -0.1855
      13    H8      19.940709   17.545473   21.986003 H          1 MOL1         0.0755
      14    H9      18.467553   18.347907   22.525413 H          1 MOL1         0.0755
      15    C6      19.945842   18.048684   24.096530 C.3        1 MOL1        -0.1958
      16    H10     19.628919   17.031247   24.354062 H          1 MOL1         0.0753
      17    H11     21.035253   18.082400   24.218288 H          1 MOL1         0.0753
      18    C7      19.312253   18.994781   25.112496 C.2        1 MOL1         0.6174
      19    O1      20.010816   19.854281   25.612853 O.co2      1 MOL1        -0.6695
      20    O2      18.138248   18.838848   25.385491 O.co2      1 MOL1        -0.6695
@<TRIPOS>BOND
    1     1     2    1
    2     1     3    1
    3     1     4    2
    4     4     5    1
    5     4     6    1
    6     6     7    1
    7     6     8    1
    8     6     9    1
    9     9    10    1
   10     9    11    1
   11     9    12    1
   12    12    13    1
   13    12    14    1
   14    12    15    1
   15    15    16    1
   16    15    17    1
   17    15    18    1
   18    18    19    1
   19    18    20    2
@<TRIPOS>SUBSTRUCTURE
       1 MOL1            1 RESIDUE      1      MOL     
@<SCITEGIC>MOL_PROPERTY
VM2 Rank
SciTegic.value.IntegerValue
33

@<SCITEGIC>MOL_PROPERTY
Conf_Id
SciTegic.value.IntegerValue
1109

@<SCITEGIC>MOL_PROPERTY
Probability
SciTegic.value.DoubleValue
0.41

@<SCITEGIC>MOL_PROPERTY
Sum Probability
SciTegic.value.DoubleValue
96.13

@<SCITEGIC>MOL_PROPERTY
Delta G
SciTegic.value.DoubleValue
2.087

@<SCITEGIC>MOL_PROPERTY
G
SciTegic.value.DoubleValue
-19.803

@<SCITEGIC>MOL_PROPERTY
E
SciTegic.value.DoubleValue
-35.222

@<SCITEGIC>MOL_PROPERTY
-TS
SciTegic.value.DoubleValue
15.419

@<SCITEGIC>MOL_PROPERTY
U+W
SciTegic.value.DoubleValue
-51.318

@<SCITEGIC>MOL_PROPERTY
U
SciTegic.value.DoubleValue
9.294

@<SCITEGIC>MOL_PROPERTY
W
SciTegic.value.DoubleValue
-60.613

@<SCITEGIC>MOL_PROPERTY
W(PB)
SciTegic.value.DoubleValue
-62.807

@<SCITEGIC>MOL_PROPERTY
W(SA)
SciTegic.value.DoubleValue
2.194

@<SCITEGIC>MOL_PROPERTY
Valence
SciTegic.value.DoubleValue
9.496

@<SCITEGIC>MOL_PROPERTY
Coulomb
SciTegic.value.DoubleValue
-0.611

@<SCITEGIC>MOL_PROPERTY
VdW
SciTegic.value.DoubleValue
0.409

@<SCITEGIC>MOL_PROPERTY
VdW6
SciTegic.value.DoubleValue
-7.332

@<SCITEGIC>MOL_PROPERTY
VdW12
SciTegic.value.DoubleValue
7.741

@<SCITEGIC>MOL_PROPERTY
Bond
SciTegic.value.DoubleValue
0.126

@<SCITEGIC>MOL_PROPERTY
Angle
SciTegic.value.DoubleValue
2.497

@<SCITEGIC>MOL_PROPERTY
Pdih
SciTegic.value.DoubleValue
6.872

@<SCITEGIC>MOL_PROPERTY
Idih
SciTegic.value.DoubleValue
0.000

@<SCITEGIC>MOL_PROPERTY
Tether
SciTegic.value.DoubleValue
0.000

@<TRIPOS>MOLECULE
guest-s22_vm2.mol2 : vm2 ligand conformer 34
          20          19           1
SMALL
USER_CHARGES
 
@<TRIPOS>ATOM
       1    C1      20.961044   18.533008   19.150513 C.2        1 MOL1        -0.2535
       2    H1      21.081708   17.746158   18.407943 H          1 MOL1         0.0845
       3    H2      21.862439   19.030406   19.504779 H          1 MOL1         0.0845
       4    C2      19.752709   18.869572   19.609504 C.2        1 MOL1        -0.1324
       5    H3      18.863133   18.357554   19.243605 H          1 MOL1         0.0833
       6    C3      19.506427   19.950570   20.640446 C.3        1 MOL1        -0.1813
       7    H4      18.746716   20.644801   20.257430 H          1 MOL1         0.0753
       8    H5      20.415727   20.545196   20.802477 H          1 MOL1         0.0753
       9    C4      19.019883   19.374716   21.989418 C.3        1 MOL1        -0.1855
      10    H6      18.732262   20.207974   22.645135 H          1 MOL1         0.0755
      11    H7      18.112741   18.776515   21.827645 H          1 MOL1         0.0755
      12    C5      20.095781   18.514929   22.694267 C.3        1 MOL1        -0.1855
      13    H8      21.004166   19.112513   22.852642 H          1 MOL1         0.0755
      14    H9      20.379464   17.677717   22.042602 H          1 MOL1         0.0755
      15    C6      19.609766   17.947336   24.053185 C.3        1 MOL1        -0.1958
      16    H10     18.685195   17.373854   23.915106 H          1 MOL1         0.0753
      17    H11     20.359064   17.251364   24.448300 H          1 MOL1         0.0753
      18    C7      19.368505   19.011745   25.119745 C.2        1 MOL1         0.6174
      19    O1      20.335802   19.501492   25.668937 O.co2      1 MOL1        -0.6695
      20    O2      18.221082   19.314631   25.381984 O.co2      1 MOL1        -0.6695
@<TRIPOS>BOND
    1     1     2    1
    2     1     3    1
    3     1     4    2
    4     4     5    1
    5     4     6    1
    6     6     7    1
    7     6     8    1
    8     6     9    1
    9     9    10    1
   10     9    11    1
   11     9    12    1
   12    12    13    1
   13    12    14    1
   14    12    15    1
   15    15    16    1
   16    15    17    1
   17    15    18    1
   18    18    19    1
   19    18    20    2
@<TRIPOS>SUBSTRUCTURE
       1 MOL1            1 RESIDUE      1      MOL     
@<SCITEGIC>MOL_PROPERTY
VM2 Rank
SciTegic.value.IntegerValue
34

@<SCITEGIC>MOL_PROPERTY
Conf_Id
SciTegic.value.IntegerValue
382

@<SCITEGIC>MOL_PROPERTY
Probability
SciTegic.value.DoubleValue
0.39

@<SCITEGIC>MOL_PROPERTY
Sum Probability
SciTegic.value.DoubleValue
96.53

@<SCITEGIC>MOL_PROPERTY
Delta G
SciTegic.value.DoubleValue
2.113

@<SCITEGIC>MOL_PROPERTY
G
SciTegic.value.DoubleValue
-19.776

@<SCITEGIC>MOL_PROPERTY
E
SciTegic.value.DoubleValue
-35.195

@<SCITEGIC>MOL_PROPERTY
-TS
SciTegic.value.DoubleValue
15.418

@<SCITEGIC>MOL_PROPERTY
U+W
SciTegic.value.DoubleValue
-51.291

@<SCITEGIC>MOL_PROPERTY
U
SciTegic.value.DoubleValue
9.294

@<SCITEGIC>MOL_PROPERTY
W
SciTegic.value.DoubleValue
-60.585

@<SCITEGIC>MOL_PROPERTY
W(PB)
SciTegic.value.DoubleValue
-62.765

@<SCITEGIC>MOL_PROPERTY
W(SA)
SciTegic.value.DoubleValue
2.180

@<SCITEGIC>MOL_PROPERTY
Valence
SciTegic.value.DoubleValue
9.495

@<SCITEGIC>MOL_PROPERTY
Coulomb
SciTegic.value.DoubleValue
-0.611

@<SCITEGIC>MOL_PROPERTY
VdW
SciTegic.value.DoubleValue
0.409

@<SCITEGIC>MOL_PROPERTY
VdW6
SciTegic.value.DoubleValue
-7.332

@<SCITEGIC>MOL_PROPERTY
VdW12
SciTegic.value.DoubleValue
7.741

@<SCITEGIC>MOL_PROPERTY
Bond
SciTegic.value.DoubleValue
0.126

@<SCITEGIC>MOL_PROPERTY
Angle
SciTegic.value.DoubleValue
2.497

@<SCITEGIC>MOL_PROPERTY
Pdih
SciTegic.value.DoubleValue
6.872

@<SCITEGIC>MOL_PROPERTY
Idih
SciTegic.value.DoubleValue
0.000

@<SCITEGIC>MOL_PROPERTY
Tether
SciTegic.value.DoubleValue
0.000

@<TRIPOS>MOLECULE
guest-s22_vm2.mol2 : vm2 ligand conformer 35
          20          19           1
SMALL
USER_CHARGES
 
@<TRIPOS>ATOM
       1    C1      19.668266   17.824422   19.358188 C.2        1 MOL1        -0.2535
       2    H1      18.745121   18.282575   19.007057 H          1 MOL1         0.0845
       3    H2      19.861728   16.795251   19.060741 H          1 MOL1         0.0845
       4    C2      20.530553   18.494264   20.127471 C.2        1 MOL1        -0.1324
       5    H3      21.447661   18.016263   20.470738 H          1 MOL1         0.0833
       6    C3      20.329799   19.924244   20.582178 C.3        1 MOL1        -0.1813
       7    H4      19.494789   20.388782   20.040355 H          1 MOL1         0.0753
       8    H5      21.224839   20.509282   20.332289 H          1 MOL1         0.0753
       9    C4      20.077808   20.024750   22.103479 C.3        1 MOL1        -0.1855
      10    H6      20.917321   19.565508   22.643529 H          1 MOL1         0.0755
      11    H7      20.062600   21.084584   22.392028 H          1 MOL1         0.0755
      12    C5      18.747793   19.361642   22.533145 C.3        1 MOL1        -0.1855
      13    H8      18.765914   18.290692   22.288009 H          1 MOL1         0.0755
      14    H9      17.921828   19.802307   21.958838 H          1 MOL1         0.0755
      15    C6      18.457869   19.533671   24.046806 C.3        1 MOL1        -0.1958
      16    H10     18.459572   20.597084   24.314906 H          1 MOL1         0.0753
      17    H11     17.455913   19.150729   24.273585 H          1 MOL1         0.0753
      18    C7      19.443158   18.801560   24.953465 C.2        1 MOL1         0.6174
      19    O1      20.304118   19.452275   25.512468 O.co2      1 MOL1        -0.6695
      20    O2      19.311637   17.601170   25.090799 O.co2      1 MOL1        -0.6695
@<TRIPOS>BOND
    1     1     2    1
    2     1     3    1
    3     1     4    2
    4     4     5    1
    5     4     6    1
    6     6     7    1
    7     6     8    1
    8     6     9    1
    9     9    10    1
   10     9    11    1
   11     9    12    1
   12    12    13    1
   13    12    14    1
   14    12    15    1
   15    15    16    1
   16    15    17    1
   17    15    18    1
   18    18    19    1
   19    18    20    2
@<TRIPOS>SUBSTRUCTURE
       1 MOL1            1 RESIDUE      1      MOL     
@<SCITEGIC>MOL_PROPERTY
VM2 Rank
SciTegic.value.IntegerValue
35

@<SCITEGIC>MOL_PROPERTY
Conf_Id
SciTegic.value.IntegerValue
1128

@<SCITEGIC>MOL_PROPERTY
Probability
SciTegic.value.DoubleValue
0.36

@<SCITEGIC>MOL_PROPERTY
Sum Probability
SciTegic.value.DoubleValue
96.89

@<SCITEGIC>MOL_PROPERTY
Delta G
SciTegic.value.DoubleValue
2.158

@<SCITEGIC>MOL_PROPERTY
G
SciTegic.value.DoubleValue
-19.732

@<SCITEGIC>MOL_PROPERTY
E
SciTegic.value.DoubleValue
-35.158

@<SCITEGIC>MOL_PROPERTY
-TS
SciTegic.value.DoubleValue
15.426

@<SCITEGIC>MOL_PROPERTY
U+W
SciTegic.value.DoubleValue
-51.254

@<SCITEGIC>MOL_PROPERTY
U
SciTegic.value.DoubleValue
10.179

@<SCITEGIC>MOL_PROPERTY
W
SciTegic.value.DoubleValue
-61.433

@<SCITEGIC>MOL_PROPERTY
W(PB)
SciTegic.value.DoubleValue
-63.628

@<SCITEGIC>MOL_PROPERTY
W(SA)
SciTegic.value.DoubleValue
2.195

@<SCITEGIC>MOL_PROPERTY
Valence
SciTegic.value.DoubleValue
9.483

@<SCITEGIC>MOL_PROPERTY
Coulomb
SciTegic.value.DoubleValue
0.361

@<SCITEGIC>MOL_PROPERTY
VdW
SciTegic.value.DoubleValue
0.335

@<SCITEGIC>MOL_PROPERTY
VdW6
SciTegic.value.DoubleValue
-7.385

@<SCITEGIC>MOL_PROPERTY
VdW12
SciTegic.value.DoubleValue
7.720

@<SCITEGIC>MOL_PROPERTY
Bond
SciTegic.value.DoubleValue
0.125

@<SCITEGIC>MOL_PROPERTY
Angle
SciTegic.value.DoubleValue
2.487

@<SCITEGIC>MOL_PROPERTY
Pdih
SciTegic.value.DoubleValue
6.870

@<SCITEGIC>MOL_PROPERTY
Idih
SciTegic.value.DoubleValue
0.001

@<SCITEGIC>MOL_PROPERTY
Tether
SciTegic.value.DoubleValue
0.000

@<TRIPOS>MOLECULE
guest-s22_vm2.mol2 : vm2 ligand conformer 36
          20          19           1
SMALL
USER_CHARGES
 
@<TRIPOS>ATOM
       1    C1      21.059217   18.243858   19.537569 C.2        1 MOL1        -0.2535
       2    H1      21.635335   19.154106   19.379676 H          1 MOL1         0.0845
       3    H2      21.532959   17.299210   19.276219 H          1 MOL1         0.0845
       4    C2      19.820510   18.280199   20.035871 C.2        1 MOL1        -0.1324
       5    H3      19.261890   17.357204   20.188938 H          1 MOL1         0.0833
       6    C3      19.097795   19.552790   20.423297 C.3        1 MOL1        -0.1813
       7    H4      18.116222   19.572011   19.931409 H          1 MOL1         0.0753
       8    H5      19.643892   20.433758   20.059591 H          1 MOL1         0.0753
       9    C4      18.891861   19.667172   21.950538 C.3        1 MOL1        -0.1855
      10    H6      18.259958   20.541100   22.159560 H          1 MOL1         0.0755
      11    H7      18.339566   18.788362   22.311093 H          1 MOL1         0.0755
      12    C5      20.224582   19.806759   22.723610 C.3        1 MOL1        -0.1855
      13    H8      20.784060   20.665069   22.327983 H          1 MOL1         0.0755
      14    H9      20.850076   18.918902   22.556810 H          1 MOL1         0.0755
      15    C6      20.012032   20.002116   24.247250 C.3        1 MOL1        -0.1958
      16    H10     20.975125   20.211453   24.727481 H          1 MOL1         0.0753
      17    H11     19.369389   20.871323   24.432233 H          1 MOL1         0.0753
      18    C7      19.405287   18.790172   24.948581 C.2        1 MOL1         0.6174
      19    O1      20.132681   17.848680   25.196748 O.co2      1 MOL1        -0.6695
      20    O2      18.227036   18.826254   25.244536 O.co2      1 MOL1        -0.6695
@<TRIPOS>BOND
    1     1     2    1
    2     1     3    1
    3     1     4    2
    4     4     5    1
    5     4     6    1
    6     6     7    1
    7     6     8    1
    8     6     9    1
    9     9    10    1
   10     9    11    1
   11     9    12    1
   12    12    13    1
   13    12    14    1
   14    12    15    1
   15    15    16    1
   16    15    17    1
   17    15    18    1
   18    18    19    1
   19    18    20    2
@<TRIPOS>SUBSTRUCTURE
       1 MOL1            1 RESIDUE      1      MOL     
@<SCITEGIC>MOL_PROPERTY
VM2 Rank
SciTegic.value.IntegerValue
36

@<SCITEGIC>MOL_PROPERTY
Conf_Id
SciTegic.value.IntegerValue
169

@<SCITEGIC>MOL_PROPERTY
Probability
SciTegic.value.DoubleValue
0.36

@<SCITEGIC>MOL_PROPERTY
Sum Probability
SciTegic.value.DoubleValue
97.25

@<SCITEGIC>MOL_PROPERTY
Delta G
SciTegic.value.DoubleValue
2.171

@<SCITEGIC>MOL_PROPERTY
G
SciTegic.value.DoubleValue
-19.719

@<SCITEGIC>MOL_PROPERTY
E
SciTegic.value.DoubleValue
-35.145

@<SCITEGIC>MOL_PROPERTY
-TS
SciTegic.value.DoubleValue
15.426

@<SCITEGIC>MOL_PROPERTY
U+W
SciTegic.value.DoubleValue
-51.241

@<SCITEGIC>MOL_PROPERTY
U
SciTegic.value.DoubleValue
10.179

@<SCITEGIC>MOL_PROPERTY
W
SciTegic.value.DoubleValue
-61.420

@<SCITEGIC>MOL_PROPERTY
W(PB)
SciTegic.value.DoubleValue
-63.642

@<SCITEGIC>MOL_PROPERTY
W(SA)
SciTegic.value.DoubleValue
2.222

@<SCITEGIC>MOL_PROPERTY
Valence
SciTegic.value.DoubleValue
9.483

@<SCITEGIC>MOL_PROPERTY
Coulomb
SciTegic.value.DoubleValue
0.361

@<SCITEGIC>MOL_PROPERTY
VdW
SciTegic.value.DoubleValue
0.335

@<SCITEGIC>MOL_PROPERTY
VdW6
SciTegic.value.DoubleValue
-7.385

@<SCITEGIC>MOL_PROPERTY
VdW12
SciTegic.value.DoubleValue
7.720

@<SCITEGIC>MOL_PROPERTY
Bond
SciTegic.value.DoubleValue
0.125

@<SCITEGIC>MOL_PROPERTY
Angle
SciTegic.value.DoubleValue
2.487

@<SCITEGIC>MOL_PROPERTY
Pdih
SciTegic.value.DoubleValue
6.870

@<SCITEGIC>MOL_PROPERTY
Idih
SciTegic.value.DoubleValue
0.001

@<SCITEGIC>MOL_PROPERTY
Tether
SciTegic.value.DoubleValue
0.000

@<TRIPOS>MOLECULE
guest-s22_vm2.mol2 : vm2 ligand conformer 37
          20          19           1
SMALL
USER_CHARGES
 
@<TRIPOS>ATOM
       1    C1      20.498990   17.663048   19.677204 C.2        1 MOL1        -0.2535
       2    H1      21.361597   18.200274   19.286418 H          1 MOL1         0.0845
       3    H2      20.496494   16.578780   19.580376 H          1 MOL1         0.0845
       4    C2      19.482428   18.307506   20.255984 C.2        1 MOL1        -0.1324
       5    H3      18.623767   17.753032   20.632876 H          1 MOL1         0.0833
       6    C3      19.413905   19.811619   20.412677 C.3        1 MOL1        -0.1813
       7    H4      18.376907   20.129326   20.584811 H          1 MOL1         0.0753
       8    H5      19.713233   20.274244   19.462525 H          1 MOL1         0.0753
       9    C4      20.329640   20.359872   21.535181 C.3        1 MOL1        -0.1855
      10    H6      21.322542   19.894065   21.471145 H          1 MOL1         0.0755
      11    H7      20.487063   21.430924   21.348637 H          1 MOL1         0.0755
      12    C5      19.763564   20.211217   22.969950 C.3        1 MOL1        -0.1855
      13    H8      18.764877   20.665606   23.026468 H          1 MOL1         0.0755
      14    H9      20.402384   20.787438   23.653593 H          1 MOL1         0.0755
      15    C6      19.697523   18.748915   23.480415 C.3        1 MOL1        -0.1958
      16    H10     18.955126   18.177012   22.914861 H          1 MOL1         0.0753
      17    H11     20.666447   18.254452   23.342518 H          1 MOL1         0.0753
      18    C7      19.322644   18.655242   24.954971 C.2        1 MOL1         0.6174
      19    O1      20.218504   18.658462   25.776133 O.co2      1 MOL1        -0.6695
      20    O2      18.143802   18.602119   25.245487 O.co2      1 MOL1        -0.6695
@<TRIPOS>BOND
    1     1     2    1
    2     1     3    1
    3     1     4    2
    4     4     5    1
    5     4     6    1
    6     6     7    1
    7     6     8    1
    8     6     9    1
    9     9    10    1
   10     9    11    1
   11     9    12    1
   12    12    13    1
   13    12    14    1
   14    12    15    1
   15    15    16    1
   16    15    17    1
   17    15    18    1
   18    18    19    1
   19    18    20    2
@<TRIPOS>SUBSTRUCTURE
       1 MOL1            1 RESIDUE      1      MOL     
@<SCITEGIC>MOL_PROPERTY
VM2 Rank
SciTegic.value.IntegerValue
37

@<SCITEGIC>MOL_PROPERTY
Conf_Id
SciTegic.value.IntegerValue
662

@<SCITEGIC>MOL_PROPERTY
Probability
SciTegic.value.DoubleValue
0.22

@<SCITEGIC>MOL_PROPERTY
Sum Probability
SciTegic.value.DoubleValue
97.47

@<SCITEGIC>MOL_PROPERTY
Delta G
SciTegic.value.DoubleValue
2.447

@<SCITEGIC>MOL_PROPERTY
G
SciTegic.value.DoubleValue
-19.442

@<SCITEGIC>MOL_PROPERTY
E
SciTegic.value.DoubleValue
-34.104

@<SCITEGIC>MOL_PROPERTY
-TS
SciTegic.value.DoubleValue
14.662

@<SCITEGIC>MOL_PROPERTY
U+W
SciTegic.value.DoubleValue
-50.200

@<SCITEGIC>MOL_PROPERTY
U
SciTegic.value.DoubleValue
10.643

@<SCITEGIC>MOL_PROPERTY
W
SciTegic.value.DoubleValue
-60.843

@<SCITEGIC>MOL_PROPERTY
W(PB)
SciTegic.value.DoubleValue
-63.001

@<SCITEGIC>MOL_PROPERTY
W(SA)
SciTegic.value.DoubleValue
2.157

@<SCITEGIC>MOL_PROPERTY
Valence
SciTegic.value.DoubleValue
11.231

@<SCITEGIC>MOL_PROPERTY
Coulomb
SciTegic.value.DoubleValue
-1.077

@<SCITEGIC>MOL_PROPERTY
VdW
SciTegic.value.DoubleValue
0.490

@<SCITEGIC>MOL_PROPERTY
VdW6
SciTegic.value.DoubleValue
-7.545

@<SCITEGIC>MOL_PROPERTY
VdW12
SciTegic.value.DoubleValue
8.035

@<SCITEGIC>MOL_PROPERTY
Bond
SciTegic.value.DoubleValue
0.159

@<SCITEGIC>MOL_PROPERTY
Angle
SciTegic.value.DoubleValue
3.005

@<SCITEGIC>MOL_PROPERTY
Pdih
SciTegic.value.DoubleValue
8.064

@<SCITEGIC>MOL_PROPERTY
Idih
SciTegic.value.DoubleValue
0.002

@<SCITEGIC>MOL_PROPERTY
Tether
SciTegic.value.DoubleValue
0.000

@<TRIPOS>MOLECULE
guest-s22_vm2.mol2 : vm2 ligand conformer 38
          20          19           1
SMALL
USER_CHARGES
 
@<TRIPOS>ATOM
       1    C1      19.445093   19.923546   19.281999 C.2        1 MOL1        -0.2535
       2    H1      19.512506   20.465658   18.340346 H          1 MOL1         0.0845
       3    H2      18.447710   19.762610   19.685513 H          1 MOL1         0.0845
       4    C2      20.548747   19.487775   19.900081 C.2        1 MOL1        -0.1324
       5    H3      21.520918   19.681765   19.447540 H          1 MOL1         0.0833
       6    C3      20.614145   18.720629   21.210297 C.3        1 MOL1        -0.1813
       7    H4      21.175848   19.322531   21.936149 H          1 MOL1         0.0753
       8    H5      21.206614   17.809356   21.054362 H          1 MOL1         0.0753
       9    C4      19.239713   18.331359   21.808636 C.3        1 MOL1        -0.1855
      10    H6      18.672212   19.240219   22.051719 H          1 MOL1         0.0755
      11    H7      18.658660   17.791515   21.048610 H          1 MOL1         0.0755
      12    C5      19.345632   17.432272   23.065411 C.3        1 MOL1        -0.1855
      13    H8      19.870101   16.503622   22.802864 H          1 MOL1         0.0755
      14    H9      18.333375   17.136424   23.373986 H          1 MOL1         0.0755
      15    C6      20.059987   18.096027   24.274450 C.3        1 MOL1        -0.1958
      16    H10     20.097281   17.385234   25.108141 H          1 MOL1         0.0753
      17    H11     21.099881   18.336411   24.025981 H          1 MOL1         0.0753
      18    C7      19.374831   19.359581   24.787186 C.2        1 MOL1         0.6174
      19    O1      19.931102   20.426337   24.615585 O.co2      1 MOL1        -0.6695
      20    O2      18.311749   19.240474   25.364354 O.co2      1 MOL1        -0.6695
@<TRIPOS>BOND
    1     1     2    1
    2     1     3    1
    3     1     4    2
    4     4     5    1
    5     4     6    1
    6     6     7    1
    7     6     8    1
    8     6     9    1
    9     9    10    1
   10     9    11    1
   11     9    12    1
   12    12    13    1
   13    12    14    1
   14    12    15    1
   15    15    16    1
   16    15    17    1
   17    15    18    1
   18    18    19    1
   19    18    20    2
@<TRIPOS>SUBSTRUCTURE
       1 MOL1            1 RESIDUE      1      MOL     
@<SCITEGIC>MOL_PROPERTY
VM2 Rank
SciTegic.value.IntegerValue
38

@<SCITEGIC>MOL_PROPERTY
Conf_Id
SciTegic.value.IntegerValue
847

@<SCITEGIC>MOL_PROPERTY
Probability
SciTegic.value.DoubleValue
0.22

@<SCITEGIC>MOL_PROPERTY
Sum Probability
SciTegic.value.DoubleValue
97.69

@<SCITEGIC>MOL_PROPERTY
Delta G
SciTegic.value.DoubleValue
2.468

@<SCITEGIC>MOL_PROPERTY
G
SciTegic.value.DoubleValue
-19.422

@<SCITEGIC>MOL_PROPERTY
E
SciTegic.value.DoubleValue
-35.131

@<SCITEGIC>MOL_PROPERTY
-TS
SciTegic.value.DoubleValue
15.709

@<SCITEGIC>MOL_PROPERTY
U+W
SciTegic.value.DoubleValue
-51.228

@<SCITEGIC>MOL_PROPERTY
U
SciTegic.value.DoubleValue
10.869

@<SCITEGIC>MOL_PROPERTY
W
SciTegic.value.DoubleValue
-62.097

@<SCITEGIC>MOL_PROPERTY
W(PB)
SciTegic.value.DoubleValue
-64.246

@<SCITEGIC>MOL_PROPERTY
W(SA)
SciTegic.value.DoubleValue
2.149

@<SCITEGIC>MOL_PROPERTY
Valence
SciTegic.value.DoubleValue
8.803

@<SCITEGIC>MOL_PROPERTY
Coulomb
SciTegic.value.DoubleValue
1.019

@<SCITEGIC>MOL_PROPERTY
VdW
SciTegic.value.DoubleValue
1.048

@<SCITEGIC>MOL_PROPERTY
VdW6
SciTegic.value.DoubleValue
-8.312

@<SCITEGIC>MOL_PROPERTY
VdW12
SciTegic.value.DoubleValue
9.360

@<SCITEGIC>MOL_PROPERTY
Bond
SciTegic.value.DoubleValue
0.212

@<SCITEGIC>MOL_PROPERTY
Angle
SciTegic.value.DoubleValue
3.379

@<SCITEGIC>MOL_PROPERTY
Pdih
SciTegic.value.DoubleValue
5.211

@<SCITEGIC>MOL_PROPERTY
Idih
SciTegic.value.DoubleValue
0.001

@<SCITEGIC>MOL_PROPERTY
Tether
SciTegic.value.DoubleValue
0.000

@<TRIPOS>MOLECULE
guest-s22_vm2.mol2 : vm2 ligand conformer 39
          20          19           1
SMALL
USER_CHARGES
 
@<TRIPOS>ATOM
       1    C1      20.670488   17.868237   19.498003 C.2        1 MOL1        -0.2535
       2    H1      20.014726   17.134523   19.961828 H          1 MOL1         0.0845
       3    H2      21.262094   17.530977   18.648652 H          1 MOL1         0.0845
       4    C2      20.762980   19.128379   19.937843 C.2        1 MOL1        -0.1324
       5    H3      21.439907   19.817259   19.433111 H          1 MOL1         0.0833
       6    C3      20.004861   19.742557   21.102958 C.3        1 MOL1        -0.1813
       7    H4      19.508229   20.658044   20.755119 H          1 MOL1         0.0753
       8    H5      20.733040   20.065248   21.858128 H          1 MOL1         0.0753
       9    C4      18.950927   18.815718   21.757783 C.3        1 MOL1        -0.1855
      10    H6      18.270739   18.442138   20.980301 H          1 MOL1         0.0755
      11    H7      19.449428   17.936521   22.188690 H          1 MOL1         0.0755
      12    C5      18.102044   19.518219   22.846338 C.3        1 MOL1        -0.1855
      13    H8      17.329961   18.819544   23.197265 H          1 MOL1         0.0755
      14    H9      17.567391   20.366038   22.397189 H          1 MOL1         0.0755
      15    C6      18.913181   20.019729   24.072391 C.3        1 MOL1        -0.1958
      16    H10     19.644652   20.777441   23.769536 H          1 MOL1         0.0753
      17    H11     18.234457   20.510047   24.779907 H          1 MOL1         0.0753
      18    C7      19.639996   18.914894   24.833956 C.2        1 MOL1         0.6174
      19    O1      20.853432   18.879075   24.777860 O.co2      1 MOL1        -0.6695
      20    O2      18.973092   18.131190   25.480868 O.co2      1 MOL1        -0.6695
@<TRIPOS>BOND
    1     1     2    1
    2     1     3    1
    3     1     4    2
    4     4     5    1
    5     4     6    1
    6     6     7    1
    7     6     8    1
    8     6     9    1
    9     9    10    1
   10     9    11    1
   11     9    12    1
   12    12    13    1
   13    12    14    1
   14    12    15    1
   15    15    16    1
   16    15    17    1
   17    15    18    1
   18    18    19    1
   19    18    20    2
@<TRIPOS>SUBSTRUCTURE
       1 MOL1            1 RESIDUE      1      MOL     
@<SCITEGIC>MOL_PROPERTY
VM2 Rank
SciTegic.value.IntegerValue
39

@<SCITEGIC>MOL_PROPERTY
Conf_Id
SciTegic.value.IntegerValue
492

@<SCITEGIC>MOL_PROPERTY
Probability
SciTegic.value.DoubleValue
0.21

@<SCITEGIC>MOL_PROPERTY
Sum Probability
SciTegic.value.DoubleValue
97.90

@<SCITEGIC>MOL_PROPERTY
Delta G
SciTegic.value.DoubleValue
2.476

@<SCITEGIC>MOL_PROPERTY
G
SciTegic.value.DoubleValue
-19.413

@<SCITEGIC>MOL_PROPERTY
E
SciTegic.value.DoubleValue
-35.124

@<SCITEGIC>MOL_PROPERTY
-TS
SciTegic.value.DoubleValue
15.710

@<SCITEGIC>MOL_PROPERTY
U+W
SciTegic.value.DoubleValue
-51.220

@<SCITEGIC>MOL_PROPERTY
U
SciTegic.value.DoubleValue
10.870

@<SCITEGIC>MOL_PROPERTY
W
SciTegic.value.DoubleValue
-62.090

@<SCITEGIC>MOL_PROPERTY
W(PB)
SciTegic.value.DoubleValue
-64.273

@<SCITEGIC>MOL_PROPERTY
W(SA)
SciTegic.value.DoubleValue
2.182

@<SCITEGIC>MOL_PROPERTY
Valence
SciTegic.value.DoubleValue
8.803

@<SCITEGIC>MOL_PROPERTY
Coulomb
SciTegic.value.DoubleValue
1.020

@<SCITEGIC>MOL_PROPERTY
VdW
SciTegic.value.DoubleValue
1.048

@<SCITEGIC>MOL_PROPERTY
VdW6
SciTegic.value.DoubleValue
-8.312

@<SCITEGIC>MOL_PROPERTY
VdW12
SciTegic.value.DoubleValue
9.360

@<SCITEGIC>MOL_PROPERTY
Bond
SciTegic.value.DoubleValue
0.212

@<SCITEGIC>MOL_PROPERTY
Angle
SciTegic.value.DoubleValue
3.379

@<SCITEGIC>MOL_PROPERTY
Pdih
SciTegic.value.DoubleValue
5.211

@<SCITEGIC>MOL_PROPERTY
Idih
SciTegic.value.DoubleValue
0.001

@<SCITEGIC>MOL_PROPERTY
Tether
SciTegic.value.DoubleValue
0.000

@<TRIPOS>MOLECULE
guest-s22_vm2.mol2 : vm2 ligand conformer 40
          20          19           1
SMALL
USER_CHARGES
 
@<TRIPOS>ATOM
       1    C1      20.403055   17.634148   19.664952 C.2        1 MOL1        -0.2535
       2    H1      21.017804   16.735925   19.647625 H          1 MOL1         0.0845
       3    H2      19.506364   17.641131   19.047447 H          1 MOL1         0.0845
       4    C2      20.736851   18.685585   20.417797 C.2        1 MOL1        -0.1324
       5    H3      21.643034   18.663045   21.022044 H          1 MOL1         0.0833
       6    C3      19.936941   19.969275   20.480201 C.3        1 MOL1        -0.1813
       7    H4      19.665327   20.259896   19.456399 H          1 MOL1         0.0753
       8    H5      20.559645   20.787149   20.866539 H          1 MOL1         0.0753
       9    C4      18.638990   19.850325   21.317069 C.3        1 MOL1        -0.1855
      10    H6      17.972636   20.673106   21.024258 H          1 MOL1         0.0755
      11    H7      18.107268   18.925014   21.056293 H          1 MOL1         0.0755
      12    C5      18.841773   19.933366   22.851045 C.3        1 MOL1        -0.1855
      13    H8      17.854023   20.019213   23.324828 H          1 MOL1         0.0755
      14    H9      19.386014   20.852869   23.106691 H          1 MOL1         0.0755
      15    C6      19.572116   18.711113   23.464196 C.3        1 MOL1        -0.1958
      16    H10     19.092608   17.780029   23.139422 H          1 MOL1         0.0753
      17    H11     20.613452   18.676933   23.128741 H          1 MOL1         0.0753
      18    C7      19.581691   18.733299   24.988348 C.2        1 MOL1         0.6174
      19    O1      20.492747   19.310454   25.548487 O.co2      1 MOL1        -0.6695
      20    O2      18.666837   18.190434   25.575904 O.co2      1 MOL1        -0.6695
@<TRIPOS>BOND
    1     1     2    1
    2     1     3    1
    3     1     4    2
    4     4     5    1
    5     4     6    1
    6     6     7    1
    7     6     8    1
    8     6     9    1
    9     9    10    1
   10     9    11    1
   11     9    12    1
   12    12    13    1
   13    12    14    1
   14    12    15    1
   15    15    16    1
   16    15    17    1
   17    15    18    1
   18    18    19    1
   19    18    20    2
@<TRIPOS>SUBSTRUCTURE
       1 MOL1            1 RESIDUE      1      MOL     
@<SCITEGIC>MOL_PROPERTY
VM2 Rank
SciTegic.value.IntegerValue
40

@<SCITEGIC>MOL_PROPERTY
Conf_Id
SciTegic.value.IntegerValue
850

@<SCITEGIC>MOL_PROPERTY
Probability
SciTegic.value.DoubleValue
0.20

@<SCITEGIC>MOL_PROPERTY
Sum Probability
SciTegic.value.DoubleValue
98.10

@<SCITEGIC>MOL_PROPERTY
Delta G
SciTegic.value.DoubleValue
2.505

@<SCITEGIC>MOL_PROPERTY
G
SciTegic.value.DoubleValue
-19.385

@<SCITEGIC>MOL_PROPERTY
E
SciTegic.value.DoubleValue
-34.047

@<SCITEGIC>MOL_PROPERTY
-TS
SciTegic.value.DoubleValue
14.661

@<SCITEGIC>MOL_PROPERTY
U+W
SciTegic.value.DoubleValue
-50.143

@<SCITEGIC>MOL_PROPERTY
U
SciTegic.value.DoubleValue
10.643

@<SCITEGIC>MOL_PROPERTY
W
SciTegic.value.DoubleValue
-60.786

@<SCITEGIC>MOL_PROPERTY
W(PB)
SciTegic.value.DoubleValue
-62.965

@<SCITEGIC>MOL_PROPERTY
W(SA)
SciTegic.value.DoubleValue
2.179

@<SCITEGIC>MOL_PROPERTY
Valence
SciTegic.value.DoubleValue
11.231

@<SCITEGIC>MOL_PROPERTY
Coulomb
SciTegic.value.DoubleValue
-1.077

@<SCITEGIC>MOL_PROPERTY
VdW
SciTegic.value.DoubleValue
0.489

@<SCITEGIC>MOL_PROPERTY
VdW6
SciTegic.value.DoubleValue
-7.546

@<SCITEGIC>MOL_PROPERTY
VdW12
SciTegic.value.DoubleValue
8.035

@<SCITEGIC>MOL_PROPERTY
Bond
SciTegic.value.DoubleValue
0.159

@<SCITEGIC>MOL_PROPERTY
Angle
SciTegic.value.DoubleValue
3.005

@<SCITEGIC>MOL_PROPERTY
Pdih
SciTegic.value.DoubleValue
8.065

@<SCITEGIC>MOL_PROPERTY
Idih
SciTegic.value.DoubleValue
0.002

@<SCITEGIC>MOL_PROPERTY
Tether
SciTegic.value.DoubleValue
0.000

@<TRIPOS>MOLECULE
guest-s22_vm2.mol2 : vm2 ligand conformer 41
          20          19           1
SMALL
USER_CHARGES
 
@<TRIPOS>ATOM
       1    C1      19.921827   18.495795   18.706970 C.2        1 MOL1        -0.2535
       2    H1      19.991254   17.723066   17.943223 H          1 MOL1         0.0845
       3    H2      20.157670   19.516450   18.409993 H          1 MOL1         0.0845
       4    C2      19.563405   18.198658   19.958752 C.2        1 MOL1        -0.1324
       5    H3      19.332162   17.170427   20.236118 H          1 MOL1         0.0833
       6    C3      19.444547   19.216457   21.071210 C.3        1 MOL1        -0.1813
       7    H4      18.485121   19.076139   21.585768 H          1 MOL1         0.0753
       8    H5      19.439226   20.233694   20.656993 H          1 MOL1         0.0753
       9    C4      20.607383   19.075404   22.078728 C.3        1 MOL1        -0.1855
      10    H6      20.567416   18.083278   22.549204 H          1 MOL1         0.0755
      11    H7      21.558600   19.118526   21.530561 H          1 MOL1         0.0755
      12    C5      20.617278   20.174096   23.170043 C.3        1 MOL1        -0.1855
      13    H8      20.713513   21.158151   22.691731 H          1 MOL1         0.0755
      14    H9      21.513512   20.045882   23.792709 H          1 MOL1         0.0755
      15    C6      19.366639   20.175819   24.091085 C.3        1 MOL1        -0.1958
      16    H10     19.454433   20.989429   24.820493 H          1 MOL1         0.0753
      17    H11     18.458745   20.376469   23.511020 H          1 MOL1         0.0753
      18    C7      19.169185   18.882123   24.876009 C.2        1 MOL1         0.6174
      19    O1      19.930137   18.648106   25.794483 O.co2      1 MOL1        -0.6695
      20    O2      18.250600   18.151541   24.560722 O.co2      1 MOL1        -0.6695
@<TRIPOS>BOND
    1     1     2    1
    2     1     3    1
    3     1     4    2
    4     4     5    1
    5     4     6    1
    6     6     7    1
    7     6     8    1
    8     6     9    1
    9     9    10    1
   10     9    11    1
   11     9    12    1
   12    12    13    1
   13    12    14    1
   14    12    15    1
   15    15    16    1
   16    15    17    1
   17    15    18    1
   18    18    19    1
   19    18    20    2
@<TRIPOS>SUBSTRUCTURE
       1 MOL1            1 RESIDUE      1      MOL     
@<SCITEGIC>MOL_PROPERTY
VM2 Rank
SciTegic.value.IntegerValue
41

@<SCITEGIC>MOL_PROPERTY
Conf_Id
SciTegic.value.IntegerValue
246

@<SCITEGIC>MOL_PROPERTY
Probability
SciTegic.value.DoubleValue
0.20

@<SCITEGIC>MOL_PROPERTY
Sum Probability
SciTegic.value.DoubleValue
98.30

@<SCITEGIC>MOL_PROPERTY
Delta G
SciTegic.value.DoubleValue
2.520

@<SCITEGIC>MOL_PROPERTY
G
SciTegic.value.DoubleValue
-19.369

@<SCITEGIC>MOL_PROPERTY
E
SciTegic.value.DoubleValue
-34.754

@<SCITEGIC>MOL_PROPERTY
-TS
SciTegic.value.DoubleValue
15.384

@<SCITEGIC>MOL_PROPERTY
U+W
SciTegic.value.DoubleValue
-50.850

@<SCITEGIC>MOL_PROPERTY
U
SciTegic.value.DoubleValue
10.197

@<SCITEGIC>MOL_PROPERTY
W
SciTegic.value.DoubleValue
-61.047

@<SCITEGIC>MOL_PROPERTY
W(PB)
SciTegic.value.DoubleValue
-63.244

@<SCITEGIC>MOL_PROPERTY
W(SA)
SciTegic.value.DoubleValue
2.197

@<SCITEGIC>MOL_PROPERTY
Valence
SciTegic.value.DoubleValue
9.837

@<SCITEGIC>MOL_PROPERTY
Coulomb
SciTegic.value.DoubleValue
0.032

@<SCITEGIC>MOL_PROPERTY
VdW
SciTegic.value.DoubleValue
0.327

@<SCITEGIC>MOL_PROPERTY
VdW6
SciTegic.value.DoubleValue
-7.642

@<SCITEGIC>MOL_PROPERTY
VdW12
SciTegic.value.DoubleValue
7.969

@<SCITEGIC>MOL_PROPERTY
Bond
SciTegic.value.DoubleValue
0.151

@<SCITEGIC>MOL_PROPERTY
Angle
SciTegic.value.DoubleValue
2.748

@<SCITEGIC>MOL_PROPERTY
Pdih
SciTegic.value.DoubleValue
6.937

@<SCITEGIC>MOL_PROPERTY
Idih
SciTegic.value.DoubleValue
0.001

@<SCITEGIC>MOL_PROPERTY
Tether
SciTegic.value.DoubleValue
0.000

@<TRIPOS>MOLECULE
guest-s22_vm2.mol2 : vm2 ligand conformer 42
          20          19           1
SMALL
USER_CHARGES
 
@<TRIPOS>ATOM
       1    C1      19.778422   19.069707   18.668553 C.2        1 MOL1        -0.2535
       2    H1      19.501829   19.682171   17.812036 H          1 MOL1         0.0845
       3    H2      20.473670   18.249966   18.494754 H          1 MOL1         0.0845
       4    C2      19.283657   19.319007   19.883777 C.2        1 MOL1        -0.1324
       5    H3      18.589376   20.144938   20.037001 H          1 MOL1         0.0833
       6    C3      19.620243   18.512681   21.118341 C.3        1 MOL1        -0.1813
       7    H4      20.104588   17.568359   20.835426 H          1 MOL1         0.0753
       8    H5      18.691147   18.250989   21.641076 H          1 MOL1         0.0753
       9    C4      20.549691   19.306761   22.063190 C.3        1 MOL1        -0.1855
      10    H6      21.427100   19.645409   21.495183 H          1 MOL1         0.0755
      11    H7      20.035340   20.214988   22.406447 H          1 MOL1         0.0755
      12    C5      21.038501   18.487302   23.282920 C.3        1 MOL1        -0.1855
      13    H8      21.750466   19.097109   23.856180 H          1 MOL1         0.0755
      14    H9      21.599093   17.611534   22.929119 H          1 MOL1         0.0755
      15    C6      19.905957   18.015994   24.235618 C.3        1 MOL1        -0.1958
      16    H10     19.216266   17.342722   23.714049 H          1 MOL1         0.0753
      17    H11     20.341454   17.436937   25.058259 H          1 MOL1         0.0753
      18    C7      19.101438   19.153726   24.857754 C.2        1 MOL1         0.6174
      19    O1      19.634964   19.829558   25.715661 O.co2      1 MOL1        -0.6695
      20    O2      17.958127   19.323264   24.482187 O.co2      1 MOL1        -0.6695
@<TRIPOS>BOND
    1     1     2    1
    2     1     3    1
    3     1     4    2
    4     4     5    1
    5     4     6    1
    6     6     7    1
    7     6     8    1
    8     6     9    1
    9     9    10    1
   10     9    11    1
   11     9    12    1
   12    12    13    1
   13    12    14    1
   14    12    15    1
   15    15    16    1
   16    15    17    1
   17    15    18    1
   18    18    19    1
   19    18    20    2
@<TRIPOS>SUBSTRUCTURE
       1 MOL1            1 RESIDUE      1      MOL     
@<SCITEGIC>MOL_PROPERTY
VM2 Rank
SciTegic.value.IntegerValue
42

@<SCITEGIC>MOL_PROPERTY
Conf_Id
SciTegic.value.IntegerValue
97

@<SCITEGIC>MOL_PROPERTY
Probability
SciTegic.value.DoubleValue
0.18

@<SCITEGIC>MOL_PROPERTY
Sum Probability
SciTegic.value.DoubleValue
98.49

@<SCITEGIC>MOL_PROPERTY
Delta G
SciTegic.value.DoubleValue
2.567

@<SCITEGIC>MOL_PROPERTY
G
SciTegic.value.DoubleValue
-19.322

@<SCITEGIC>MOL_PROPERTY
E
SciTegic.value.DoubleValue
-34.707

@<SCITEGIC>MOL_PROPERTY
-TS
SciTegic.value.DoubleValue
15.384

@<SCITEGIC>MOL_PROPERTY
U+W
SciTegic.value.DoubleValue
-50.803

@<SCITEGIC>MOL_PROPERTY
U
SciTegic.value.DoubleValue
10.196

@<SCITEGIC>MOL_PROPERTY
W
SciTegic.value.DoubleValue
-60.999

@<SCITEGIC>MOL_PROPERTY
W(PB)
SciTegic.value.DoubleValue
-63.182

@<SCITEGIC>MOL_PROPERTY
W(SA)
SciTegic.value.DoubleValue
2.182

@<SCITEGIC>MOL_PROPERTY
Valence
SciTegic.value.DoubleValue
9.837

@<SCITEGIC>MOL_PROPERTY
Coulomb
SciTegic.value.DoubleValue
0.032

@<SCITEGIC>MOL_PROPERTY
VdW
SciTegic.value.DoubleValue
0.327

@<SCITEGIC>MOL_PROPERTY
VdW6
SciTegic.value.DoubleValue
-7.642

@<SCITEGIC>MOL_PROPERTY
VdW12
SciTegic.value.DoubleValue
7.969

@<SCITEGIC>MOL_PROPERTY
Bond
SciTegic.value.DoubleValue
0.151

@<SCITEGIC>MOL_PROPERTY
Angle
SciTegic.value.DoubleValue
2.748

@<SCITEGIC>MOL_PROPERTY
Pdih
SciTegic.value.DoubleValue
6.937

@<SCITEGIC>MOL_PROPERTY
Idih
SciTegic.value.DoubleValue
0.001

@<SCITEGIC>MOL_PROPERTY
Tether
SciTegic.value.DoubleValue
0.000

@<TRIPOS>MOLECULE
guest-s22_vm2.mol2 : vm2 ligand conformer 43
          20          19           1
SMALL
USER_CHARGES
 
@<TRIPOS>ATOM
       1    C1      20.571333   18.050164   19.487824 C.2        1 MOL1        -0.2535
       2    H1      20.630050   17.425569   18.598207 H          1 MOL1         0.0845
       3    H2      21.138785   17.723613   20.356401 H          1 MOL1         0.0845
       4    C2      19.833775   19.166175   19.492734 C.2        1 MOL1        -0.1324
       5    H3      19.288343   19.443614   18.591088 H          1 MOL1         0.0833
       6    C3      19.651555   20.132723   20.652634 C.3        1 MOL1        -0.1813
       7    H4      18.600097   20.447741   20.689590 H          1 MOL1         0.0753
       8    H5      20.218808   21.047958   20.437454 H          1 MOL1         0.0753
       9    C4      20.053760   19.603928   22.051809 C.3        1 MOL1        -0.1855
      10    H6      21.095359   19.256965   22.039880 H          1 MOL1         0.0755
      11    H7      20.022811   20.442906   22.760413 H          1 MOL1         0.0755
      12    C5      19.116163   18.483467   22.563009 C.3        1 MOL1        -0.1855
      13    H8      19.109026   17.651182   21.847507 H          1 MOL1         0.0755
      14    H9      18.084872   18.858841   22.615879 H          1 MOL1         0.0755
      15    C6      19.537698   17.942636   23.953957 C.3        1 MOL1        -0.1958
      16    H10     18.915098   17.078885   24.215146 H          1 MOL1         0.0753
      17    H11     20.575266   17.588659   23.923621 H          1 MOL1         0.0753
      18    C7      19.402944   18.960611   25.082796 C.2        1 MOL1         0.6174
      19    O1      20.413550   19.481272   25.512530 O.co2      1 MOL1        -0.6695
      20    O2      18.290222   19.197023   25.510708 O.co2      1 MOL1        -0.6695
@<TRIPOS>BOND
    1     1     2    1
    2     1     3    1
    3     1     4    2
    4     4     5    1
    5     4     6    1
    6     6     7    1
    7     6     8    1
    8     6     9    1
    9     9    10    1
   10     9    11    1
   11     9    12    1
   12    12    13    1
   13    12    14    1
   14    12    15    1
   15    15    16    1
   16    15    17    1
   17    15    18    1
   18    18    19    1
   19    18    20    2
@<TRIPOS>SUBSTRUCTURE
       1 MOL1            1 RESIDUE      1      MOL     
@<SCITEGIC>MOL_PROPERTY
VM2 Rank
SciTegic.value.IntegerValue
43

@<SCITEGIC>MOL_PROPERTY
Conf_Id
SciTegic.value.IntegerValue
484

@<SCITEGIC>MOL_PROPERTY
Probability
SciTegic.value.DoubleValue
0.17

@<SCITEGIC>MOL_PROPERTY
Sum Probability
SciTegic.value.DoubleValue
98.66

@<SCITEGIC>MOL_PROPERTY
Delta G
SciTegic.value.DoubleValue
2.595

@<SCITEGIC>MOL_PROPERTY
G
SciTegic.value.DoubleValue
-19.294

@<SCITEGIC>MOL_PROPERTY
E
SciTegic.value.DoubleValue
-35.038

@<SCITEGIC>MOL_PROPERTY
-TS
SciTegic.value.DoubleValue
15.744

@<SCITEGIC>MOL_PROPERTY
U+W
SciTegic.value.DoubleValue
-51.135

@<SCITEGIC>MOL_PROPERTY
U
SciTegic.value.DoubleValue
9.738

@<SCITEGIC>MOL_PROPERTY
W
SciTegic.value.DoubleValue
-60.873

@<SCITEGIC>MOL_PROPERTY
W(PB)
SciTegic.value.DoubleValue
-63.018

@<SCITEGIC>MOL_PROPERTY
W(SA)
SciTegic.value.DoubleValue
2.145

@<SCITEGIC>MOL_PROPERTY
Valence
SciTegic.value.DoubleValue
9.030

@<SCITEGIC>MOL_PROPERTY
Coulomb
SciTegic.value.DoubleValue
-0.282

@<SCITEGIC>MOL_PROPERTY
VdW
SciTegic.value.DoubleValue
0.990

@<SCITEGIC>MOL_PROPERTY
VdW6
SciTegic.value.DoubleValue
-8.096

@<SCITEGIC>MOL_PROPERTY
VdW12
SciTegic.value.DoubleValue
9.086

@<SCITEGIC>MOL_PROPERTY
Bond
SciTegic.value.DoubleValue
0.190

@<SCITEGIC>MOL_PROPERTY
Angle
SciTegic.value.DoubleValue
3.359

@<SCITEGIC>MOL_PROPERTY
Pdih
SciTegic.value.DoubleValue
5.480

@<SCITEGIC>MOL_PROPERTY
Idih
SciTegic.value.DoubleValue
0.000

@<SCITEGIC>MOL_PROPERTY
Tether
SciTegic.value.DoubleValue
0.000

@<TRIPOS>MOLECULE
guest-s22_vm2.mol2 : vm2 ligand conformer 44
          20          19           1
SMALL
USER_CHARGES
 
@<TRIPOS>ATOM
       1    C1      20.178591   17.931818   19.437069 C.2        1 MOL1        -0.2535
       2    H1      19.696815   17.288840   20.170236 H          1 MOL1         0.0845
       3    H2      20.678603   17.440349   18.604344 H          1 MOL1         0.0845
       4    C2      20.164115   19.265842   19.535380 C.2        1 MOL1        -0.1324
       5    H3      20.662516   19.858116   18.768410 H          1 MOL1         0.0833
       6    C3      19.514367   20.091352   20.634992 C.3        1 MOL1        -0.1813
       7    H4      18.609072   20.562541   20.229829 H          1 MOL1         0.0753
       8    H5      20.181402   20.924590   20.893725 H          1 MOL1         0.0753
       9    C4      19.152255   19.332004   21.935510 C.3        1 MOL1        -0.1855
      10    H6      18.555301   20.000274   22.571136 H          1 MOL1         0.0755
      11    H7      18.504665   18.475720   21.705597 H          1 MOL1         0.0755
      12    C5      20.398728   18.870033   22.728441 C.3        1 MOL1        -0.1855
      13    H8      21.013096   19.741547   22.993536 H          1 MOL1         0.0755
      14    H9      21.024245   18.228450   22.094572 H          1 MOL1         0.0755
      15    C6      20.029495   18.090868   24.017430 C.3        1 MOL1        -0.1958
      16    H10     19.393129   17.232267   23.771240 H          1 MOL1         0.0753
      17    H11     20.940601   17.689477   24.476438 H          1 MOL1         0.0753
      18    C7      19.321014   18.935941   25.072235 C.2        1 MOL1         0.6174
      19    O1      19.989363   19.709246   25.729850 O.co2      1 MOL1        -0.6695
      20    O2      18.123072   18.790897   25.217094 O.co2      1 MOL1        -0.6695
@<TRIPOS>BOND
    1     1     2    1
    2     1     3    1
    3     1     4    2
    4     4     5    1
    5     4     6    1
    6     6     7    1
    7     6     8    1
    8     6     9    1
    9     9    10    1
   10     9    11    1
   11     9    12    1
   12    12    13    1
   13    12    14    1
   14    12    15    1
   15    15    16    1
   16    15    17    1
   17    15    18    1
   18    18    19    1
   19    18    20    2
@<TRIPOS>SUBSTRUCTURE
       1 MOL1            1 RESIDUE      1      MOL     
@<SCITEGIC>MOL_PROPERTY
VM2 Rank
SciTegic.value.IntegerValue
44

@<SCITEGIC>MOL_PROPERTY
Conf_Id
SciTegic.value.IntegerValue
73

@<SCITEGIC>MOL_PROPERTY
Probability
SciTegic.value.DoubleValue
0.17

@<SCITEGIC>MOL_PROPERTY
Sum Probability
SciTegic.value.DoubleValue
98.83

@<SCITEGIC>MOL_PROPERTY
Delta G
SciTegic.value.DoubleValue
2.627

@<SCITEGIC>MOL_PROPERTY
G
SciTegic.value.DoubleValue
-19.262

@<SCITEGIC>MOL_PROPERTY
E
SciTegic.value.DoubleValue
-35.007

@<SCITEGIC>MOL_PROPERTY
-TS
SciTegic.value.DoubleValue
15.745

@<SCITEGIC>MOL_PROPERTY
U+W
SciTegic.value.DoubleValue
-51.104

@<SCITEGIC>MOL_PROPERTY
U
SciTegic.value.DoubleValue
9.738

@<SCITEGIC>MOL_PROPERTY
W
SciTegic.value.DoubleValue
-60.842

@<SCITEGIC>MOL_PROPERTY
W(PB)
SciTegic.value.DoubleValue
-63.014

@<SCITEGIC>MOL_PROPERTY
W(SA)
SciTegic.value.DoubleValue
2.172

@<SCITEGIC>MOL_PROPERTY
Valence
SciTegic.value.DoubleValue
9.029

@<SCITEGIC>MOL_PROPERTY
Coulomb
SciTegic.value.DoubleValue
-0.281

@<SCITEGIC>MOL_PROPERTY
VdW
SciTegic.value.DoubleValue
0.990

@<SCITEGIC>MOL_PROPERTY
VdW6
SciTegic.value.DoubleValue
-8.096

@<SCITEGIC>MOL_PROPERTY
VdW12
SciTegic.value.DoubleValue
9.086

@<SCITEGIC>MOL_PROPERTY
Bond
SciTegic.value.DoubleValue
0.190

@<SCITEGIC>MOL_PROPERTY
Angle
SciTegic.value.DoubleValue
3.359

@<SCITEGIC>MOL_PROPERTY
Pdih
SciTegic.value.DoubleValue
5.480

@<SCITEGIC>MOL_PROPERTY
Idih
SciTegic.value.DoubleValue
0.000

@<SCITEGIC>MOL_PROPERTY
Tether
SciTegic.value.DoubleValue
0.000

@<TRIPOS>MOLECULE
guest-s22_vm2.mol2 : vm2 ligand conformer 45
          20          19           1
SMALL
USER_CHARGES
 
@<TRIPOS>ATOM
       1    C1      19.818655   17.413270   19.552860 C.2        1 MOL1        -0.2535
       2    H1      20.256139   16.935043   18.678162 H          1 MOL1         0.0845
       3    H2      19.234878   16.788113   20.226825 H          1 MOL1         0.0845
       4    C2      19.996140   18.715724   19.788995 C.2        1 MOL1        -0.1324
       5    H3      20.584816   19.324409   19.103044 H          1 MOL1         0.0833
       6    C3      19.418315   19.447251   20.980198 C.3        1 MOL1        -0.1813
       7    H4      18.628037   18.840873   21.442124 H          1 MOL1         0.0753
       8    H5      18.948680   20.381458   20.644888 H          1 MOL1         0.0753
       9    C4      20.513202   19.760548   22.024380 C.3        1 MOL1        -0.1855
      10    H6      20.928540   18.819765   22.411532 H          1 MOL1         0.0755
      11    H7      21.342415   20.281466   21.526423 H          1 MOL1         0.0755
      12    C5      20.015474   20.638401   23.199090 C.3        1 MOL1        -0.1855
      13    H8      19.654485   21.598257   22.805703 H          1 MOL1         0.0755
      14    H9      20.868633   20.874314   23.850137 H          1 MOL1         0.0755
      15    C6      18.897363   19.988103   24.059069 C.3        1 MOL1        -0.1958
      16    H10     18.602302   20.681812   24.854903 H          1 MOL1         0.0753
      17    H11     18.000040   19.808865   23.455982 H          1 MOL1         0.0753
      18    C7      19.306433   18.678834   24.728015 C.2        1 MOL1         0.6174
      19    O1      20.107059   18.728336   25.641281 O.co2      1 MOL1        -0.6695
      20    O2      18.798358   17.647534   24.334113 O.co2      1 MOL1        -0.6695
@<TRIPOS>BOND
    1     1     2    1
    2     1     3    1
    3     1     4    2
    4     4     5    1
    5     4     6    1
    6     6     7    1
    7     6     8    1
    8     6     9    1
    9     9    10    1
   10     9    11    1
   11     9    12    1
   12    12    13    1
   13    12    14    1
   14    12    15    1
   15    15    16    1
   16    15    17    1
   17    15    18    1
   18    18    19    1
   19    18    20    2
@<TRIPOS>SUBSTRUCTURE
       1 MOL1            1 RESIDUE      1      MOL     
@<SCITEGIC>MOL_PROPERTY
VM2 Rank
SciTegic.value.IntegerValue
45

@<SCITEGIC>MOL_PROPERTY
Conf_Id
SciTegic.value.IntegerValue
99

@<SCITEGIC>MOL_PROPERTY
Probability
SciTegic.value.DoubleValue
0.14

@<SCITEGIC>MOL_PROPERTY
Sum Probability
SciTegic.value.DoubleValue
98.97

@<SCITEGIC>MOL_PROPERTY
Delta G
SciTegic.value.DoubleValue
2.727

@<SCITEGIC>MOL_PROPERTY
G
SciTegic.value.DoubleValue
-19.163

@<SCITEGIC>MOL_PROPERTY
E
SciTegic.value.DoubleValue
-34.521

@<SCITEGIC>MOL_PROPERTY
-TS
SciTegic.value.DoubleValue
15.358

@<SCITEGIC>MOL_PROPERTY
U+W
SciTegic.value.DoubleValue
-50.617

@<SCITEGIC>MOL_PROPERTY
U
SciTegic.value.DoubleValue
11.126

@<SCITEGIC>MOL_PROPERTY
W
SciTegic.value.DoubleValue
-61.743

@<SCITEGIC>MOL_PROPERTY
W(PB)
SciTegic.value.DoubleValue
-63.912

@<SCITEGIC>MOL_PROPERTY
W(SA)
SciTegic.value.DoubleValue
2.169

@<SCITEGIC>MOL_PROPERTY
Valence
SciTegic.value.DoubleValue
9.852

@<SCITEGIC>MOL_PROPERTY
Coulomb
SciTegic.value.DoubleValue
0.993

@<SCITEGIC>MOL_PROPERTY
VdW
SciTegic.value.DoubleValue
0.281

@<SCITEGIC>MOL_PROPERTY
VdW6
SciTegic.value.DoubleValue
-7.706

@<SCITEGIC>MOL_PROPERTY
VdW12
SciTegic.value.DoubleValue
7.986

@<SCITEGIC>MOL_PROPERTY
Bond
SciTegic.value.DoubleValue
0.153

@<SCITEGIC>MOL_PROPERTY
Angle
SciTegic.value.DoubleValue
2.748

@<SCITEGIC>MOL_PROPERTY
Pdih
SciTegic.value.DoubleValue
6.950

@<SCITEGIC>MOL_PROPERTY
Idih
SciTegic.value.DoubleValue
0.001

@<SCITEGIC>MOL_PROPERTY
Tether
SciTegic.value.DoubleValue
0.000

@<TRIPOS>MOLECULE
guest-s22_vm2.mol2 : vm2 ligand conformer 46
          20          19           1
SMALL
USER_CHARGES
 
@<TRIPOS>ATOM
       1    C1      21.116401   17.804359   19.720587 C.2        1 MOL1        -0.2535
       2    H1      21.227896   17.227690   18.803957 H          1 MOL1         0.0845
       3    H2      21.769934   17.552166   20.554340 H          1 MOL1         0.0845
       4    C2      20.209500   18.780043   19.816599 C.2        1 MOL1        -0.1324
       5    H3      19.563629   19.016505   18.971317 H          1 MOL1         0.0833
       6    C3      19.999339   19.622508   21.055168 C.3        1 MOL1        -0.1813
       7    H4      19.947325   20.682597   20.773671 H          1 MOL1         0.0753
       8    H5      20.858653   19.513475   21.729929 H          1 MOL1         0.0753
       9    C4      18.703221   19.215026   21.790886 C.3        1 MOL1        -0.1855
      10    H6      17.867436   19.234049   21.078136 H          1 MOL1         0.0755
      11    H7      18.790466   18.175330   22.135685 H          1 MOL1         0.0755
      12    C5      18.352784   20.137240   22.984626 C.3        1 MOL1        -0.1855
      13    H8      17.385189   19.824260   23.400800 H          1 MOL1         0.0755
      14    H9      18.212791   21.163731   22.619786 H          1 MOL1         0.0755
      15    C6      19.407503   20.141905   24.124876 C.3        1 MOL1        -0.1958
      16    H10     20.368647   20.522967   23.761529 H          1 MOL1         0.0753
      17    H11     19.082249   20.826452   24.916866 H          1 MOL1         0.0753
      18    C7      19.634826   18.777793   24.770272 C.2        1 MOL1         0.6174
      19    O1      20.697491   18.220086   24.578998 O.co2      1 MOL1        -0.6695
      20    O2      18.749936   18.319039   25.465988 O.co2      1 MOL1        -0.6695
@<TRIPOS>BOND
    1     1     2    1
    2     1     3    1
    3     1     4    2
    4     4     5    1
    5     4     6    1
    6     6     7    1
    7     6     8    1
    8     6     9    1
    9     9    10    1
   10     9    11    1
   11     9    12    1
   12    12    13    1
   13    12    14    1
   14    12    15    1
   15    15    16    1
   16    15    17    1
   17    15    18    1
   18    18    19    1
   19    18    20    2
@<TRIPOS>SUBSTRUCTURE
       1 MOL1            1 RESIDUE      1      MOL     
@<SCITEGIC>MOL_PROPERTY
VM2 Rank
SciTegic.value.IntegerValue
46

@<SCITEGIC>MOL_PROPERTY
Conf_Id
SciTegic.value.IntegerValue
161

@<SCITEGIC>MOL_PROPERTY
Probability
SciTegic.value.DoubleValue
0.14

@<SCITEGIC>MOL_PROPERTY
Sum Probability
SciTegic.value.DoubleValue
99.10

@<SCITEGIC>MOL_PROPERTY
Delta G
SciTegic.value.DoubleValue
2.743

@<SCITEGIC>MOL_PROPERTY
G
SciTegic.value.DoubleValue
-19.147

@<SCITEGIC>MOL_PROPERTY
E
SciTegic.value.DoubleValue
-34.505

@<SCITEGIC>MOL_PROPERTY
-TS
SciTegic.value.DoubleValue
15.358

@<SCITEGIC>MOL_PROPERTY
U+W
SciTegic.value.DoubleValue
-50.601

@<SCITEGIC>MOL_PROPERTY
U
SciTegic.value.DoubleValue
11.126

@<SCITEGIC>MOL_PROPERTY
W
SciTegic.value.DoubleValue
-61.727

@<SCITEGIC>MOL_PROPERTY
W(PB)
SciTegic.value.DoubleValue
-63.877

@<SCITEGIC>MOL_PROPERTY
W(SA)
SciTegic.value.DoubleValue
2.149

@<SCITEGIC>MOL_PROPERTY
Valence
SciTegic.value.DoubleValue
9.852

@<SCITEGIC>MOL_PROPERTY
Coulomb
SciTegic.value.DoubleValue
0.993

@<SCITEGIC>MOL_PROPERTY
VdW
SciTegic.value.DoubleValue
0.281

@<SCITEGIC>MOL_PROPERTY
VdW6
SciTegic.value.DoubleValue
-7.706

@<SCITEGIC>MOL_PROPERTY
VdW12
SciTegic.value.DoubleValue
7.987

@<SCITEGIC>MOL_PROPERTY
Bond
SciTegic.value.DoubleValue
0.153

@<SCITEGIC>MOL_PROPERTY
Angle
SciTegic.value.DoubleValue
2.748

@<SCITEGIC>MOL_PROPERTY
Pdih
SciTegic.value.DoubleValue
6.950

@<SCITEGIC>MOL_PROPERTY
Idih
SciTegic.value.DoubleValue
0.001

@<SCITEGIC>MOL_PROPERTY
Tether
SciTegic.value.DoubleValue
0.000

@<TRIPOS>MOLECULE
guest-s22_vm2.mol2 : vm2 ligand conformer 47
          20          19           1
SMALL
USER_CHARGES
 
@<TRIPOS>ATOM
       1    C1      20.773336   17.720101   20.491314 C.2        1 MOL1        -0.2535
       2    H1      20.434252   17.418170   21.480142 H          1 MOL1         0.0845
       3    H2      21.571733   17.130690   20.044026 H          1 MOL1         0.0845
       4    C2      20.244714   18.762016   19.839590 C.2        1 MOL1        -0.1324
       5    H3      20.625524   19.015128   18.850487 H          1 MOL1         0.0833
       6    C3      19.133823   19.677128   20.331162 C.3        1 MOL1        -0.1813
       7    H4      18.224002   19.461252   19.755527 H          1 MOL1         0.0753
       8    H5      19.392453   20.715051   20.082328 H          1 MOL1         0.0753
       9    C4      18.805441   19.600084   21.842791 C.3        1 MOL1        -0.1855
      10    H6      17.891146   20.178994   22.031372 H          1 MOL1         0.0755
      11    H7      18.570461   18.564504   22.122629 H          1 MOL1         0.0755
      12    C5      19.939332   20.162743   22.733626 C.3        1 MOL1        -0.1855
      13    H8      20.134154   21.206442   22.452805 H          1 MOL1         0.0755
      14    H9      20.872594   19.612114   22.555712 H          1 MOL1         0.0755
      15    C6      19.593715   20.102798   24.244008 C.3        1 MOL1        -0.1958
      16    H10     20.370187   20.621448   24.818484 H          1 MOL1         0.0753
      17    H11     18.650406   20.627224   24.438636 H          1 MOL1         0.0753
      18    C7      19.486451   18.684623   24.797598 C.2        1 MOL1         0.6174
      19    O1      20.515348   18.074974   25.013796 O.co2      1 MOL1        -0.6695
      20    O2      18.378840   18.233533   25.014116 O.co2      1 MOL1        -0.6695
@<TRIPOS>BOND
    1     1     2    1
    2     1     3    1
    3     1     4    2
    4     4     5    1
    5     4     6    1
    6     6     7    1
    7     6     8    1
    8     6     9    1
    9     9    10    1
   10     9    11    1
   11     9    12    1
   12    12    13    1
   13    12    14    1
   14    12    15    1
   15    15    16    1
   16    15    17    1
   17    15    18    1
   18    18    19    1
   19    18    20    2
@<TRIPOS>SUBSTRUCTURE
       1 MOL1            1 RESIDUE      1      MOL     
@<SCITEGIC>MOL_PROPERTY
VM2 Rank
SciTegic.value.IntegerValue
47

@<SCITEGIC>MOL_PROPERTY
Conf_Id
SciTegic.value.IntegerValue
896

@<SCITEGIC>MOL_PROPERTY
Probability
SciTegic.value.DoubleValue
0.12

@<SCITEGIC>MOL_PROPERTY
Sum Probability
SciTegic.value.DoubleValue
99.22

@<SCITEGIC>MOL_PROPERTY
Delta G
SciTegic.value.DoubleValue
2.836

@<SCITEGIC>MOL_PROPERTY
G
SciTegic.value.DoubleValue
-19.054

@<SCITEGIC>MOL_PROPERTY
E
SciTegic.value.DoubleValue
-34.883

@<SCITEGIC>MOL_PROPERTY
-TS
SciTegic.value.DoubleValue
15.829

@<SCITEGIC>MOL_PROPERTY
U+W
SciTegic.value.DoubleValue
-50.979

@<SCITEGIC>MOL_PROPERTY
U
SciTegic.value.DoubleValue
11.076

@<SCITEGIC>MOL_PROPERTY
W
SciTegic.value.DoubleValue
-62.055

@<SCITEGIC>MOL_PROPERTY
W(PB)
SciTegic.value.DoubleValue
-64.206

@<SCITEGIC>MOL_PROPERTY
W(SA)
SciTegic.value.DoubleValue
2.151

@<SCITEGIC>MOL_PROPERTY
Valence
SciTegic.value.DoubleValue
8.972

@<SCITEGIC>MOL_PROPERTY
Coulomb
SciTegic.value.DoubleValue
1.263

@<SCITEGIC>MOL_PROPERTY
VdW
SciTegic.value.DoubleValue
0.841

@<SCITEGIC>MOL_PROPERTY
VdW6
SciTegic.value.DoubleValue
-8.354

@<SCITEGIC>MOL_PROPERTY
VdW12
SciTegic.value.DoubleValue
9.195

@<SCITEGIC>MOL_PROPERTY
Bond
SciTegic.value.DoubleValue
0.189

@<SCITEGIC>MOL_PROPERTY
Angle
SciTegic.value.DoubleValue
3.355

@<SCITEGIC>MOL_PROPERTY
Pdih
SciTegic.value.DoubleValue
5.428

@<SCITEGIC>MOL_PROPERTY
Idih
SciTegic.value.DoubleValue
0.001

@<SCITEGIC>MOL_PROPERTY
Tether
SciTegic.value.DoubleValue
0.000

@<TRIPOS>MOLECULE
guest-s22_vm2.mol2 : vm2 ligand conformer 48
          20          19           1
SMALL
USER_CHARGES
 
@<TRIPOS>ATOM
       1    C1      19.732026   17.311422   20.164529 C.2        1 MOL1        -0.2535
       2    H1      20.318716   16.399234   20.071057 H          1 MOL1         0.0845
       3    H2      18.649499   17.207868   20.217402 H          1 MOL1         0.0845
       4    C2      20.321520   18.509081   20.215048 C.2        1 MOL1        -0.1324
       5    H3      21.406889   18.588757   20.161073 H          1 MOL1         0.0833
       6    C3      19.575395   19.820574   20.343994 C.3        1 MOL1        -0.1813
       7    H4      18.490217   19.656230   20.386127 H          1 MOL1         0.0753
       8    H5      19.762078   20.407249   19.434708 H          1 MOL1         0.0753
       9    C4      20.029784   20.668059   21.558241 C.3        1 MOL1        -0.1855
      10    H6      21.126166   20.668555   21.628069 H          1 MOL1         0.0755
      11    H7      19.740491   21.710671   21.368032 H          1 MOL1         0.0755
      12    C5      19.409723   20.251395   22.915652 C.3        1 MOL1        -0.1855
      13    H8      18.313781   20.244301   22.838681 H          1 MOL1         0.0755
      14    H9      19.660674   21.019916   23.659871 H          1 MOL1         0.0755
      15    C6      19.899842   18.879923   23.445869 C.3        1 MOL1        -0.1958
      16    H10     19.537422   18.069551   22.805594 H          1 MOL1         0.0753
      17    H11     20.995437   18.838658   23.438219 H          1 MOL1         0.0753
      18    C7      19.423598   18.591378   24.864863 C.2        1 MOL1         0.6174
      19    O1      20.140690   18.921961   25.788696 O.co2      1 MOL1        -0.6695
      20    O2      18.338422   18.064207   25.011108 O.co2      1 MOL1        -0.6695
@<TRIPOS>BOND
    1     1     2    1
    2     1     3    1
    3     1     4    2
    4     4     5    1
    5     4     6    1
    6     6     7    1
    7     6     8    1
    8     6     9    1
    9     9    10    1
   10     9    11    1
   11     9    12    1
   12    12    13    1
   13    12    14    1
   14    12    15    1
   15    15    16    1
   16    15    17    1
   17    15    18    1
   18    18    19    1
   19    18    20    2
@<TRIPOS>SUBSTRUCTURE
       1 MOL1            1 RESIDUE      1      MOL     
@<SCITEGIC>MOL_PROPERTY
VM2 Rank
SciTegic.value.IntegerValue
48

@<SCITEGIC>MOL_PROPERTY
Conf_Id
SciTegic.value.IntegerValue
928

@<SCITEGIC>MOL_PROPERTY
Probability
SciTegic.value.DoubleValue
0.11

@<SCITEGIC>MOL_PROPERTY
Sum Probability
SciTegic.value.DoubleValue
99.33

@<SCITEGIC>MOL_PROPERTY
Delta G
SciTegic.value.DoubleValue
2.873

@<SCITEGIC>MOL_PROPERTY
G
SciTegic.value.DoubleValue
-19.016

@<SCITEGIC>MOL_PROPERTY
E
SciTegic.value.DoubleValue
-34.233

@<SCITEGIC>MOL_PROPERTY
-TS
SciTegic.value.DoubleValue
15.216

@<SCITEGIC>MOL_PROPERTY
U+W
SciTegic.value.DoubleValue
-50.329

@<SCITEGIC>MOL_PROPERTY
U
SciTegic.value.DoubleValue
11.028

@<SCITEGIC>MOL_PROPERTY
W
SciTegic.value.DoubleValue
-61.357

@<SCITEGIC>MOL_PROPERTY
W(PB)
SciTegic.value.DoubleValue
-63.524

@<SCITEGIC>MOL_PROPERTY
W(SA)
SciTegic.value.DoubleValue
2.167

@<SCITEGIC>MOL_PROPERTY
Valence
SciTegic.value.DoubleValue
11.008

@<SCITEGIC>MOL_PROPERTY
Coulomb
SciTegic.value.DoubleValue
-0.464

@<SCITEGIC>MOL_PROPERTY
VdW
SciTegic.value.DoubleValue
0.484

@<SCITEGIC>MOL_PROPERTY
VdW6
SciTegic.value.DoubleValue
-7.637

@<SCITEGIC>MOL_PROPERTY
VdW12
SciTegic.value.DoubleValue
8.122

@<SCITEGIC>MOL_PROPERTY
Bond
SciTegic.value.DoubleValue
0.158

@<SCITEGIC>MOL_PROPERTY
Angle
SciTegic.value.DoubleValue
3.060

@<SCITEGIC>MOL_PROPERTY
Pdih
SciTegic.value.DoubleValue
7.789

@<SCITEGIC>MOL_PROPERTY
Idih
SciTegic.value.DoubleValue
0.001

@<SCITEGIC>MOL_PROPERTY
Tether
SciTegic.value.DoubleValue
0.000

@<TRIPOS>MOLECULE
guest-s22_vm2.mol2 : vm2 ligand conformer 49
          20          19           1
SMALL
USER_CHARGES
 
@<TRIPOS>ATOM
       1    C1      21.099205   17.723524   20.340941 C.2        1 MOL1        -0.2535
       2    H1      21.144680   16.648183   20.177836 H          1 MOL1         0.0845
       3    H2      22.015617   18.222500   20.651741 H          1 MOL1         0.0845
       4    C2      19.960457   18.400248   20.168473 C.2        1 MOL1        -0.1324
       5    H3      19.054960   17.879806   19.857822 H          1 MOL1         0.0833
       6    C3      19.817793   19.893641   20.375291 C.3        1 MOL1        -0.1813
       7    H4      19.559858   20.346304   19.408644 H          1 MOL1         0.0753
       8    H5      20.771937   20.344006   20.680542 H          1 MOL1         0.0753
       9    C4      18.707391   20.269448   21.387651 C.3        1 MOL1        -0.1855
      10    H6      18.417288   21.311814   21.197328 H          1 MOL1         0.0755
      11    H7      17.807329   19.668138   21.199912 H          1 MOL1         0.0755
      12    C5      19.117622   20.163371   22.877990 C.3        1 MOL1        -0.1855
      13    H8      18.323608   20.616823   23.487404 H          1 MOL1         0.0755
      14    H9      20.022526   20.759511   23.059183 H          1 MOL1         0.0755
      15    C6      19.345846   18.712925   23.374376 C.3        1 MOL1        -0.1958
      16    H10     18.487275   18.082483   23.114589 H          1 MOL1         0.0753
      17    H11     20.228258   18.277889   22.894695 H          1 MOL1         0.0753
      18    C7      19.556112   18.631320   24.881936 C.2        1 MOL1         0.6174
      19    O1      20.683492   18.771216   25.313618 O.co2      1 MOL1        -0.6695
      20    O2      18.583082   18.452307   25.587724 O.co2      1 MOL1        -0.6695
@<TRIPOS>BOND
    1     1     2    1
    2     1     3    1
    3     1     4    2
    4     4     5    1
    5     4     6    1
    6     6     7    1
    7     6     8    1
    8     6     9    1
    9     9    10    1
   10     9    11    1
   11     9    12    1
   12    12    13    1
   13    12    14    1
   14    12    15    1
   15    15    16    1
   16    15    17    1
   17    15    18    1
   18    18    19    1
   19    18    20    2
@<TRIPOS>SUBSTRUCTURE
       1 MOL1            1 RESIDUE      1      MOL     
@<SCITEGIC>MOL_PROPERTY
VM2 Rank
SciTegic.value.IntegerValue
49

@<SCITEGIC>MOL_PROPERTY
Conf_Id
SciTegic.value.IntegerValue
157

@<SCITEGIC>MOL_PROPERTY
Probability
SciTegic.value.DoubleValue
0.10

@<SCITEGIC>MOL_PROPERTY
Sum Probability
SciTegic.value.DoubleValue
99.43

@<SCITEGIC>MOL_PROPERTY
Delta G
SciTegic.value.DoubleValue
2.905

@<SCITEGIC>MOL_PROPERTY
G
SciTegic.value.DoubleValue
-18.984

@<SCITEGIC>MOL_PROPERTY
E
SciTegic.value.DoubleValue
-34.201

@<SCITEGIC>MOL_PROPERTY
-TS
SciTegic.value.DoubleValue
15.217

@<SCITEGIC>MOL_PROPERTY
U+W
SciTegic.value.DoubleValue
-50.297

@<SCITEGIC>MOL_PROPERTY
U
SciTegic.value.DoubleValue
11.028

@<SCITEGIC>MOL_PROPERTY
W
SciTegic.value.DoubleValue
-61.325

@<SCITEGIC>MOL_PROPERTY
W(PB)
SciTegic.value.DoubleValue
-63.509

@<SCITEGIC>MOL_PROPERTY
W(SA)
SciTegic.value.DoubleValue
2.184

@<SCITEGIC>MOL_PROPERTY
Valence
SciTegic.value.DoubleValue
11.008

@<SCITEGIC>MOL_PROPERTY
Coulomb
SciTegic.value.DoubleValue
-0.464

@<SCITEGIC>MOL_PROPERTY
VdW
SciTegic.value.DoubleValue
0.484

@<SCITEGIC>MOL_PROPERTY
VdW6
SciTegic.value.DoubleValue
-7.638

@<SCITEGIC>MOL_PROPERTY
VdW12
SciTegic.value.DoubleValue
8.122

@<SCITEGIC>MOL_PROPERTY
Bond
SciTegic.value.DoubleValue
0.158

@<SCITEGIC>MOL_PROPERTY
Angle
SciTegic.value.DoubleValue
3.060

@<SCITEGIC>MOL_PROPERTY
Pdih
SciTegic.value.DoubleValue
7.789

@<SCITEGIC>MOL_PROPERTY
Idih
SciTegic.value.DoubleValue
0.001

@<SCITEGIC>MOL_PROPERTY
Tether
SciTegic.value.DoubleValue
0.000

@<TRIPOS>MOLECULE
guest-s22_vm2.mol2 : vm2 ligand conformer 50
          20          19           1
SMALL
USER_CHARGES
 
@<TRIPOS>ATOM
       1    C1      21.339039   19.721221   20.598998 C.2        1 MOL1        -0.2535
       2    H1      22.339937   19.847961   20.190284 H          1 MOL1         0.0845
       3    H2      21.179811   20.055997   21.621981 H          1 MOL1         0.0845
       4    C2      20.362775   19.179276   19.862124 C.2        1 MOL1        -0.1324
       5    H3      20.583106   18.864006   18.842583 H          1 MOL1         0.0833
       6    C3      18.924221   18.935321   20.291312 C.3        1 MOL1        -0.1813
       7    H4      18.609860   17.945655   19.933774 H          1 MOL1         0.0753
       8    H5      18.277548   19.650154   19.765421 H          1 MOL1         0.0753
       9    C4      18.641941   19.022430   21.811680 C.3        1 MOL1        -0.1855
      10    H6      18.974435   19.994676   22.199153 H          1 MOL1         0.0755
      11    H7      17.555018   18.990737   21.967344 H          1 MOL1         0.0755
      12    C5      19.289635   17.865599   22.610501 C.3        1 MOL1        -0.1855
      13    H8      20.377627   17.862179   22.461887 H          1 MOL1         0.0755
      14    H9      18.918462   16.907556   22.222546 H          1 MOL1         0.0755
      15    C6      18.984144   17.947590   24.128475 C.3        1 MOL1        -0.1958
      16    H10     17.900812   17.976982   24.296595 H          1 MOL1         0.0753
      17    H11     19.358872   17.045891   24.626920 H          1 MOL1         0.0753
      18    C7      19.618126   19.150013   24.822330 C.2        1 MOL1         0.6174
      19    O1      20.807340   19.107274   25.069284 O.co2      1 MOL1        -0.6695
      20    O2      18.903780   20.089275   25.113296 O.co2      1 MOL1        -0.6695
@<TRIPOS>BOND
    1     1     2    1
    2     1     3    1
    3     1     4    2
    4     4     5    1
    5     4     6    1
    6     6     7    1
    7     6     8    1
    8     6     9    1
    9     9    10    1
   10     9    11    1
   11     9    12    1
   12    12    13    1
   13    12    14    1
   14    12    15    1
   15    15    16    1
   16    15    17    1
   17    15    18    1
   18    18    19    1
   19    18    20    2
@<TRIPOS>SUBSTRUCTURE
       1 MOL1            1 RESIDUE      1      MOL     
@<SCITEGIC>MOL_PROPERTY
VM2 Rank
SciTegic.value.IntegerValue
50

@<SCITEGIC>MOL_PROPERTY
Conf_Id
SciTegic.value.IntegerValue
752

@<SCITEGIC>MOL_PROPERTY
Probability
SciTegic.value.DoubleValue
0.10

@<SCITEGIC>MOL_PROPERTY
Sum Probability
SciTegic.value.DoubleValue
99.54

@<SCITEGIC>MOL_PROPERTY
Delta G
SciTegic.value.DoubleValue
2.910

@<SCITEGIC>MOL_PROPERTY
G
SciTegic.value.DoubleValue
-18.980

@<SCITEGIC>MOL_PROPERTY
E
SciTegic.value.DoubleValue
-34.808

@<SCITEGIC>MOL_PROPERTY
-TS
SciTegic.value.DoubleValue
15.828

@<SCITEGIC>MOL_PROPERTY
U+W
SciTegic.value.DoubleValue
-50.904

@<SCITEGIC>MOL_PROPERTY
U
SciTegic.value.DoubleValue
11.076

@<SCITEGIC>MOL_PROPERTY
W
SciTegic.value.DoubleValue
-61.980

@<SCITEGIC>MOL_PROPERTY
W(PB)
SciTegic.value.DoubleValue
-64.111

@<SCITEGIC>MOL_PROPERTY
W(SA)
SciTegic.value.DoubleValue
2.131

@<SCITEGIC>MOL_PROPERTY
Valence
SciTegic.value.DoubleValue
8.972

@<SCITEGIC>MOL_PROPERTY
Coulomb
SciTegic.value.DoubleValue
1.262

@<SCITEGIC>MOL_PROPERTY
VdW
SciTegic.value.DoubleValue
0.841

@<SCITEGIC>MOL_PROPERTY
VdW6
SciTegic.value.DoubleValue
-8.354

@<SCITEGIC>MOL_PROPERTY
VdW12
SciTegic.value.DoubleValue
9.195

@<SCITEGIC>MOL_PROPERTY
Bond
SciTegic.value.DoubleValue
0.189

@<SCITEGIC>MOL_PROPERTY
Angle
SciTegic.value.DoubleValue
3.355

@<SCITEGIC>MOL_PROPERTY
Pdih
SciTegic.value.DoubleValue
5.428

@<SCITEGIC>MOL_PROPERTY
Idih
SciTegic.value.DoubleValue
0.001

@<SCITEGIC>MOL_PROPERTY
Tether
SciTegic.value.DoubleValue
0.000

@<TRIPOS>MOLECULE
guest-s22_vm2.mol2 : vm2 ligand conformer 51
          20          19           1
SMALL
USER_CHARGES
 
@<TRIPOS>ATOM
       1    C1      19.993223   18.677930   18.843210 C.2        1 MOL1        -0.2535
       2    H1      20.402675   17.918360   18.179473 H          1 MOL1         0.0845
       3    H2      19.827929   19.670555   18.427476 H          1 MOL1         0.0845
       4    C2      19.709042   18.399756   20.118175 C.2        1 MOL1        -0.1324
       5    H3      19.879863   17.399063   20.513975 H          1 MOL1         0.0833
       6    C3      19.133818   19.401114   21.096910 C.3        1 MOL1        -0.1813
       7    H4      18.316949   18.942261   21.668845 H          1 MOL1         0.0753
       8    H5      18.681177   20.237558   20.547644 H          1 MOL1         0.0753
       9    C4      20.204090   19.968224   22.060039 C.3        1 MOL1        -0.1855
      10    H6      20.965322   20.497337   21.470633 H          1 MOL1         0.0755
      11    H7      19.737426   20.725897   22.704343 H          1 MOL1         0.0755
      12    C5      20.906842   18.907037   22.945538 C.3        1 MOL1        -0.1855
      13    H8      21.660644   19.410406   23.566495 H          1 MOL1         0.0755
      14    H9      21.459402   18.204965   22.307206 H          1 MOL1         0.0755
      15    C6      19.950570   18.108564   23.872992 C.3        1 MOL1        -0.1958
      16    H10     19.230314   17.532421   23.281105 H          1 MOL1         0.0753
      17    H11     20.530363   17.379701   24.451097 H          1 MOL1         0.0753
      18    C7      19.184032   18.973014   24.869832 C.2        1 MOL1         0.6174
      19    O1      19.797150   19.447406   25.806046 O.co2      1 MOL1        -0.6695
      20    O2      17.992234   19.134954   24.695258 O.co2      1 MOL1        -0.6695
@<TRIPOS>BOND
    1     1     2    1
    2     1     3    1
    3     1     4    2
    4     4     5    1
    5     4     6    1
    6     6     7    1
    7     6     8    1
    8     6     9    1
    9     9    10    1
   10     9    11    1
   11     9    12    1
   12    12    13    1
   13    12    14    1
   14    12    15    1
   15    15    16    1
   16    15    17    1
   17    15    18    1
   18    18    19    1
   19    18    20    2
@<TRIPOS>SUBSTRUCTURE
       1 MOL1            1 RESIDUE      1      MOL     
@<SCITEGIC>MOL_PROPERTY
VM2 Rank
SciTegic.value.IntegerValue
51

@<SCITEGIC>MOL_PROPERTY
Conf_Id
SciTegic.value.IntegerValue
284

@<SCITEGIC>MOL_PROPERTY
Probability
SciTegic.value.DoubleValue
0.07

@<SCITEGIC>MOL_PROPERTY
Sum Probability
SciTegic.value.DoubleValue
99.61

@<SCITEGIC>MOL_PROPERTY
Delta G
SciTegic.value.DoubleValue
3.139

@<SCITEGIC>MOL_PROPERTY
G
SciTegic.value.DoubleValue
-18.751

@<SCITEGIC>MOL_PROPERTY
E
SciTegic.value.DoubleValue
-34.410

@<SCITEGIC>MOL_PROPERTY
-TS
SciTegic.value.DoubleValue
15.659

@<SCITEGIC>MOL_PROPERTY
U+W
SciTegic.value.DoubleValue
-50.506

@<SCITEGIC>MOL_PROPERTY
U
SciTegic.value.DoubleValue
10.403

@<SCITEGIC>MOL_PROPERTY
W
SciTegic.value.DoubleValue
-60.909

@<SCITEGIC>MOL_PROPERTY
W(PB)
SciTegic.value.DoubleValue
-63.052

@<SCITEGIC>MOL_PROPERTY
W(SA)
SciTegic.value.DoubleValue
2.143

@<SCITEGIC>MOL_PROPERTY
Valence
SciTegic.value.DoubleValue
10.022

@<SCITEGIC>MOL_PROPERTY
Coulomb
SciTegic.value.DoubleValue
0.093

@<SCITEGIC>MOL_PROPERTY
VdW
SciTegic.value.DoubleValue
0.289

@<SCITEGIC>MOL_PROPERTY
VdW6
SciTegic.value.DoubleValue
-8.409

@<SCITEGIC>MOL_PROPERTY
VdW12
SciTegic.value.DoubleValue
8.698

@<SCITEGIC>MOL_PROPERTY
Bond
SciTegic.value.DoubleValue
0.179

@<SCITEGIC>MOL_PROPERTY
Angle
SciTegic.value.DoubleValue
2.939

@<SCITEGIC>MOL_PROPERTY
Pdih
SciTegic.value.DoubleValue
6.902

@<SCITEGIC>MOL_PROPERTY
Idih
SciTegic.value.DoubleValue
0.001

@<SCITEGIC>MOL_PROPERTY
Tether
SciTegic.value.DoubleValue
0.000

@<TRIPOS>MOLECULE
guest-s22_vm2.mol2 : vm2 ligand conformer 52
          20          19           1
SMALL
USER_CHARGES
 
@<TRIPOS>ATOM
       1    C1      20.452874   18.816483   18.902434 C.2        1 MOL1        -0.2535
       2    H1      20.142739   19.765443   18.467976 H          1 MOL1         0.0845
       3    H2      20.691096   18.005283   18.216611 H          1 MOL1         0.0845
       4    C2      20.536025   18.649051   20.224830 C.2        1 MOL1        -0.1324
       5    H3      20.850852   17.691769   20.639221 H          1 MOL1         0.0833
       6    C3      20.226469   19.730497   21.237836 C.3        1 MOL1        -0.1813
       7    H4      20.263820   20.714656   20.751779 H          1 MOL1         0.0753
       8    H5      21.001312   19.751471   22.015083 H          1 MOL1         0.0753
       9    C4      18.830932   19.554277   21.882923 C.3        1 MOL1        -0.1855
      10    H6      18.644454   20.396422   22.563357 H          1 MOL1         0.0755
      11    H7      18.066736   19.623530   21.096765 H          1 MOL1         0.0755
      12    C5      18.636059   18.222504   22.652666 C.3        1 MOL1        -0.1855
      13    H8      18.721638   17.379653   21.954113 H          1 MOL1         0.0755
      14    H9      17.609954   18.189323   23.044061 H          1 MOL1         0.0755
      15    C6      19.625330   18.010526   23.831053 C.3        1 MOL1        -0.1958
      16    H10     19.420240   17.045051   24.307922 H          1 MOL1         0.0753
      17    H11     20.657250   17.962586   23.465155 H          1 MOL1         0.0753
      18    C7      19.540268   19.080402   24.915799 C.2        1 MOL1         0.6174
      19    O1      20.453261   19.876717   25.012803 O.co2      1 MOL1        -0.6695
      20    O2      18.569783   19.077544   25.647655 O.co2      1 MOL1        -0.6695
@<TRIPOS>BOND
    1     1     2    1
    2     1     3    1
    3     1     4    2
    4     4     5    1
    5     4     6    1
    6     6     7    1
    7     6     8    1
    8     6     9    1
    9     9    10    1
   10     9    11    1
   11     9    12    1
   12    12    13    1
   13    12    14    1
   14    12    15    1
   15    15    16    1
   16    15    17    1
   17    15    18    1
   18    18    19    1
   19    18    20    2
@<TRIPOS>SUBSTRUCTURE
       1 MOL1            1 RESIDUE      1      MOL     
@<SCITEGIC>MOL_PROPERTY
VM2 Rank
SciTegic.value.IntegerValue
52

@<SCITEGIC>MOL_PROPERTY
Conf_Id
SciTegic.value.IntegerValue
354

@<SCITEGIC>MOL_PROPERTY
Probability
SciTegic.value.DoubleValue
0.07

@<SCITEGIC>MOL_PROPERTY
Sum Probability
SciTegic.value.DoubleValue
99.67

@<SCITEGIC>MOL_PROPERTY
Delta G
SciTegic.value.DoubleValue
3.150

@<SCITEGIC>MOL_PROPERTY
G
SciTegic.value.DoubleValue
-18.740

@<SCITEGIC>MOL_PROPERTY
E
SciTegic.value.DoubleValue
-34.401

@<SCITEGIC>MOL_PROPERTY
-TS
SciTegic.value.DoubleValue
15.660

@<SCITEGIC>MOL_PROPERTY
U+W
SciTegic.value.DoubleValue
-50.497

@<SCITEGIC>MOL_PROPERTY
U
SciTegic.value.DoubleValue
10.403

@<SCITEGIC>MOL_PROPERTY
W
SciTegic.value.DoubleValue
-60.900

@<SCITEGIC>MOL_PROPERTY
W(PB)
SciTegic.value.DoubleValue
-63.048

@<SCITEGIC>MOL_PROPERTY
W(SA)
SciTegic.value.DoubleValue
2.148

@<SCITEGIC>MOL_PROPERTY
Valence
SciTegic.value.DoubleValue
10.022

@<SCITEGIC>MOL_PROPERTY
Coulomb
SciTegic.value.DoubleValue
0.093

@<SCITEGIC>MOL_PROPERTY
VdW
SciTegic.value.DoubleValue
0.289

@<SCITEGIC>MOL_PROPERTY
VdW6
SciTegic.value.DoubleValue
-8.408

@<SCITEGIC>MOL_PROPERTY
VdW12
SciTegic.value.DoubleValue
8.697

@<SCITEGIC>MOL_PROPERTY
Bond
SciTegic.value.DoubleValue
0.179

@<SCITEGIC>MOL_PROPERTY
Angle
SciTegic.value.DoubleValue
2.939

@<SCITEGIC>MOL_PROPERTY
Pdih
SciTegic.value.DoubleValue
6.902

@<SCITEGIC>MOL_PROPERTY
Idih
SciTegic.value.DoubleValue
0.001

@<SCITEGIC>MOL_PROPERTY
Tether
SciTegic.value.DoubleValue
0.000

@<TRIPOS>MOLECULE
guest-s22_vm2.mol2 : vm2 ligand conformer 53
          20          19           1
SMALL
USER_CHARGES
 
@<TRIPOS>ATOM
       1    C1      20.898495   17.949066   19.883189 C.2        1 MOL1        -0.2535
       2    H1      21.562897   17.644491   20.690037 H          1 MOL1         0.0845
       3    H2      20.856721   17.312608   19.001047 H          1 MOL1         0.0845
       4    C2      20.159417   19.058255   19.969732 C.2        1 MOL1        -0.1324
       5    H3      19.499002   19.344204   19.151600 H          1 MOL1         0.0833
       6    C3      20.162731   19.990795   21.162398 C.3        1 MOL1        -0.1813
       7    H4      20.356585   21.014205   20.815165 H          1 MOL1         0.0753
       8    H5      20.984210   19.744361   21.847906 H          1 MOL1         0.0753
       9    C4      18.816511   19.976087   21.925419 C.3        1 MOL1        -0.1855
      10    H6      18.856510   20.717974   22.734712 H          1 MOL1         0.0755
      11    H7      18.019869   20.309646   21.246632 H          1 MOL1         0.0755
      12    C5      18.425752   18.596134   22.514196 C.3        1 MOL1        -0.1855
      13    H8      18.312009   17.869735   21.698435 H          1 MOL1         0.0755
      14    H9      17.437879   18.681166   22.987426 H          1 MOL1         0.0755
      15    C6      19.431051   18.035448   23.556852 C.3        1 MOL1        -0.1958
      16    H10     19.083025   17.056670   23.906664 H          1 MOL1         0.0753
      17    H11     20.411500   17.869388   23.096488 H          1 MOL1         0.0753
      18    C7      19.611973   18.920241   24.786733 C.2        1 MOL1         0.6174
      19    O1      20.659139   19.523917   24.913839 O.co2      1 MOL1        -0.6695
      20    O2      18.705932   18.968055   25.595642 O.co2      1 MOL1        -0.6695
@<TRIPOS>BOND
    1     1     2    1
    2     1     3    1
    3     1     4    2
    4     4     5    1
    5     4     6    1
    6     6     7    1
    7     6     8    1
    8     6     9    1
    9     9    10    1
   10     9    11    1
   11     9    12    1
   12    12    13    1
   13    12    14    1
   14    12    15    1
   15    15    16    1
   16    15    17    1
   17    15    18    1
   18    18    19    1
   19    18    20    2
@<TRIPOS>SUBSTRUCTURE
       1 MOL1            1 RESIDUE      1      MOL     
@<SCITEGIC>MOL_PROPERTY
VM2 Rank
SciTegic.value.IntegerValue
53

@<SCITEGIC>MOL_PROPERTY
Conf_Id
SciTegic.value.IntegerValue
383

@<SCITEGIC>MOL_PROPERTY
Probability
SciTegic.value.DoubleValue
0.05

@<SCITEGIC>MOL_PROPERTY
Sum Probability
SciTegic.value.DoubleValue
99.73

@<SCITEGIC>MOL_PROPERTY
Delta G
SciTegic.value.DoubleValue
3.307

@<SCITEGIC>MOL_PROPERTY
G
SciTegic.value.DoubleValue
-18.582

@<SCITEGIC>MOL_PROPERTY
E
SciTegic.value.DoubleValue
-34.366

@<SCITEGIC>MOL_PROPERTY
-TS
SciTegic.value.DoubleValue
15.783

@<SCITEGIC>MOL_PROPERTY
U+W
SciTegic.value.DoubleValue
-50.462

@<SCITEGIC>MOL_PROPERTY
U
SciTegic.value.DoubleValue
10.910

@<SCITEGIC>MOL_PROPERTY
W
SciTegic.value.DoubleValue
-61.372

@<SCITEGIC>MOL_PROPERTY
W(PB)
SciTegic.value.DoubleValue
-63.513

@<SCITEGIC>MOL_PROPERTY
W(SA)
SciTegic.value.DoubleValue
2.140

@<SCITEGIC>MOL_PROPERTY
Valence
SciTegic.value.DoubleValue
9.972

@<SCITEGIC>MOL_PROPERTY
Coulomb
SciTegic.value.DoubleValue
0.850

@<SCITEGIC>MOL_PROPERTY
VdW
SciTegic.value.DoubleValue
0.088

@<SCITEGIC>MOL_PROPERTY
VdW6
SciTegic.value.DoubleValue
-8.717

@<SCITEGIC>MOL_PROPERTY
VdW12
SciTegic.value.DoubleValue
8.805

@<SCITEGIC>MOL_PROPERTY
Bond
SciTegic.value.DoubleValue
0.178

@<SCITEGIC>MOL_PROPERTY
Angle
SciTegic.value.DoubleValue
2.916

@<SCITEGIC>MOL_PROPERTY
Pdih
SciTegic.value.DoubleValue
6.877

@<SCITEGIC>MOL_PROPERTY
Idih
SciTegic.value.DoubleValue
0.001

@<SCITEGIC>MOL_PROPERTY
Tether
SciTegic.value.DoubleValue
0.000

@<TRIPOS>MOLECULE
guest-s22_vm2.mol2 : vm2 ligand conformer 54
          20          19           1
SMALL
USER_CHARGES
 
@<TRIPOS>ATOM
       1    C1      19.878080   17.641392   19.751316 C.2        1 MOL1        -0.2535
       2    H1      19.320983   16.968201   20.400667 H          1 MOL1         0.0845
       3    H2      20.463806   17.194328   18.950031 H          1 MOL1         0.0845
       4    C2      19.849233   18.964799   19.929620 C.2        1 MOL1        -0.1324
       5    H3      20.415879   19.621039   19.269686 H          1 MOL1         0.0833
       6    C3      19.060936   19.658417   21.020298 C.3        1 MOL1        -0.1813
       7    H4      18.373697   18.956832   21.511175 H          1 MOL1         0.0753
       8    H5      18.428176   20.432539   20.566569 H          1 MOL1         0.0753
       9    C4      19.975911   20.325660   22.074971 C.3        1 MOL1        -0.1855
      10    H6      20.594232   21.085945   21.578688 H          1 MOL1         0.0755
      11    H7      19.351175   20.867082   22.798516 H          1 MOL1         0.0755
      12    C5      20.905101   19.343793   22.834024 C.3        1 MOL1        -0.1855
      13    H8      21.544543   19.919605   23.517122 H          1 MOL1         0.0755
      14    H9      21.582307   18.855895   22.120296 H          1 MOL1         0.0755
      15    C6      20.157586   18.254540   23.650650 C.3        1 MOL1        -0.1958
      16    H10     19.565249   17.614143   22.987463 H          1 MOL1         0.0753
      17    H11     20.889535   17.601473   24.139782 H          1 MOL1         0.0753
      18    C7      19.243546   18.809170   24.739281 C.2        1 MOL1         0.6174
      19    O1      19.759142   19.285243   25.731774 O.co2      1 MOL1        -0.6695
      20    O2      18.041467   18.734986   24.576065 O.co2      1 MOL1        -0.6695
@<TRIPOS>BOND
    1     1     2    1
    2     1     3    1
    3     1     4    2
    4     4     5    1
    5     4     6    1
    6     6     7    1
    7     6     8    1
    8     6     9    1
    9     9    10    1
   10     9    11    1
   11     9    12    1
   12    12    13    1
   13    12    14    1
   14    12    15    1
   15    15    16    1
   16    15    17    1
   17    15    18    1
   18    18    19    1
   19    18    20    2
@<TRIPOS>SUBSTRUCTURE
       1 MOL1            1 RESIDUE      1      MOL     
@<SCITEGIC>MOL_PROPERTY
VM2 Rank
SciTegic.value.IntegerValue
54

@<SCITEGIC>MOL_PROPERTY
Conf_Id
SciTegic.value.IntegerValue
701

@<SCITEGIC>MOL_PROPERTY
Probability
SciTegic.value.DoubleValue
0.05

@<SCITEGIC>MOL_PROPERTY
Sum Probability
SciTegic.value.DoubleValue
99.78

@<SCITEGIC>MOL_PROPERTY
Delta G
SciTegic.value.DoubleValue
3.317

@<SCITEGIC>MOL_PROPERTY
G
SciTegic.value.DoubleValue
-18.573

@<SCITEGIC>MOL_PROPERTY
E
SciTegic.value.DoubleValue
-34.356

@<SCITEGIC>MOL_PROPERTY
-TS
SciTegic.value.DoubleValue
15.783

@<SCITEGIC>MOL_PROPERTY
U+W
SciTegic.value.DoubleValue
-50.452

@<SCITEGIC>MOL_PROPERTY
U
SciTegic.value.DoubleValue
10.910

@<SCITEGIC>MOL_PROPERTY
W
SciTegic.value.DoubleValue
-61.362

@<SCITEGIC>MOL_PROPERTY
W(PB)
SciTegic.value.DoubleValue
-63.495

@<SCITEGIC>MOL_PROPERTY
W(SA)
SciTegic.value.DoubleValue
2.133

@<SCITEGIC>MOL_PROPERTY
Valence
SciTegic.value.DoubleValue
9.972

@<SCITEGIC>MOL_PROPERTY
Coulomb
SciTegic.value.DoubleValue
0.850

@<SCITEGIC>MOL_PROPERTY
VdW
SciTegic.value.DoubleValue
0.088

@<SCITEGIC>MOL_PROPERTY
VdW6
SciTegic.value.DoubleValue
-8.716

@<SCITEGIC>MOL_PROPERTY
VdW12
SciTegic.value.DoubleValue
8.804

@<SCITEGIC>MOL_PROPERTY
Bond
SciTegic.value.DoubleValue
0.178

@<SCITEGIC>MOL_PROPERTY
Angle
SciTegic.value.DoubleValue
2.916

@<SCITEGIC>MOL_PROPERTY
Pdih
SciTegic.value.DoubleValue
6.877

@<SCITEGIC>MOL_PROPERTY
Idih
SciTegic.value.DoubleValue
0.001

@<SCITEGIC>MOL_PROPERTY
Tether
SciTegic.value.DoubleValue
0.000

@<TRIPOS>MOLECULE
guest-s22_vm2.mol2 : vm2 ligand conformer 55
          20          19           1
SMALL
USER_CHARGES
 
@<TRIPOS>ATOM
       1    C1      20.130992   19.886541   19.054178 C.2        1 MOL1        -0.2535
       2    H1      21.035672   20.417339   19.346359 H          1 MOL1         0.0845
       3    H2      19.868518   19.887675   17.997610 H          1 MOL1         0.0845
       4    C2      19.371333   19.255641   19.953391 C.2        1 MOL1        -0.1324
       5    H3      18.469823   18.729457   19.640367 H          1 MOL1         0.0833
       6    C3      19.671248   19.211621   21.435306 C.3        1 MOL1        -0.1813
       7    H4      18.761648   19.468901   21.991611 H          1 MOL1         0.0753
       8    H5      20.426686   19.966141   21.693716 H          1 MOL1         0.0753
       9    C4      20.171933   17.812979   21.858635 C.3        1 MOL1        -0.1855
      10    H6      19.372304   17.074443   21.710424 H          1 MOL1         0.0755
      11    H7      20.991038   17.518578   21.187964 H          1 MOL1         0.0755
      12    C5      20.689783   17.739263   23.316662 C.3        1 MOL1        -0.1855
      13    H8      21.496469   18.470136   23.467381 H          1 MOL1         0.0755
      14    H9      21.147354   16.751018   23.459695 H          1 MOL1         0.0755
      15    C6      19.596646   17.924331   24.406419 C.3        1 MOL1        -0.1958
      16    H10     18.703097   17.341991   24.150993 H          1 MOL1         0.0753
      17    H11     19.969425   17.526008   25.357139 H          1 MOL1         0.0753
      18    C7      19.185998   19.370215   24.677796 C.2        1 MOL1         0.6174
      19    O1      20.042313   20.156022   25.033895 O.co2      1 MOL1        -0.6695
      20    O2      18.010754   19.661389   24.571716 O.co2      1 MOL1        -0.6695
@<TRIPOS>BOND
    1     1     2    1
    2     1     3    1
    3     1     4    2
    4     4     5    1
    5     4     6    1
    6     6     7    1
    7     6     8    1
    8     6     9    1
    9     9    10    1
   10     9    11    1
   11     9    12    1
   12    12    13    1
   13    12    14    1
   14    12    15    1
   15    15    16    1
   16    15    17    1
   17    15    18    1
   18    18    19    1
   19    18    20    2
@<TRIPOS>SUBSTRUCTURE
       1 MOL1            1 RESIDUE      1      MOL     
@<SCITEGIC>MOL_PROPERTY
VM2 Rank
SciTegic.value.IntegerValue
55

@<SCITEGIC>MOL_PROPERTY
Conf_Id
SciTegic.value.IntegerValue
158

@<SCITEGIC>MOL_PROPERTY
Probability
SciTegic.value.DoubleValue
0.03

@<SCITEGIC>MOL_PROPERTY
Sum Probability
SciTegic.value.DoubleValue
99.81

@<SCITEGIC>MOL_PROPERTY
Delta G
SciTegic.value.DoubleValue
3.698

@<SCITEGIC>MOL_PROPERTY
G
SciTegic.value.DoubleValue
-18.191

@<SCITEGIC>MOL_PROPERTY
E
SciTegic.value.DoubleValue
-33.715

@<SCITEGIC>MOL_PROPERTY
-TS
SciTegic.value.DoubleValue
15.523

@<SCITEGIC>MOL_PROPERTY
U+W
SciTegic.value.DoubleValue
-49.811

@<SCITEGIC>MOL_PROPERTY
U
SciTegic.value.DoubleValue
11.755

@<SCITEGIC>MOL_PROPERTY
W
SciTegic.value.DoubleValue
-61.566

@<SCITEGIC>MOL_PROPERTY
W(PB)
SciTegic.value.DoubleValue
-63.745

@<SCITEGIC>MOL_PROPERTY
W(SA)
SciTegic.value.DoubleValue
2.179

@<SCITEGIC>MOL_PROPERTY
Valence
SciTegic.value.DoubleValue
10.983

@<SCITEGIC>MOL_PROPERTY
Coulomb
SciTegic.value.DoubleValue
0.362

@<SCITEGIC>MOL_PROPERTY
VdW
SciTegic.value.DoubleValue
0.411

@<SCITEGIC>MOL_PROPERTY
VdW6
SciTegic.value.DoubleValue
-8.035

@<SCITEGIC>MOL_PROPERTY
VdW12
SciTegic.value.DoubleValue
8.446

@<SCITEGIC>MOL_PROPERTY
Bond
SciTegic.value.DoubleValue
0.168

@<SCITEGIC>MOL_PROPERTY
Angle
SciTegic.value.DoubleValue
3.178

@<SCITEGIC>MOL_PROPERTY
Pdih
SciTegic.value.DoubleValue
7.632

@<SCITEGIC>MOL_PROPERTY
Idih
SciTegic.value.DoubleValue
0.005

@<SCITEGIC>MOL_PROPERTY
Tether
SciTegic.value.DoubleValue
0.000

@<TRIPOS>MOLECULE
guest-s22_vm2.mol2 : vm2 ligand conformer 56
          20          19           1
SMALL
USER_CHARGES
 
@<TRIPOS>ATOM
       1    C1      18.744605   18.677678   19.264134 C.2        1 MOL1        -0.2535
       2    H1      18.703674   18.670008   18.176256 H          1 MOL1         0.0845
       3    H2      17.996037   18.094355   19.798054 H          1 MOL1         0.0845
       4    C2      19.679453   19.375014   19.914906 C.2        1 MOL1        -0.1324
       5    H3      20.419892   19.952501   19.361881 H          1 MOL1         0.0833
       6    C3      19.797386   19.434448   21.421862 C.3        1 MOL1        -0.1813
       7    H4      18.872142   19.064060   21.880575 H          1 MOL1         0.0753
       8    H5      19.914595   20.478737   21.740955 H          1 MOL1         0.0753
       9    C4      20.999243   18.600456   21.918073 C.3        1 MOL1        -0.1855
      10    H6      20.826160   17.538788   21.694706 H          1 MOL1         0.0755
      11    H7      21.889860   18.893852   21.345492 H          1 MOL1         0.0755
      12    C5      21.313726   18.775008   23.424776 C.3        1 MOL1        -0.1855
      13    H8      21.496639   19.834641   23.651334 H          1 MOL1         0.0755
      14    H9      22.258707   18.254757   23.631688 H          1 MOL1         0.0755
      15    C6      20.232496   18.206352   24.386305 C.3        1 MOL1        -0.1958
      16    H10     19.899690   17.219514   24.042493 H          1 MOL1         0.0753
      17    H11     20.677634   18.059656   25.377164 H          1 MOL1         0.0753
      18    C7      19.009836   19.098333   24.592523 C.2        1 MOL1         0.6174
      19    O1      19.181623   20.223035   25.020509 O.co2      1 MOL1        -0.6695
      20    O2      17.912631   18.627675   24.364913 O.co2      1 MOL1        -0.6695
@<TRIPOS>BOND
    1     1     2    1
    2     1     3    1
    3     1     4    2
    4     4     5    1
    5     4     6    1
    6     6     7    1
    7     6     8    1
    8     6     9    1
    9     9    10    1
   10     9    11    1
   11     9    12    1
   12    12    13    1
   13    12    14    1
   14    12    15    1
   15    15    16    1
   16    15    17    1
   17    15    18    1
   18    18    19    1
   19    18    20    2
@<TRIPOS>SUBSTRUCTURE
       1 MOL1            1 RESIDUE      1      MOL     
@<SCITEGIC>MOL_PROPERTY
VM2 Rank
SciTegic.value.IntegerValue
56

@<SCITEGIC>MOL_PROPERTY
Conf_Id
SciTegic.value.IntegerValue
1143

@<SCITEGIC>MOL_PROPERTY
Probability
SciTegic.value.DoubleValue
0.03

@<SCITEGIC>MOL_PROPERTY
Sum Probability
SciTegic.value.DoubleValue
99.83

@<SCITEGIC>MOL_PROPERTY
Delta G
SciTegic.value.DoubleValue
3.741

@<SCITEGIC>MOL_PROPERTY
G
SciTegic.value.DoubleValue
-18.149

@<SCITEGIC>MOL_PROPERTY
E
SciTegic.value.DoubleValue
-33.662

@<SCITEGIC>MOL_PROPERTY
-TS
SciTegic.value.DoubleValue
15.514

@<SCITEGIC>MOL_PROPERTY
U+W
SciTegic.value.DoubleValue
-49.759

@<SCITEGIC>MOL_PROPERTY
U
SciTegic.value.DoubleValue
12.063

@<SCITEGIC>MOL_PROPERTY
W
SciTegic.value.DoubleValue
-61.822

@<SCITEGIC>MOL_PROPERTY
W(PB)
SciTegic.value.DoubleValue
-64.024

@<SCITEGIC>MOL_PROPERTY
W(SA)
SciTegic.value.DoubleValue
2.202

@<SCITEGIC>MOL_PROPERTY
Valence
SciTegic.value.DoubleValue
10.981

@<SCITEGIC>MOL_PROPERTY
Coulomb
SciTegic.value.DoubleValue
0.681

@<SCITEGIC>MOL_PROPERTY
VdW
SciTegic.value.DoubleValue
0.402

@<SCITEGIC>MOL_PROPERTY
VdW6
SciTegic.value.DoubleValue
-8.075

@<SCITEGIC>MOL_PROPERTY
VdW12
SciTegic.value.DoubleValue
8.477

@<SCITEGIC>MOL_PROPERTY
Bond
SciTegic.value.DoubleValue
0.169

@<SCITEGIC>MOL_PROPERTY
Angle
SciTegic.value.DoubleValue
3.169

@<SCITEGIC>MOL_PROPERTY
Pdih
SciTegic.value.DoubleValue
7.638

@<SCITEGIC>MOL_PROPERTY
Idih
SciTegic.value.DoubleValue
0.005

@<SCITEGIC>MOL_PROPERTY
Tether
SciTegic.value.DoubleValue
0.000

@<TRIPOS>MOLECULE
guest-s22_vm2.mol2 : vm2 ligand conformer 57
          20          19           1
SMALL
USER_CHARGES
 
@<TRIPOS>ATOM
       1    C1      19.996981   18.410962   19.067802 C.2        1 MOL1        -0.2535
       2    H1      20.327329   17.945797   18.140631 H          1 MOL1         0.0845
       3    H2      19.113232   19.042966   19.012357 H          1 MOL1         0.0845
       4    C2      20.657611   18.199128   20.211774 C.2        1 MOL1        -0.1324
       5    H3      21.535345   17.553298   20.205062 H          1 MOL1         0.0833
       6    C3      20.320680   18.776954   21.576318 C.3        1 MOL1        -0.1813
       7    H4      21.225487   19.234808   21.998012 H          1 MOL1         0.0753
       8    H5      20.065491   17.947766   22.247057 H          1 MOL1         0.0753
       9    C4      19.180346   19.824315   21.577924 C.3        1 MOL1        -0.1855
      10    H6      19.405688   20.590879   20.823957 H          1 MOL1         0.0755
      11    H7      18.239582   19.347885   21.270211 H          1 MOL1         0.0755
      12    C5      18.979461   20.539169   22.937678 C.3        1 MOL1        -0.1855
      13    H8      18.252864   21.348651   22.785151 H          1 MOL1         0.0755
      14    H9      19.913579   21.027334   23.248681 H          1 MOL1         0.0755
      15    C6      18.450001   19.629474   24.081940 C.3        1 MOL1        -0.1958
      16    H10     18.013372   20.259495   24.865460 H          1 MOL1         0.0753
      17    H11     17.643696   18.984395   23.712418 H          1 MOL1         0.0753
      18    C7      19.505056   18.762832   24.766677 C.2        1 MOL1         0.6174
      19    O1      20.458621   19.313260   25.281780 O.co2      1 MOL1        -0.6695
      20    O2      19.322243   17.561907   24.806107 O.co2      1 MOL1        -0.6695
@<TRIPOS>BOND
    1     1     2    1
    2     1     3    1
    3     1     4    2
    4     4     5    1
    5     4     6    1
    6     6     7    1
    7     6     8    1
    8     6     9    1
    9     9    10    1
   10     9    11    1
   11     9    12    1
   12    12    13    1
   13    12    14    1
   14    12    15    1
   15    15    16    1
   16    15    17    1
   17    15    18    1
   18    18    19    1
   19    18    20    2
@<TRIPOS>SUBSTRUCTURE
       1 MOL1            1 RESIDUE      1      MOL     
@<SCITEGIC>MOL_PROPERTY
VM2 Rank
SciTegic.value.IntegerValue
57

@<SCITEGIC>MOL_PROPERTY
Conf_Id
SciTegic.value.IntegerValue
1022

@<SCITEGIC>MOL_PROPERTY
Probability
SciTegic.value.DoubleValue
0.03

@<SCITEGIC>MOL_PROPERTY
Sum Probability
SciTegic.value.DoubleValue
99.86

@<SCITEGIC>MOL_PROPERTY
Delta G
SciTegic.value.DoubleValue
3.742

@<SCITEGIC>MOL_PROPERTY
G
SciTegic.value.DoubleValue
-18.148

@<SCITEGIC>MOL_PROPERTY
E
SciTegic.value.DoubleValue
-34.009

@<SCITEGIC>MOL_PROPERTY
-TS
SciTegic.value.DoubleValue
15.862

@<SCITEGIC>MOL_PROPERTY
U+W
SciTegic.value.DoubleValue
-50.106

@<SCITEGIC>MOL_PROPERTY
U
SciTegic.value.DoubleValue
11.478

@<SCITEGIC>MOL_PROPERTY
W
SciTegic.value.DoubleValue
-61.584

@<SCITEGIC>MOL_PROPERTY
W(PB)
SciTegic.value.DoubleValue
-63.742

@<SCITEGIC>MOL_PROPERTY
W(SA)
SciTegic.value.DoubleValue
2.158

@<SCITEGIC>MOL_PROPERTY
Valence
SciTegic.value.DoubleValue
9.964

@<SCITEGIC>MOL_PROPERTY
Coulomb
SciTegic.value.DoubleValue
0.355

@<SCITEGIC>MOL_PROPERTY
VdW
SciTegic.value.DoubleValue
1.159

@<SCITEGIC>MOL_PROPERTY
VdW6
SciTegic.value.DoubleValue
-8.703

@<SCITEGIC>MOL_PROPERTY
VdW12
SciTegic.value.DoubleValue
9.862

@<SCITEGIC>MOL_PROPERTY
Bond
SciTegic.value.DoubleValue
0.227

@<SCITEGIC>MOL_PROPERTY
Angle
SciTegic.value.DoubleValue
3.805

@<SCITEGIC>MOL_PROPERTY
Pdih
SciTegic.value.DoubleValue
5.927

@<SCITEGIC>MOL_PROPERTY
Idih
SciTegic.value.DoubleValue
0.005

@<SCITEGIC>MOL_PROPERTY
Tether
SciTegic.value.DoubleValue
0.000

@<TRIPOS>MOLECULE
guest-s22_vm2.mol2 : vm2 ligand conformer 58
          20          19           1
SMALL
USER_CHARGES
 
@<TRIPOS>ATOM
       1    C1      19.659384   18.785293   19.010241 C.2        1 MOL1        -0.2535
       2    H1      19.380013   18.995677   17.979297 H          1 MOL1         0.0845
       3    H2      20.187803   17.852507   19.195172 H          1 MOL1         0.0845
       4    C2      19.353815   19.643816   19.989802 C.2        1 MOL1        -0.1324
       5    H3      18.820342   20.561433   19.742936 H          1 MOL1         0.0833
       6    C3      19.676885   19.490028   21.466746 C.3        1 MOL1        -0.1813
       7    H4      18.732359   19.424414   22.020040 H          1 MOL1         0.0753
       8    H5      20.165658   20.408721   21.817798 H          1 MOL1         0.0753
       9    C4      20.575527   18.278327   21.815388 C.3        1 MOL1        -0.1855
      10    H6      20.047170   17.344992   21.577825 H          1 MOL1         0.0755
      11    H7      21.467667   18.306163   21.174937 H          1 MOL1         0.0755
      12    C5      21.049518   18.245395   23.290024 C.3        1 MOL1        -0.1855
      13    H8      21.588263   19.171668   23.533698 H          1 MOL1         0.0755
      14    H9      21.784753   17.435073   23.386352 H          1 MOL1         0.0755
      15    C6      19.923361   17.996940   24.332734 C.3        1 MOL1        -0.1958
      16    H10     19.253902   17.200203   23.986563 H          1 MOL1         0.0753
      17    H11     20.374168   17.643702   25.267331 H          1 MOL1         0.0753
      18    C7      19.089091   19.223828   24.695796 C.2        1 MOL1         0.6174
      19    O1      19.660387   20.197748   25.146006 O.co2      1 MOL1        -0.6695
      20    O2      17.883032   19.156624   24.561263 O.co2      1 MOL1        -0.6695
@<TRIPOS>BOND
    1     1     2    1
    2     1     3    1
    3     1     4    2
    4     4     5    1
    5     4     6    1
    6     6     7    1
    7     6     8    1
    8     6     9    1
    9     9    10    1
   10     9    11    1
   11     9    12    1
   12    12    13    1
   13    12    14    1
   14    12    15    1
   15    15    16    1
   16    15    17    1
   17    15    18    1
   18    18    19    1
   19    18    20    2
@<TRIPOS>SUBSTRUCTURE
       1 MOL1            1 RESIDUE      1      MOL     
@<SCITEGIC>MOL_PROPERTY
VM2 Rank
SciTegic.value.IntegerValue
58

@<SCITEGIC>MOL_PROPERTY
Conf_Id
SciTegic.value.IntegerValue
750

@<SCITEGIC>MOL_PROPERTY
Probability
SciTegic.value.DoubleValue
0.03

@<SCITEGIC>MOL_PROPERTY
Sum Probability
SciTegic.value.DoubleValue
99.88

@<SCITEGIC>MOL_PROPERTY
Delta G
SciTegic.value.DoubleValue
3.750

@<SCITEGIC>MOL_PROPERTY
G
SciTegic.value.DoubleValue
-18.140

@<SCITEGIC>MOL_PROPERTY
E
SciTegic.value.DoubleValue
-34.002

@<SCITEGIC>MOL_PROPERTY
-TS
SciTegic.value.DoubleValue
15.862

@<SCITEGIC>MOL_PROPERTY
U+W
SciTegic.value.DoubleValue
-50.098

@<SCITEGIC>MOL_PROPERTY
U
SciTegic.value.DoubleValue
11.477

@<SCITEGIC>MOL_PROPERTY
W
SciTegic.value.DoubleValue
-61.575

@<SCITEGIC>MOL_PROPERTY
W(PB)
SciTegic.value.DoubleValue
-63.705

@<SCITEGIC>MOL_PROPERTY
W(SA)
SciTegic.value.DoubleValue
2.130

@<SCITEGIC>MOL_PROPERTY
Valence
SciTegic.value.DoubleValue
9.964

@<SCITEGIC>MOL_PROPERTY
Coulomb
SciTegic.value.DoubleValue
0.354

@<SCITEGIC>MOL_PROPERTY
VdW
SciTegic.value.DoubleValue
1.159

@<SCITEGIC>MOL_PROPERTY
VdW6
SciTegic.value.DoubleValue
-8.702

@<SCITEGIC>MOL_PROPERTY
VdW12
SciTegic.value.DoubleValue
9.861

@<SCITEGIC>MOL_PROPERTY
Bond
SciTegic.value.DoubleValue
0.227

@<SCITEGIC>MOL_PROPERTY
Angle
SciTegic.value.DoubleValue
3.805

@<SCITEGIC>MOL_PROPERTY
Pdih
SciTegic.value.DoubleValue
5.927

@<SCITEGIC>MOL_PROPERTY
Idih
SciTegic.value.DoubleValue
0.004

@<SCITEGIC>MOL_PROPERTY
Tether
SciTegic.value.DoubleValue
0.000

@<TRIPOS>MOLECULE
guest-s22_vm2.mol2 : vm2 ligand conformer 59
          20          19           1
SMALL
USER_CHARGES
 
@<TRIPOS>ATOM
       1    C1      19.634355   19.737286   18.990354 C.2        1 MOL1        -0.2535
       2    H1      18.548288   19.668346   19.026006 H          1 MOL1         0.0845
       3    H2      20.091211   19.955224   18.026498 H          1 MOL1         0.0845
       4    C2      20.380726   19.559740   20.083563 C.2        1 MOL1        -0.1324
       5    H3      21.466578   19.632289   20.026640 H          1 MOL1         0.0833
       6    C3      19.818025   19.255694   21.454287 C.3        1 MOL1        -0.1813
       7    H4      18.738376   19.457295   21.476234 H          1 MOL1         0.0753
       8    H5      20.281733   19.926695   22.187620 H          1 MOL1         0.0753
       9    C4      20.077030   17.784203   21.846367 C.3        1 MOL1        -0.1855
      10    H6      19.733178   17.139414   21.025744 H          1 MOL1         0.0755
      11    H7      21.157950   17.612318   21.940576 H          1 MOL1         0.0755
      12    C5      19.360311   17.338410   23.145225 C.3        1 MOL1        -0.1855
      13    H8      19.496249   16.253216   23.246865 H          1 MOL1         0.0755
      14    H9      18.277258   17.499603   23.052237 H          1 MOL1         0.0755
      15    C6      19.886692   18.011804   24.443774 C.3        1 MOL1        -0.1958
      16    H10     19.581834   17.409181   25.307139 H          1 MOL1         0.0753
      17    H11     20.983268   18.029519   24.444928 H          1 MOL1         0.0753
      18    C7      19.367147   19.424860   24.701083 C.2        1 MOL1         0.6174
      19    O1      20.180363   20.315527   24.851503 O.co2      1 MOL1        -0.6695
      20    O2      18.166351   19.590475   24.791846 O.co2      1 MOL1        -0.6695
@<TRIPOS>BOND
    1     1     2    1
    2     1     3    1
    3     1     4    2
    4     4     5    1
    5     4     6    1
    6     6     7    1
    7     6     8    1
    8     6     9    1
    9     9    10    1
   10     9    11    1
   11     9    12    1
   12    12    13    1
   13    12    14    1
   14    12    15    1
   15    15    16    1
   16    15    17    1
   17    15    18    1
   18    18    19    1
   19    18    20    2
@<TRIPOS>SUBSTRUCTURE
       1 MOL1            1 RESIDUE      1      MOL     
@<SCITEGIC>MOL_PROPERTY
VM2 Rank
SciTegic.value.IntegerValue
59

@<SCITEGIC>MOL_PROPERTY
Conf_Id
SciTegic.value.IntegerValue
100

@<SCITEGIC>MOL_PROPERTY
Probability
SciTegic.value.DoubleValue
0.03

@<SCITEGIC>MOL_PROPERTY
Sum Probability
SciTegic.value.DoubleValue
99.91

@<SCITEGIC>MOL_PROPERTY
Delta G
SciTegic.value.DoubleValue
3.751

@<SCITEGIC>MOL_PROPERTY
G
SciTegic.value.DoubleValue
-18.138

@<SCITEGIC>MOL_PROPERTY
E
SciTegic.value.DoubleValue
-33.662

@<SCITEGIC>MOL_PROPERTY
-TS
SciTegic.value.DoubleValue
15.524

@<SCITEGIC>MOL_PROPERTY
U+W
SciTegic.value.DoubleValue
-49.759

@<SCITEGIC>MOL_PROPERTY
U
SciTegic.value.DoubleValue
11.755

@<SCITEGIC>MOL_PROPERTY
W
SciTegic.value.DoubleValue
-61.514

@<SCITEGIC>MOL_PROPERTY
W(PB)
SciTegic.value.DoubleValue
-63.715

@<SCITEGIC>MOL_PROPERTY
W(SA)
SciTegic.value.DoubleValue
2.201

@<SCITEGIC>MOL_PROPERTY
Valence
SciTegic.value.DoubleValue
10.982

@<SCITEGIC>MOL_PROPERTY
Coulomb
SciTegic.value.DoubleValue
0.361

@<SCITEGIC>MOL_PROPERTY
VdW
SciTegic.value.DoubleValue
0.411

@<SCITEGIC>MOL_PROPERTY
VdW6
SciTegic.value.DoubleValue
-8.036

@<SCITEGIC>MOL_PROPERTY
VdW12
SciTegic.value.DoubleValue
8.447

@<SCITEGIC>MOL_PROPERTY
Bond
SciTegic.value.DoubleValue
0.168

@<SCITEGIC>MOL_PROPERTY
Angle
SciTegic.value.DoubleValue
3.178

@<SCITEGIC>MOL_PROPERTY
Pdih
SciTegic.value.DoubleValue
7.632

@<SCITEGIC>MOL_PROPERTY
Idih
SciTegic.value.DoubleValue
0.005

@<SCITEGIC>MOL_PROPERTY
Tether
SciTegic.value.DoubleValue
0.000

@<TRIPOS>MOLECULE
guest-s22_vm2.mol2 : vm2 ligand conformer 60
          20          19           1
SMALL
USER_CHARGES
 
@<TRIPOS>ATOM
       1    C1      20.212644   17.570786   19.479534 C.2        1 MOL1        -0.2535
       2    H1      20.416145   17.378516   18.427472 H          1 MOL1         0.0845
       3    H2      19.754468   16.768776   20.056201 H          1 MOL1         0.0845
       4    C2      20.512609   18.746777   20.037021 C.2        1 MOL1        -0.1324
       5    H3      20.970678   19.536830   19.442406 H          1 MOL1         0.0833
       6    C3      20.260934   19.085197   21.489774 C.3        1 MOL1        -0.1813
       7    H4      21.162288   19.538503   21.923563 H          1 MOL1         0.0753
       8    H5      20.063993   18.165954   22.055357 H          1 MOL1         0.0753
       9    C4      19.068358   20.056205   21.635146 C.3        1 MOL1        -0.1855
      10    H6      19.222278   20.904870   20.954555 H          1 MOL1         0.0755
      11    H7      18.147319   19.558332   21.302282 H          1 MOL1         0.0755
      12    C5      18.875094   20.613690   23.067412 C.3        1 MOL1        -0.1855
      13    H8      18.099833   21.390472   23.022203 H          1 MOL1         0.0755
      14    H9      19.791152   21.120565   23.401361 H          1 MOL1         0.0755
      15    C6      18.437365   19.559914   24.123313 C.3        1 MOL1        -0.1958
      16    H10     18.000897   20.078075   24.984983 H          1 MOL1         0.0753
      17    H11     17.650533   18.915396   23.713061 H          1 MOL1         0.0753
      18    C7      19.560591   18.683001   24.673264 C.2        1 MOL1         0.6174
      19    O1      20.504377   19.225764   25.213923 O.co2      1 MOL1        -0.6695
      20    O2      19.439028   17.476666   24.588614 O.co2      1 MOL1        -0.6695
@<TRIPOS>BOND
    1     1     2    1
    2     1     3    1
    3     1     4    2
    4     4     5    1
    5     4     6    1
    6     6     7    1
    7     6     8    1
    8     6     9    1
    9     9    10    1
   10     9    11    1
   11     9    12    1
   12    12    13    1
   13    12    14    1
   14    12    15    1
   15    15    16    1
   16    15    17    1
   17    15    18    1
   18    18    19    1
   19    18    20    2
@<TRIPOS>SUBSTRUCTURE
       1 MOL1            1 RESIDUE      1      MOL     
@<SCITEGIC>MOL_PROPERTY
VM2 Rank
SciTegic.value.IntegerValue
60

@<SCITEGIC>MOL_PROPERTY
Conf_Id
SciTegic.value.IntegerValue
1140

@<SCITEGIC>MOL_PROPERTY
Probability
SciTegic.value.DoubleValue
0.02

@<SCITEGIC>MOL_PROPERTY
Sum Probability
SciTegic.value.DoubleValue
99.93

@<SCITEGIC>MOL_PROPERTY
Delta G
SciTegic.value.DoubleValue
3.755

@<SCITEGIC>MOL_PROPERTY
G
SciTegic.value.DoubleValue
-18.134

@<SCITEGIC>MOL_PROPERTY
E
SciTegic.value.DoubleValue
-33.648

@<SCITEGIC>MOL_PROPERTY
-TS
SciTegic.value.DoubleValue
15.514

@<SCITEGIC>MOL_PROPERTY
U+W
SciTegic.value.DoubleValue
-49.745

@<SCITEGIC>MOL_PROPERTY
U
SciTegic.value.DoubleValue
12.064

@<SCITEGIC>MOL_PROPERTY
W
SciTegic.value.DoubleValue
-61.809

@<SCITEGIC>MOL_PROPERTY
W(PB)
SciTegic.value.DoubleValue
-63.985

@<SCITEGIC>MOL_PROPERTY
W(SA)
SciTegic.value.DoubleValue
2.176

@<SCITEGIC>MOL_PROPERTY
Valence
SciTegic.value.DoubleValue
10.980

@<SCITEGIC>MOL_PROPERTY
Coulomb
SciTegic.value.DoubleValue
0.682

@<SCITEGIC>MOL_PROPERTY
VdW
SciTegic.value.DoubleValue
0.402

@<SCITEGIC>MOL_PROPERTY
VdW6
SciTegic.value.DoubleValue
-8.075

@<SCITEGIC>MOL_PROPERTY
VdW12
SciTegic.value.DoubleValue
8.477

@<SCITEGIC>MOL_PROPERTY
Bond
SciTegic.value.DoubleValue
0.169

@<SCITEGIC>MOL_PROPERTY
Angle
SciTegic.value.DoubleValue
3.169

@<SCITEGIC>MOL_PROPERTY
Pdih
SciTegic.value.DoubleValue
7.637

@<SCITEGIC>MOL_PROPERTY
Idih
SciTegic.value.DoubleValue
0.005

@<SCITEGIC>MOL_PROPERTY
Tether
SciTegic.value.DoubleValue
0.000

@<TRIPOS>MOLECULE
guest-s22_vm2.mol2 : vm2 ligand conformer 61
          20          19           1
SMALL
USER_CHARGES
 
@<TRIPOS>ATOM
       1    C1      20.710645   18.946630   19.406099 C.2        1 MOL1        -0.2535
       2    H1      21.290821   19.428063   18.620897 H          1 MOL1         0.0845
       3    H2      21.013172   17.943742   19.699341 H          1 MOL1         0.0845
       4    C2      19.671065   19.570428   19.970727 C.2        1 MOL1        -0.1324
       5    H3      19.408108   20.574079   19.637802 H          1 MOL1         0.0833
       6    C3      18.781877   19.022854   21.074990 C.3        1 MOL1        -0.1813
       7    H4      17.863964   18.624931   20.622779 H          1 MOL1         0.0753
       8    H5      18.443986   19.854341   21.706686 H          1 MOL1         0.0753
       9    C4      19.417616   17.935057   21.979592 C.3        1 MOL1        -0.1855
      10    H6      18.653750   17.574614   22.682037 H          1 MOL1         0.0755
      11    H7      19.689250   17.064730   21.367979 H          1 MOL1         0.0755
      12    C5      20.658248   18.403032   22.785003 C.3        1 MOL1        -0.1855
      13    H8      21.457971   18.697578   22.093453 H          1 MOL1         0.0755
      14    H9      21.048810   17.549692   23.356221 H          1 MOL1         0.0755
      15    C6      20.384510   19.574836   23.766976 C.3        1 MOL1        -0.1958
      16    H10     21.314004   19.838413   24.284793 H          1 MOL1         0.0753
      17    H11     20.070462   20.471011   23.219944 H          1 MOL1         0.0753
      18    C7      19.341613   19.262649   24.836244 C.2        1 MOL1         0.6174
      19    O1      19.651313   18.503316   25.733466 O.co2      1 MOL1        -0.6695
      20    O2      18.254113   19.799199   24.754903 O.co2      1 MOL1        -0.6695
@<TRIPOS>BOND
    1     1     2    1
    2     1     3    1
    3     1     4    2
    4     4     5    1
    5     4     6    1
    6     6     7    1
    7     6     8    1
    8     6     9    1
    9     9    10    1
   10     9    11    1
   11     9    12    1
   12    12    13    1
   13    12    14    1
   14    12    15    1
   15    15    16    1
   16    15    17    1
   17    15    18    1
   18    18    19    1
   19    18    20    2
@<TRIPOS>SUBSTRUCTURE
       1 MOL1            1 RESIDUE      1      MOL     
@<SCITEGIC>MOL_PROPERTY
VM2 Rank
SciTegic.value.IntegerValue
61

@<SCITEGIC>MOL_PROPERTY
Conf_Id
SciTegic.value.IntegerValue
768

@<SCITEGIC>MOL_PROPERTY
Probability
SciTegic.value.DoubleValue
0.02

@<SCITEGIC>MOL_PROPERTY
Sum Probability
SciTegic.value.DoubleValue
99.96

@<SCITEGIC>MOL_PROPERTY
Delta G
SciTegic.value.DoubleValue
3.788

@<SCITEGIC>MOL_PROPERTY
G
SciTegic.value.DoubleValue
-18.101

@<SCITEGIC>MOL_PROPERTY
E
SciTegic.value.DoubleValue
-33.959

@<SCITEGIC>MOL_PROPERTY
-TS
SciTegic.value.DoubleValue
15.857

@<SCITEGIC>MOL_PROPERTY
U+W
SciTegic.value.DoubleValue
-50.055

@<SCITEGIC>MOL_PROPERTY
U
SciTegic.value.DoubleValue
11.092

@<SCITEGIC>MOL_PROPERTY
W
SciTegic.value.DoubleValue
-61.147

@<SCITEGIC>MOL_PROPERTY
W(PB)
SciTegic.value.DoubleValue
-63.273

@<SCITEGIC>MOL_PROPERTY
W(SA)
SciTegic.value.DoubleValue
2.126

@<SCITEGIC>MOL_PROPERTY
Valence
SciTegic.value.DoubleValue
9.664

@<SCITEGIC>MOL_PROPERTY
Coulomb
SciTegic.value.DoubleValue
0.659

@<SCITEGIC>MOL_PROPERTY
VdW
SciTegic.value.DoubleValue
0.769

@<SCITEGIC>MOL_PROPERTY
VdW6
SciTegic.value.DoubleValue
-9.171

@<SCITEGIC>MOL_PROPERTY
VdW12
SciTegic.value.DoubleValue
9.940

@<SCITEGIC>MOL_PROPERTY
Bond
SciTegic.value.DoubleValue
0.244

@<SCITEGIC>MOL_PROPERTY
Angle
SciTegic.value.DoubleValue
3.658

@<SCITEGIC>MOL_PROPERTY
Pdih
SciTegic.value.DoubleValue
5.762

@<SCITEGIC>MOL_PROPERTY
Idih
SciTegic.value.DoubleValue
0.001

@<SCITEGIC>MOL_PROPERTY
Tether
SciTegic.value.DoubleValue
0.000

@<TRIPOS>MOLECULE
guest-s22_vm2.mol2 : vm2 ligand conformer 62
          20          19           1
SMALL
USER_CHARGES
 
@<TRIPOS>ATOM
       1    C1      20.484403   18.401060   19.395443 C.2        1 MOL1        -0.2535
       2    H1      20.564417   17.676529   18.587001 H          1 MOL1         0.0845
       3    H2      21.403771   18.885108   19.717559 H          1 MOL1         0.0845
       4    C2      19.300808   18.677769   19.953287 C.2        1 MOL1        -0.1324
       5    H3      18.409431   18.166338   19.591090 H          1 MOL1         0.0833
       6    C3      19.044947   19.656977   21.087120 C.3        1 MOL1        -0.1813
       7    H4      18.209137   19.288369   21.695504 H          1 MOL1         0.0753
       8    H5      18.684348   20.602343   20.660912 H          1 MOL1         0.0753
       9    C4      20.251374   19.944924   22.018459 C.3        1 MOL1        -0.1855
      10    H6      21.067589   20.387158   21.432331 H          1 MOL1         0.0755
      11    H7      19.957170   20.716665   22.742820 H          1 MOL1         0.0755
      12    C5      20.785495   18.710053   22.790903 C.3        1 MOL1        -0.1855
      13    H8      21.657487   19.017000   23.384562 H          1 MOL1         0.0755
      14    H9      21.151386   17.959035   22.079108 H          1 MOL1         0.0755
      15    C6      19.749391   18.044408   23.737330 C.3        1 MOL1        -0.1958
      16    H10     18.900742   17.652371   23.165400 H          1 MOL1         0.0753
      17    H11     20.212292   17.183418   24.233299 H          1 MOL1         0.0753
      18    C7      19.219178   18.967485   24.830594 C.2        1 MOL1         0.6174
      19    O1      19.962936   19.253950   25.748346 O.co2      1 MOL1        -0.6695
      20    O2      18.072469   19.361374   24.746518 O.co2      1 MOL1        -0.6695
@<TRIPOS>BOND
    1     1     2    1
    2     1     3    1
    3     1     4    2
    4     4     5    1
    5     4     6    1
    6     6     7    1
    7     6     8    1
    8     6     9    1
    9     9    10    1
   10     9    11    1
   11     9    12    1
   12    12    13    1
   13    12    14    1
   14    12    15    1
   15    15    16    1
   16    15    17    1
   17    15    18    1
   18    18    19    1
   19    18    20    2
@<TRIPOS>SUBSTRUCTURE
       1 MOL1            1 RESIDUE      1      MOL     
@<SCITEGIC>MOL_PROPERTY
VM2 Rank
SciTegic.value.IntegerValue
62

@<SCITEGIC>MOL_PROPERTY
Conf_Id
SciTegic.value.IntegerValue
535

@<SCITEGIC>MOL_PROPERTY
Probability
SciTegic.value.DoubleValue
0.02

@<SCITEGIC>MOL_PROPERTY
Sum Probability
SciTegic.value.DoubleValue
99.98

@<SCITEGIC>MOL_PROPERTY
Delta G
SciTegic.value.DoubleValue
3.790

@<SCITEGIC>MOL_PROPERTY
G
SciTegic.value.DoubleValue
-18.100

@<SCITEGIC>MOL_PROPERTY
E
SciTegic.value.DoubleValue
-33.957

@<SCITEGIC>MOL_PROPERTY
-TS
SciTegic.value.DoubleValue
15.857

@<SCITEGIC>MOL_PROPERTY
U+W
SciTegic.value.DoubleValue
-50.053

@<SCITEGIC>MOL_PROPERTY
U
SciTegic.value.DoubleValue
11.091

@<SCITEGIC>MOL_PROPERTY
W
SciTegic.value.DoubleValue
-61.144

@<SCITEGIC>MOL_PROPERTY
W(PB)
SciTegic.value.DoubleValue
-63.247

@<SCITEGIC>MOL_PROPERTY
W(SA)
SciTegic.value.DoubleValue
2.103

@<SCITEGIC>MOL_PROPERTY
Valence
SciTegic.value.DoubleValue
9.664

@<SCITEGIC>MOL_PROPERTY
Coulomb
SciTegic.value.DoubleValue
0.658

@<SCITEGIC>MOL_PROPERTY
VdW
SciTegic.value.DoubleValue
0.769

@<SCITEGIC>MOL_PROPERTY
VdW6
SciTegic.value.DoubleValue
-9.171

@<SCITEGIC>MOL_PROPERTY
VdW12
SciTegic.value.DoubleValue
9.940

@<SCITEGIC>MOL_PROPERTY
Bond
SciTegic.value.DoubleValue
0.244

@<SCITEGIC>MOL_PROPERTY
Angle
SciTegic.value.DoubleValue
3.658

@<SCITEGIC>MOL_PROPERTY
Pdih
SciTegic.value.DoubleValue
5.762

@<SCITEGIC>MOL_PROPERTY
Idih
SciTegic.value.DoubleValue
0.001

@<SCITEGIC>MOL_PROPERTY
Tether
SciTegic.value.DoubleValue
0.000

@<TRIPOS>MOLECULE
guest-s22_vm2.mol2 : vm2 ligand conformer 63
          20          19           1
SMALL
USER_CHARGES
 
@<TRIPOS>ATOM
       1    C1      21.228329   17.909400   20.295444 C.2        1 MOL1        -0.2535
       2    H1      20.661417   17.023537   20.014043 H          1 MOL1         0.0845
       3    H2      22.308456   17.806723   20.383520 H          1 MOL1         0.0845
       4    C2      20.624347   19.076947   20.531033 C.2        1 MOL1        -0.1324
       5    H3      21.209584   19.953855   20.805637 H          1 MOL1         0.0833
       6    C3      19.132094   19.296279   20.417855 C.3        1 MOL1        -0.1813
       7    H4      18.715068   18.577360   19.699716 H          1 MOL1         0.0753
       8    H5      18.933025   20.291087   19.997644 H          1 MOL1         0.0753
       9    C4      18.379119   19.135733   21.761323 C.3        1 MOL1        -0.1855
      10    H6      17.303025   19.170211   21.543358 H          1 MOL1         0.0755
      11    H7      18.568591   18.138977   22.182906 H          1 MOL1         0.0755
      12    C5      18.690364   20.238464   22.806463 C.3        1 MOL1        -0.1855
      13    H8      17.809396   20.373698   23.449287 H          1 MOL1         0.0755
      14    H9      18.841881   21.198935   22.295873 H          1 MOL1         0.0755
      15    C6      19.909215   19.932780   23.720277 C.3        1 MOL1        -0.1958
      16    H10     20.806323   19.729785   23.127112 H          1 MOL1         0.0753
      17    H11     20.132202   20.814249   24.332507 H          1 MOL1         0.0753
      18    C7      19.686991   18.765944   24.679188 C.2        1 MOL1         0.6174
      19    O1      20.297191   17.733046   24.485638 O.co2      1 MOL1        -0.6695
      20    O2      18.923350   18.929407   25.610778 O.co2      1 MOL1        -0.6695
@<TRIPOS>BOND
    1     1     2    1
    2     1     3    1
    3     1     4    2
    4     4     5    1
    5     4     6    1
    6     6     7    1
    7     6     8    1
    8     6     9    1
    9     9    10    1
   10     9    11    1
   11     9    12    1
   12    12    13    1
   13    12    14    1
   14    12    15    1
   15    15    16    1
   16    15    17    1
   17    15    18    1
   18    18    19    1
   19    18    20    2
@<TRIPOS>SUBSTRUCTURE
       1 MOL1            1 RESIDUE      1      MOL     
@<SCITEGIC>MOL_PROPERTY
VM2 Rank
SciTegic.value.IntegerValue
63

@<SCITEGIC>MOL_PROPERTY
Conf_Id
SciTegic.value.IntegerValue
121

@<SCITEGIC>MOL_PROPERTY
Probability
SciTegic.value.DoubleValue
0.00

@<SCITEGIC>MOL_PROPERTY
Sum Probability
SciTegic.value.DoubleValue
99.98

@<SCITEGIC>MOL_PROPERTY
Delta G
SciTegic.value.DoubleValue
4.990

@<SCITEGIC>MOL_PROPERTY
G
SciTegic.value.DoubleValue
-16.900

@<SCITEGIC>MOL_PROPERTY
E
SciTegic.value.DoubleValue
-32.119

@<SCITEGIC>MOL_PROPERTY
-TS
SciTegic.value.DoubleValue
15.219

@<SCITEGIC>MOL_PROPERTY
U+W
SciTegic.value.DoubleValue
-48.215

@<SCITEGIC>MOL_PROPERTY
U
SciTegic.value.DoubleValue
14.182

@<SCITEGIC>MOL_PROPERTY
W
SciTegic.value.DoubleValue
-62.397

@<SCITEGIC>MOL_PROPERTY
W(PB)
SciTegic.value.DoubleValue
-64.547

@<SCITEGIC>MOL_PROPERTY
W(SA)
SciTegic.value.DoubleValue
2.150

@<SCITEGIC>MOL_PROPERTY
Valence
SciTegic.value.DoubleValue
11.820

@<SCITEGIC>MOL_PROPERTY
Coulomb
SciTegic.value.DoubleValue
2.077

@<SCITEGIC>MOL_PROPERTY
VdW
SciTegic.value.DoubleValue
0.285

@<SCITEGIC>MOL_PROPERTY
VdW6
SciTegic.value.DoubleValue
-8.249

@<SCITEGIC>MOL_PROPERTY
VdW12
SciTegic.value.DoubleValue
8.533

@<SCITEGIC>MOL_PROPERTY
Bond
SciTegic.value.DoubleValue
0.194

@<SCITEGIC>MOL_PROPERTY
Angle
SciTegic.value.DoubleValue
3.123

@<SCITEGIC>MOL_PROPERTY
Pdih
SciTegic.value.DoubleValue
8.501

@<SCITEGIC>MOL_PROPERTY
Idih
SciTegic.value.DoubleValue
0.002

@<SCITEGIC>MOL_PROPERTY
Tether
SciTegic.value.DoubleValue
0.000

@<TRIPOS>MOLECULE
guest-s22_vm2.mol2 : vm2 ligand conformer 64
          20          19           1
SMALL
USER_CHARGES
 
@<TRIPOS>ATOM
       1    C1      21.502534   18.317526   20.339877 C.2        1 MOL1        -0.2535
       2    H1      22.127377   19.204924   20.253691 H          1 MOL1         0.0845
       3    H2      22.001440   17.350048   20.332454 H          1 MOL1         0.0845
       4    C2      20.175376   18.409006   20.457093 C.2        1 MOL1        -0.1324
       5    H3      19.566469   17.509078   20.536084 H          1 MOL1         0.0833
       6    C3      19.414086   19.715958   20.464034 C.3        1 MOL1        -0.1813
       7    H4      18.466941   19.597753   19.921088 H          1 MOL1         0.0753
       8    H5      19.987241   20.470484   19.908461 H          1 MOL1         0.0753
       9    C4      19.137176   20.263534   21.885698 C.3        1 MOL1        -0.1855
      10    H6      20.082299   20.391152   22.431237 H          1 MOL1         0.0755
      11    H7      18.715445   21.271814   21.775282 H          1 MOL1         0.0755
      12    C5      18.138104   19.416119   22.715725 C.3        1 MOL1        -0.1855
      13    H8      17.366109   19.001843   22.053484 H          1 MOL1         0.0755
      14    H9      17.611221   20.078536   23.416590 H          1 MOL1         0.0755
      15    C6      18.793203   18.271469   23.537135 C.3        1 MOL1        -0.1958
      16    H10     18.007342   17.651319   23.983648 H          1 MOL1         0.0753
      17    H11     19.383554   17.611670   22.893700 H          1 MOL1         0.0753
      18    C7      19.682007   18.758797   24.678598 C.2        1 MOL1         0.6174
      19    O1      20.883749   18.606322   24.582417 O.co2      1 MOL1        -0.6695
      20    O2      19.144764   19.259269   25.647423 O.co2      1 MOL1        -0.6695
@<TRIPOS>BOND
    1     1     2    1
    2     1     3    1
    3     1     4    2
    4     4     5    1
    5     4     6    1
    6     6     7    1
    7     6     8    1
    8     6     9    1
    9     9    10    1
   10     9    11    1
   11     9    12    1
   12    12    13    1
   13    12    14    1
   14    12    15    1
   15    15    16    1
   16    15    17    1
   17    15    18    1
   18    18    19    1
   19    18    20    2
@<TRIPOS>SUBSTRUCTURE
       1 MOL1            1 RESIDUE      1      MOL     
@<SCITEGIC>MOL_PROPERTY
VM2 Rank
SciTegic.value.IntegerValue
64

@<SCITEGIC>MOL_PROPERTY
Conf_Id
SciTegic.value.IntegerValue
466

@<SCITEGIC>MOL_PROPERTY
Probability
SciTegic.value.DoubleValue
0.00

@<SCITEGIC>MOL_PROPERTY
Sum Probability
SciTegic.value.DoubleValue
99.99

@<SCITEGIC>MOL_PROPERTY
Delta G
SciTegic.value.DoubleValue
5.000

@<SCITEGIC>MOL_PROPERTY
G
SciTegic.value.DoubleValue
-16.890

@<SCITEGIC>MOL_PROPERTY
E
SciTegic.value.DoubleValue
-32.109

@<SCITEGIC>MOL_PROPERTY
-TS
SciTegic.value.DoubleValue
15.219

@<SCITEGIC>MOL_PROPERTY
U+W
SciTegic.value.DoubleValue
-48.205

@<SCITEGIC>MOL_PROPERTY
U
SciTegic.value.DoubleValue
14.180

@<SCITEGIC>MOL_PROPERTY
W
SciTegic.value.DoubleValue
-62.385

@<SCITEGIC>MOL_PROPERTY
W(PB)
SciTegic.value.DoubleValue
-64.531

@<SCITEGIC>MOL_PROPERTY
W(SA)
SciTegic.value.DoubleValue
2.146

@<SCITEGIC>MOL_PROPERTY
Valence
SciTegic.value.DoubleValue
11.821

@<SCITEGIC>MOL_PROPERTY
Coulomb
SciTegic.value.DoubleValue
2.074

@<SCITEGIC>MOL_PROPERTY
VdW
SciTegic.value.DoubleValue
0.285

@<SCITEGIC>MOL_PROPERTY
VdW6
SciTegic.value.DoubleValue
-8.248

@<SCITEGIC>MOL_PROPERTY
VdW12
SciTegic.value.DoubleValue
8.533

@<SCITEGIC>MOL_PROPERTY
Bond
SciTegic.value.DoubleValue
0.194

@<SCITEGIC>MOL_PROPERTY
Angle
SciTegic.value.DoubleValue
3.122

@<SCITEGIC>MOL_PROPERTY
Pdih
SciTegic.value.DoubleValue
8.503

@<SCITEGIC>MOL_PROPERTY
Idih
SciTegic.value.DoubleValue
0.002

@<SCITEGIC>MOL_PROPERTY
Tether
SciTegic.value.DoubleValue
0.000

@<TRIPOS>MOLECULE
guest-s22_vm2.mol2 : vm2 ligand conformer 65
          20          19           1
SMALL
USER_CHARGES
 
@<TRIPOS>ATOM
       1    C1      18.985412   19.392985   19.449314 C.2        1 MOL1        -0.2535
       2    H1      19.814420   19.446795   18.745569 H          1 MOL1         0.0845
       3    H2      17.981166   19.316132   19.036181 H          1 MOL1         0.0845
       4    C2      19.188485   19.417057   20.769182 C.2        1 MOL1        -0.1324
       5    H3      18.344650   19.365240   21.457219 H          1 MOL1         0.0833
       6    C3      20.552753   19.528622   21.415524 C.3        1 MOL1        -0.1813
       7    H4      20.520618   20.248857   22.241855 H          1 MOL1         0.0753
       8    H5      21.270334   19.938244   20.692026 H          1 MOL1         0.0753
       9    C4      21.084509   18.163789   21.912886 C.3        1 MOL1        -0.1855
      10    H6      21.187411   17.496513   21.046171 H          1 MOL1         0.0755
      11    H7      22.098268   18.298512   22.313758 H          1 MOL1         0.0755
      12    C5      20.205935   17.456545   22.977481 C.3        1 MOL1        -0.1855
      13    H8      20.626342   16.455243   23.141595 H          1 MOL1         0.0755
      14    H9      19.190568   17.293539   22.591102 H          1 MOL1         0.0755
      15    C6      20.142348   18.178026   24.353055 C.3        1 MOL1        -0.1958
      16    H10     19.833178   17.457536   25.119117 H          1 MOL1         0.0753
      17    H11     21.137971   18.535317   24.642431 H          1 MOL1         0.0753
      18    C7      19.154386   19.339887   24.433547 C.2        1 MOL1         0.6174
      19    O1      19.583095   20.436988   24.733666 O.co2      1 MOL1        -0.6695
      20    O2      17.974076   19.104100   24.263346 O.co2      1 MOL1        -0.6695
@<TRIPOS>BOND
    1     1     2    1
    2     1     3    1
    3     1     4    2
    4     4     5    1
    5     4     6    1
    6     6     7    1
    7     6     8    1
    8     6     9    1
    9     9    10    1
   10     9    11    1
   11     9    12    1
   12    12    13    1
   13    12    14    1
   14    12    15    1
   15    15    16    1
   16    15    17    1
   17    15    18    1
   18    18    19    1
   19    18    20    2
@<TRIPOS>SUBSTRUCTURE
       1 MOL1            1 RESIDUE      1      MOL     
@<SCITEGIC>MOL_PROPERTY
VM2 Rank
SciTegic.value.IntegerValue
65

@<SCITEGIC>MOL_PROPERTY
Conf_Id
SciTegic.value.IntegerValue
724

@<SCITEGIC>MOL_PROPERTY
Probability
SciTegic.value.DoubleValue
0.00

@<SCITEGIC>MOL_PROPERTY
Sum Probability
SciTegic.value.DoubleValue
99.99

@<SCITEGIC>MOL_PROPERTY
Delta G
SciTegic.value.DoubleValue
5.037

@<SCITEGIC>MOL_PROPERTY
G
SciTegic.value.DoubleValue
-16.853

@<SCITEGIC>MOL_PROPERTY
E
SciTegic.value.DoubleValue
-33.005

@<SCITEGIC>MOL_PROPERTY
-TS
SciTegic.value.DoubleValue
16.153

@<SCITEGIC>MOL_PROPERTY
U+W
SciTegic.value.DoubleValue
-49.102

@<SCITEGIC>MOL_PROPERTY
U
SciTegic.value.DoubleValue
13.082

@<SCITEGIC>MOL_PROPERTY
W
SciTegic.value.DoubleValue
-62.184

@<SCITEGIC>MOL_PROPERTY
W(PB)
SciTegic.value.DoubleValue
-64.301

@<SCITEGIC>MOL_PROPERTY
W(SA)
SciTegic.value.DoubleValue
2.117

@<SCITEGIC>MOL_PROPERTY
Valence
SciTegic.value.DoubleValue
11.308

@<SCITEGIC>MOL_PROPERTY
Coulomb
SciTegic.value.DoubleValue
1.655

@<SCITEGIC>MOL_PROPERTY
VdW
SciTegic.value.DoubleValue
0.119

@<SCITEGIC>MOL_PROPERTY
VdW6
SciTegic.value.DoubleValue
-9.163

@<SCITEGIC>MOL_PROPERTY
VdW12
SciTegic.value.DoubleValue
9.282

@<SCITEGIC>MOL_PROPERTY
Bond
SciTegic.value.DoubleValue
0.195

@<SCITEGIC>MOL_PROPERTY
Angle
SciTegic.value.DoubleValue
3.447

@<SCITEGIC>MOL_PROPERTY
Pdih
SciTegic.value.DoubleValue
7.656

@<SCITEGIC>MOL_PROPERTY
Idih
SciTegic.value.DoubleValue
0.011

@<SCITEGIC>MOL_PROPERTY
Tether
SciTegic.value.DoubleValue
0.000

@<TRIPOS>MOLECULE
guest-s22_vm2.mol2 : vm2 ligand conformer 66
          20          19           1
SMALL
USER_CHARGES
 
@<TRIPOS>ATOM
       1    C1      20.252444   17.758162   19.657338 C.2        1 MOL1        -0.2535
       2    H1      20.602874   18.429432   18.875034 H          1 MOL1         0.0845
       3    H2      19.970999   16.748626   19.362851 H          1 MOL1         0.0845
       4    C2      20.166631   18.154883   20.929783 C.2        1 MOL1        -0.1324
       5    H3      19.816212   17.466456   21.698816 H          1 MOL1         0.0833
       6    C3      20.545426   19.538042   21.414358 C.3        1 MOL1        -0.1813
       7    H4      21.210853   20.015005   20.682324 H          1 MOL1         0.0753
       8    H5      21.126796   19.466565   22.341447 H          1 MOL1         0.0753
       9    C4      19.313012   20.449590   21.622046 C.3        1 MOL1        -0.1855
      10    H6      19.653832   21.452618   21.912450 H          1 MOL1         0.0755
      11    H7      18.805510   20.569975   20.655097 H          1 MOL1         0.0755
      12    C5      18.279289   19.942493   22.661138 C.3        1 MOL1        -0.1855
      13    H8      17.909212   18.946888   22.380696 H          1 MOL1         0.0755
      14    H9      17.407386   20.608639   22.613026 H          1 MOL1         0.0755
      15    C6      18.786750   19.927105   24.130502 C.3        1 MOL1        -0.1958
      16    H10     19.349839   20.842478   24.348875 H          1 MOL1         0.0753
      17    H11     17.923091   19.922038   24.805490 H          1 MOL1         0.0753
      18    C7      19.636862   18.717321   24.512872 C.2        1 MOL1         0.6174
      19    O1      20.762221   18.915580   24.927307 O.co2      1 MOL1        -0.6695
      20    O2      19.128365   17.614823   24.452657 O.co2      1 MOL1        -0.6695
@<TRIPOS>BOND
    1     1     2    1
    2     1     3    1
    3     1     4    2
    4     4     5    1
    5     4     6    1
    6     6     7    1
    7     6     8    1
    8     6     9    1
    9     9    10    1
   10     9    11    1
   11     9    12    1
   12    12    13    1
   13    12    14    1
   14    12    15    1
   15    15    16    1
   16    15    17    1
   17    15    18    1
   18    18    19    1
   19    18    20    2
@<TRIPOS>SUBSTRUCTURE
       1 MOL1            1 RESIDUE      1      MOL     
@<SCITEGIC>MOL_PROPERTY
VM2 Rank
SciTegic.value.IntegerValue
66

@<SCITEGIC>MOL_PROPERTY
Conf_Id
SciTegic.value.IntegerValue
925

@<SCITEGIC>MOL_PROPERTY
Probability
SciTegic.value.DoubleValue
0.00

@<SCITEGIC>MOL_PROPERTY
Sum Probability
SciTegic.value.DoubleValue
99.99

@<SCITEGIC>MOL_PROPERTY
Delta G
SciTegic.value.DoubleValue
5.105

@<SCITEGIC>MOL_PROPERTY
G
SciTegic.value.DoubleValue
-16.785

@<SCITEGIC>MOL_PROPERTY
E
SciTegic.value.DoubleValue
-32.937

@<SCITEGIC>MOL_PROPERTY
-TS
SciTegic.value.DoubleValue
16.152

@<SCITEGIC>MOL_PROPERTY
U+W
SciTegic.value.DoubleValue
-49.033

@<SCITEGIC>MOL_PROPERTY
U
SciTegic.value.DoubleValue
13.083

@<SCITEGIC>MOL_PROPERTY
W
SciTegic.value.DoubleValue
-62.117

@<SCITEGIC>MOL_PROPERTY
W(PB)
SciTegic.value.DoubleValue
-64.210

@<SCITEGIC>MOL_PROPERTY
W(SA)
SciTegic.value.DoubleValue
2.094

@<SCITEGIC>MOL_PROPERTY
Valence
SciTegic.value.DoubleValue
11.308

@<SCITEGIC>MOL_PROPERTY
Coulomb
SciTegic.value.DoubleValue
1.656

@<SCITEGIC>MOL_PROPERTY
VdW
SciTegic.value.DoubleValue
0.119

@<SCITEGIC>MOL_PROPERTY
VdW6
SciTegic.value.DoubleValue
-9.164

@<SCITEGIC>MOL_PROPERTY
VdW12
SciTegic.value.DoubleValue
9.283

@<SCITEGIC>MOL_PROPERTY
Bond
SciTegic.value.DoubleValue
0.195

@<SCITEGIC>MOL_PROPERTY
Angle
SciTegic.value.DoubleValue
3.447

@<SCITEGIC>MOL_PROPERTY
Pdih
SciTegic.value.DoubleValue
7.656

@<SCITEGIC>MOL_PROPERTY
Idih
SciTegic.value.DoubleValue
0.011

@<SCITEGIC>MOL_PROPERTY
Tether
SciTegic.value.DoubleValue
0.000

@<TRIPOS>MOLECULE
guest-s22_vm2.mol2 : vm2 ligand conformer 67
          20          19           1
SMALL
USER_CHARGES
 
@<TRIPOS>ATOM
       1    C1      21.139577   17.935471   20.328247 C.2        1 MOL1        -0.2535
       2    H1      22.121086   17.516680   20.543281 H          1 MOL1         0.0845
       3    H2      20.471724   17.350172   19.698470 H          1 MOL1         0.0845
       4    C2      20.772052   19.120431   20.823663 C.2        1 MOL1        -0.1324
       5    H3      21.453656   19.686197   21.458780 H          1 MOL1         0.0833
       6    C3      19.423410   19.761279   20.577846 C.3        1 MOL1        -0.1813
       7    H4      18.795771   19.121393   19.943133 H          1 MOL1         0.0753
       8    H5      19.583072   20.690397   20.014857 H          1 MOL1         0.0753
       9    C4      18.662264   20.117285   21.878850 C.3        1 MOL1        -0.1855
      10    H6      19.309945   20.699850   22.548200 H          1 MOL1         0.0755
      11    H7      17.835839   20.787415   21.605579 H          1 MOL1         0.0755
      12    C5      18.053970   18.905012   22.631169 C.3        1 MOL1        -0.1855
      13    H8      17.538556   18.251111   21.915029 H          1 MOL1         0.0755
      14    H9      17.279304   19.274901   23.317089 H          1 MOL1         0.0755
      15    C6      19.067713   18.068643   23.459372 C.3        1 MOL1        -0.1958
      16    H10     18.544732   17.223516   23.921637 H          1 MOL1         0.0753
      17    H11     19.839051   17.636288   22.814858 H          1 MOL1         0.0753
      18    C7      19.746658   18.846675   24.583453 C.2        1 MOL1         0.6174
      19    O1      20.924716   19.122312   24.468434 O.co2      1 MOL1        -0.6695
      20    O2      19.080641   19.140890   25.556966 O.co2      1 MOL1        -0.6695
@<TRIPOS>BOND
    1     1     2    1
    2     1     3    1
    3     1     4    2
    4     4     5    1
    5     4     6    1
    6     6     7    1
    7     6     8    1
    8     6     9    1
    9     9    10    1
   10     9    11    1
   11     9    12    1
   12    12    13    1
   13    12    14    1
   14    12    15    1
   15    15    16    1
   16    15    17    1
   17    15    18    1
   18    18    19    1
   19    18    20    2
@<TRIPOS>SUBSTRUCTURE
       1 MOL1            1 RESIDUE      1      MOL     
@<SCITEGIC>MOL_PROPERTY
VM2 Rank
SciTegic.value.IntegerValue
67

@<SCITEGIC>MOL_PROPERTY
Conf_Id
SciTegic.value.IntegerValue
860

@<SCITEGIC>MOL_PROPERTY
Probability
SciTegic.value.DoubleValue
0.00

@<SCITEGIC>MOL_PROPERTY
Sum Probability
SciTegic.value.DoubleValue
99.99

@<SCITEGIC>MOL_PROPERTY
Delta G
SciTegic.value.DoubleValue
5.331

@<SCITEGIC>MOL_PROPERTY
G
SciTegic.value.DoubleValue
-16.559

@<SCITEGIC>MOL_PROPERTY
E
SciTegic.value.DoubleValue
-32.231

@<SCITEGIC>MOL_PROPERTY
-TS
SciTegic.value.DoubleValue
15.672

@<SCITEGIC>MOL_PROPERTY
U+W
SciTegic.value.DoubleValue
-48.327

@<SCITEGIC>MOL_PROPERTY
U
SciTegic.value.DoubleValue
13.663

@<SCITEGIC>MOL_PROPERTY
W
SciTegic.value.DoubleValue
-61.990

@<SCITEGIC>MOL_PROPERTY
W(PB)
SciTegic.value.DoubleValue
-64.088

@<SCITEGIC>MOL_PROPERTY
W(SA)
SciTegic.value.DoubleValue
2.098

@<SCITEGIC>MOL_PROPERTY
Valence
SciTegic.value.DoubleValue
11.349

@<SCITEGIC>MOL_PROPERTY
Coulomb
SciTegic.value.DoubleValue
2.220

@<SCITEGIC>MOL_PROPERTY
VdW
SciTegic.value.DoubleValue
0.093

@<SCITEGIC>MOL_PROPERTY
VdW6
SciTegic.value.DoubleValue
-8.851

@<SCITEGIC>MOL_PROPERTY
VdW12
SciTegic.value.DoubleValue
8.944

@<SCITEGIC>MOL_PROPERTY
Bond
SciTegic.value.DoubleValue
0.196

@<SCITEGIC>MOL_PROPERTY
Angle
SciTegic.value.DoubleValue
3.358

@<SCITEGIC>MOL_PROPERTY
Pdih
SciTegic.value.DoubleValue
7.794

@<SCITEGIC>MOL_PROPERTY
Idih
SciTegic.value.DoubleValue
0.001

@<SCITEGIC>MOL_PROPERTY
Tether
SciTegic.value.DoubleValue
0.000

@<TRIPOS>MOLECULE
guest-s22_vm2.mol2 : vm2 ligand conformer 68
          20          19           1
SMALL
USER_CHARGES
 
@<TRIPOS>ATOM
       1    C1      19.587857   17.467480   20.127738 C.2        1 MOL1        -0.2535
       2    H1      20.591387   17.386536   19.713492 H          1 MOL1         0.0845
       3    H2      18.975258   16.567690   20.137104 H          1 MOL1         0.0845
       4    C2      19.122998   18.623025   20.610714 C.2        1 MOL1        -0.1324
       5    H3      18.117824   18.679759   21.028391 H          1 MOL1         0.0833
       6    C3      19.917598   19.910507   20.641530 C.3        1 MOL1        -0.1813
       7    H4      19.413904   20.639621   19.993150 H          1 MOL1         0.0753
       8    H5      20.919603   19.762382   20.216922 H          1 MOL1         0.0753
       9    C4      20.033956   20.530961   22.055813 C.3        1 MOL1        -0.1855
      10    H6      20.398467   21.560319   21.936306 H          1 MOL1         0.0755
      11    H7      19.038956   20.617989   22.513307 H          1 MOL1         0.0755
      12    C5      21.009085   19.796123   23.012240 C.3        1 MOL1        -0.1855
      13    H8      21.272217   20.478921   23.831970 H          1 MOL1         0.0755
      14    H9      21.947180   19.580527   22.483475 H          1 MOL1         0.0755
      15    C6      20.454821   18.486928   23.638266 C.3        1 MOL1        -0.1958
      16    H10     20.218663   17.750844   22.863863 H          1 MOL1         0.0753
      17    H11     21.228832   18.032826   24.267659 H          1 MOL1         0.0753
      18    C7      19.222458   18.688608   24.516027 C.2        1 MOL1         0.6174
      19    O1      19.372464   19.228377   25.594923 O.co2      1 MOL1        -0.6695
      20    O2      18.149763   18.285992   24.110749 O.co2      1 MOL1        -0.6695
@<TRIPOS>BOND
    1     1     2    1
    2     1     3    1
    3     1     4    2
    4     4     5    1
    5     4     6    1
    6     6     7    1
    7     6     8    1
    8     6     9    1
    9     9    10    1
   10     9    11    1
   11     9    12    1
   12    12    13    1
   13    12    14    1
   14    12    15    1
   15    15    16    1
   16    15    17    1
   17    15    18    1
   18    18    19    1
   19    18    20    2
@<TRIPOS>SUBSTRUCTURE
       1 MOL1            1 RESIDUE      1      MOL     
@<SCITEGIC>MOL_PROPERTY
VM2 Rank
SciTegic.value.IntegerValue
68

@<SCITEGIC>MOL_PROPERTY
Conf_Id
SciTegic.value.IntegerValue
1135

@<SCITEGIC>MOL_PROPERTY
Probability
SciTegic.value.DoubleValue
0.00

@<SCITEGIC>MOL_PROPERTY
Sum Probability
SciTegic.value.DoubleValue
100.00

@<SCITEGIC>MOL_PROPERTY
Delta G
SciTegic.value.DoubleValue
5.360

@<SCITEGIC>MOL_PROPERTY
G
SciTegic.value.DoubleValue
-16.530

@<SCITEGIC>MOL_PROPERTY
E
SciTegic.value.DoubleValue
-32.201

@<SCITEGIC>MOL_PROPERTY
-TS
SciTegic.value.DoubleValue
15.671

@<SCITEGIC>MOL_PROPERTY
U+W
SciTegic.value.DoubleValue
-48.298

@<SCITEGIC>MOL_PROPERTY
U
SciTegic.value.DoubleValue
13.662

@<SCITEGIC>MOL_PROPERTY
W
SciTegic.value.DoubleValue
-61.959

@<SCITEGIC>MOL_PROPERTY
W(PB)
SciTegic.value.DoubleValue
-64.071

@<SCITEGIC>MOL_PROPERTY
W(SA)
SciTegic.value.DoubleValue
2.112

@<SCITEGIC>MOL_PROPERTY
Valence
SciTegic.value.DoubleValue
11.349

@<SCITEGIC>MOL_PROPERTY
Coulomb
SciTegic.value.DoubleValue
2.219

@<SCITEGIC>MOL_PROPERTY
VdW
SciTegic.value.DoubleValue
0.094

@<SCITEGIC>MOL_PROPERTY
VdW6
SciTegic.value.DoubleValue
-8.850

@<SCITEGIC>MOL_PROPERTY
VdW12
SciTegic.value.DoubleValue
8.944

@<SCITEGIC>MOL_PROPERTY
Bond
SciTegic.value.DoubleValue
0.196

@<SCITEGIC>MOL_PROPERTY
Angle
SciTegic.value.DoubleValue
3.357

@<SCITEGIC>MOL_PROPERTY
Pdih
SciTegic.value.DoubleValue
7.795

@<SCITEGIC>MOL_PROPERTY
Idih
SciTegic.value.DoubleValue
0.001

@<SCITEGIC>MOL_PROPERTY
Tether
SciTegic.value.DoubleValue
0.000

@<TRIPOS>MOLECULE
guest-s22_vm2.mol2 : vm2 ligand conformer 69
          20          19           1
SMALL
USER_CHARGES
 
@<TRIPOS>ATOM
       1    C1      21.179999   19.347176   20.237234 C.2        1 MOL1        -0.2535
       2    H1      22.113762   19.868251   20.033769 H          1 MOL1         0.0845
       3    H2      21.116567   18.306087   19.928316 H          1 MOL1         0.0845
       4    C2      20.162091   19.972823   20.837910 C.2        1 MOL1        -0.1324
       5    H3      20.273856   21.016329   21.131101 H          1 MOL1         0.0833
       6    C3      18.816832   19.360331   21.188101 C.3        1 MOL1        -0.1813
       7    H4      18.116297   19.549411   20.364191 H          1 MOL1         0.0753
       8    H5      18.391928   19.897432   22.044295 H          1 MOL1         0.0753
       9    C4      18.837460   17.843881   21.508103 C.3        1 MOL1        -0.1855
      10    H6      17.808639   17.507684   21.695074 H          1 MOL1         0.0755
      11    H7      19.169094   17.295039   20.616962 H          1 MOL1         0.0755
      12    C5      19.726114   17.435146   22.712374 C.3        1 MOL1        -0.1855
      13    H8      20.759705   17.775051   22.562076 H          1 MOL1         0.0755
      14    H9      19.771718   16.338057   22.733466 H          1 MOL1         0.0755
      15    C6      19.207916   17.917521   24.096408 C.3        1 MOL1        -0.1958
      16    H10     18.121171   17.787352   24.164289 H          1 MOL1         0.0753
      17    H11     19.647886   17.289151   24.879467 H          1 MOL1         0.0753
      18    C7      19.559848   19.359716   24.455727 C.2        1 MOL1         0.6174
      19    O1      20.731783   19.643847   24.608781 O.co2      1 MOL1        -0.6695
      20    O2      18.648957   20.137560   24.663362 O.co2      1 MOL1        -0.6695
@<TRIPOS>BOND
    1     1     2    1
    2     1     3    1
    3     1     4    2
    4     4     5    1
    5     4     6    1
    6     6     7    1
    7     6     8    1
    8     6     9    1
    9     9    10    1
   10     9    11    1
   11     9    12    1
   12    12    13    1
   13    12    14    1
   14    12    15    1
   15    15    16    1
   16    15    17    1
   17    15    18    1
   18    18    19    1
   19    18    20    2
@<TRIPOS>SUBSTRUCTURE
       1 MOL1            1 RESIDUE      1      MOL     
@<SCITEGIC>MOL_PROPERTY
VM2 Rank
SciTegic.value.IntegerValue
69

@<SCITEGIC>MOL_PROPERTY
Conf_Id
SciTegic.value.IntegerValue
343

@<SCITEGIC>MOL_PROPERTY
Probability
SciTegic.value.DoubleValue
0.00

@<SCITEGIC>MOL_PROPERTY
Sum Probability
SciTegic.value.DoubleValue
100.00

@<SCITEGIC>MOL_PROPERTY
Delta G
SciTegic.value.DoubleValue
5.388

@<SCITEGIC>MOL_PROPERTY
G
SciTegic.value.DoubleValue
-16.502

@<SCITEGIC>MOL_PROPERTY
E
SciTegic.value.DoubleValue
-32.129

@<SCITEGIC>MOL_PROPERTY
-TS
SciTegic.value.DoubleValue
15.627

@<SCITEGIC>MOL_PROPERTY
U+W
SciTegic.value.DoubleValue
-48.225

@<SCITEGIC>MOL_PROPERTY
U
SciTegic.value.DoubleValue
14.666

@<SCITEGIC>MOL_PROPERTY
W
SciTegic.value.DoubleValue
-62.891

@<SCITEGIC>MOL_PROPERTY
W(PB)
SciTegic.value.DoubleValue
-64.994

@<SCITEGIC>MOL_PROPERTY
W(SA)
SciTegic.value.DoubleValue
2.103

@<SCITEGIC>MOL_PROPERTY
Valence
SciTegic.value.DoubleValue
11.117

@<SCITEGIC>MOL_PROPERTY
Coulomb
SciTegic.value.DoubleValue
3.067

@<SCITEGIC>MOL_PROPERTY
VdW
SciTegic.value.DoubleValue
0.482

@<SCITEGIC>MOL_PROPERTY
VdW6
SciTegic.value.DoubleValue
-9.661

@<SCITEGIC>MOL_PROPERTY
VdW12
SciTegic.value.DoubleValue
10.143

@<SCITEGIC>MOL_PROPERTY
Bond
SciTegic.value.DoubleValue
0.245

@<SCITEGIC>MOL_PROPERTY
Angle
SciTegic.value.DoubleValue
3.969

@<SCITEGIC>MOL_PROPERTY
Pdih
SciTegic.value.DoubleValue
6.884

@<SCITEGIC>MOL_PROPERTY
Idih
SciTegic.value.DoubleValue
0.019

@<SCITEGIC>MOL_PROPERTY
Tether
SciTegic.value.DoubleValue
0.000

@<TRIPOS>MOLECULE
guest-s22_vm2.mol2 : vm2 ligand conformer 70
          20          19           1
SMALL
USER_CHARGES
 
@<TRIPOS>ATOM
       1    C1      21.628381   19.312856   20.288097 C.2        1 MOL1        -0.2535
       2    H1      21.400422   20.059528   19.529233 H          1 MOL1         0.0845
       3    H2      22.677561   19.137233   20.519380 H          1 MOL1         0.0845
       4    C2      20.661902   18.639137   20.917481 C.2        1 MOL1        -0.1324
       5    H3      20.918758   17.896358   21.670703 H          1 MOL1         0.0833
       6    C3      19.184368   18.829122   20.643928 C.3        1 MOL1        -0.1813
       7    H4      18.681866   17.856764   20.555885 H          1 MOL1         0.0753
       8    H5      19.064491   19.319563   19.668382 H          1 MOL1         0.0753
       9    C4      18.484791   19.701359   21.715532 C.3        1 MOL1        -0.1855
      10    H6      19.189339   20.442674   22.117910 H          1 MOL1         0.0755
      11    H7      17.693874   20.280339   21.219564 H          1 MOL1         0.0755
      12    C5      17.824015   18.903577   22.868736 C.3        1 MOL1        -0.1855
      13    H8      17.084323   18.209115   22.448174 H          1 MOL1         0.0755
      14    H9      17.258595   19.603810   23.499129 H          1 MOL1         0.0755
      15    C6      18.806589   18.110029   23.771895 C.3        1 MOL1        -0.1958
      16    H10     18.236323   17.574222   24.539245 H          1 MOL1         0.0753
      17    H11     19.330401   17.345709   23.188250 H          1 MOL1         0.0753
      18    C7      19.835976   18.969850   24.502595 C.2        1 MOL1         0.6174
      19    O1      21.010772   18.682127   24.385336 O.co2      1 MOL1        -0.6695
      20    O2      19.434204   19.869944   25.214401 O.co2      1 MOL1        -0.6695
@<TRIPOS>BOND
    1     1     2    1
    2     1     3    1
    3     1     4    2
    4     4     5    1
    5     4     6    1
    6     6     7    1
    7     6     8    1
    8     6     9    1
    9     9    10    1
   10     9    11    1
   11     9    12    1
   12    12    13    1
   13    12    14    1
   14    12    15    1
   15    15    16    1
   16    15    17    1
   17    15    18    1
   18    18    19    1
   19    18    20    2
@<TRIPOS>SUBSTRUCTURE
       1 MOL1            1 RESIDUE      1      MOL     
@<SCITEGIC>MOL_PROPERTY
VM2 Rank
SciTegic.value.IntegerValue
70

@<SCITEGIC>MOL_PROPERTY
Conf_Id
SciTegic.value.IntegerValue
684

@<SCITEGIC>MOL_PROPERTY
Probability
SciTegic.value.DoubleValue
0.00

@<SCITEGIC>MOL_PROPERTY
Sum Probability
SciTegic.value.DoubleValue
100.00

@<SCITEGIC>MOL_PROPERTY
Delta G
SciTegic.value.DoubleValue
5.590

@<SCITEGIC>MOL_PROPERTY
G
SciTegic.value.DoubleValue
-16.300

@<SCITEGIC>MOL_PROPERTY
E
SciTegic.value.DoubleValue
-31.903

@<SCITEGIC>MOL_PROPERTY
-TS
SciTegic.value.DoubleValue
15.603

@<SCITEGIC>MOL_PROPERTY
U+W
SciTegic.value.DoubleValue
-47.999

@<SCITEGIC>MOL_PROPERTY
U
SciTegic.value.DoubleValue
14.800

@<SCITEGIC>MOL_PROPERTY
W
SciTegic.value.DoubleValue
-62.799

@<SCITEGIC>MOL_PROPERTY
W(PB)
SciTegic.value.DoubleValue
-64.942

@<SCITEGIC>MOL_PROPERTY
W(SA)
SciTegic.value.DoubleValue
2.143

@<SCITEGIC>MOL_PROPERTY
Valence
SciTegic.value.DoubleValue
11.950

@<SCITEGIC>MOL_PROPERTY
Coulomb
SciTegic.value.DoubleValue
2.728

@<SCITEGIC>MOL_PROPERTY
VdW
SciTegic.value.DoubleValue
0.122

@<SCITEGIC>MOL_PROPERTY
VdW6
SciTegic.value.DoubleValue
-8.855

@<SCITEGIC>MOL_PROPERTY
VdW12
SciTegic.value.DoubleValue
8.977

@<SCITEGIC>MOL_PROPERTY
Bond
SciTegic.value.DoubleValue
0.186

@<SCITEGIC>MOL_PROPERTY
Angle
SciTegic.value.DoubleValue
3.316

@<SCITEGIC>MOL_PROPERTY
Pdih
SciTegic.value.DoubleValue
8.441

@<SCITEGIC>MOL_PROPERTY
Idih
SciTegic.value.DoubleValue
0.007

@<SCITEGIC>MOL_PROPERTY
Tether
SciTegic.value.DoubleValue
0.000

@<TRIPOS>MOLECULE
guest-s22_vm2.mol2 : vm2 ligand conformer 71
          20          19           1
SMALL
USER_CHARGES
 
@<TRIPOS>ATOM
       1    C1      20.204870   17.311572   20.823565 C.2        1 MOL1        -0.2535
       2    H1      20.555572   17.050770   21.821258 H          1 MOL1         0.0845
       3    H2      19.910424   16.495380   20.166403 H          1 MOL1         0.0845
       4    C2      20.129618   18.583239   20.422780 C.2        1 MOL1        -0.1324
       5    H3      19.771596   18.823598   19.422160 H          1 MOL1         0.0833
       6    C3      20.520517   19.769362   21.278607 C.3        1 MOL1        -0.1813
       7    H4      21.219468   20.398588   20.712012 H          1 MOL1         0.0753
       8    H5      21.066689   19.443040   22.171594 H          1 MOL1         0.0753
       9    C4      19.299646   20.630313   21.679684 C.3        1 MOL1        -0.1855
      10    H6      19.648625   21.551361   22.165929 H          1 MOL1         0.0755
      11    H7      18.786675   20.949432   20.762083 H          1 MOL1         0.0755
      12    C5      18.272454   19.921994   22.600680 C.3        1 MOL1        -0.1855
      13    H8      18.001639   18.937958   22.193830 H          1 MOL1         0.0755
      14    H9      17.349539   20.517215   22.586843 H          1 MOL1         0.0755
      15    C6      18.720468   19.782371   24.082760 C.3        1 MOL1        -0.1958
      16    H10     19.174579   20.716511   24.434421 H          1 MOL1         0.0753
      17    H11     17.835223   19.612115   24.706590 H          1 MOL1         0.0753
      18    C7      19.677666   18.628340   24.369677 C.2        1 MOL1         0.6174
      19    O1      20.803151   18.895653   24.743352 O.co2      1 MOL1        -0.6695
      20    O2      19.242610   17.495155   24.306895 O.co2      1 MOL1        -0.6695
@<TRIPOS>BOND
    1     1     2    1
    2     1     3    1
    3     1     4    2
    4     4     5    1
    5     4     6    1
    6     6     7    1
    7     6     8    1
    8     6     9    1
    9     9    10    1
   10     9    11    1
   11     9    12    1
   12    12    13    1
   13    12    14    1
   14    12    15    1
   15    15    16    1
   16    15    17    1
   17    15    18    1
   18    18    19    1
   19    18    20    2
@<TRIPOS>SUBSTRUCTURE
       1 MOL1            1 RESIDUE      1      MOL     
@<SCITEGIC>MOL_PROPERTY
VM2 Rank
SciTegic.value.IntegerValue
71

@<SCITEGIC>MOL_PROPERTY
Conf_Id
SciTegic.value.IntegerValue
688

@<SCITEGIC>MOL_PROPERTY
Probability
SciTegic.value.DoubleValue
0.00

@<SCITEGIC>MOL_PROPERTY
Sum Probability
SciTegic.value.DoubleValue
100.00

@<SCITEGIC>MOL_PROPERTY
Delta G
SciTegic.value.DoubleValue
5.853

@<SCITEGIC>MOL_PROPERTY
G
SciTegic.value.DoubleValue
-16.036

@<SCITEGIC>MOL_PROPERTY
E
SciTegic.value.DoubleValue
-32.089

@<SCITEGIC>MOL_PROPERTY
-TS
SciTegic.value.DoubleValue
16.052

@<SCITEGIC>MOL_PROPERTY
U+W
SciTegic.value.DoubleValue
-48.185

@<SCITEGIC>MOL_PROPERTY
U
SciTegic.value.DoubleValue
14.642

@<SCITEGIC>MOL_PROPERTY
W
SciTegic.value.DoubleValue
-62.827

@<SCITEGIC>MOL_PROPERTY
W(PB)
SciTegic.value.DoubleValue
-64.920

@<SCITEGIC>MOL_PROPERTY
W(SA)
SciTegic.value.DoubleValue
2.093

@<SCITEGIC>MOL_PROPERTY
Valence
SciTegic.value.DoubleValue
11.577

@<SCITEGIC>MOL_PROPERTY
Coulomb
SciTegic.value.DoubleValue
3.284

@<SCITEGIC>MOL_PROPERTY
VdW
SciTegic.value.DoubleValue
-0.219

@<SCITEGIC>MOL_PROPERTY
VdW6
SciTegic.value.DoubleValue
-9.345

@<SCITEGIC>MOL_PROPERTY
VdW12
SciTegic.value.DoubleValue
9.126

@<SCITEGIC>MOL_PROPERTY
Bond
SciTegic.value.DoubleValue
0.192

@<SCITEGIC>MOL_PROPERTY
Angle
SciTegic.value.DoubleValue
3.435

@<SCITEGIC>MOL_PROPERTY
Pdih
SciTegic.value.DoubleValue
7.929

@<SCITEGIC>MOL_PROPERTY
Idih
SciTegic.value.DoubleValue
0.022

@<SCITEGIC>MOL_PROPERTY
Tether
SciTegic.value.DoubleValue
0.000

@<TRIPOS>MOLECULE
guest-s22_vm2.mol2 : vm2 ligand conformer 72
          20          19           1
SMALL
USER_CHARGES
 
@<TRIPOS>ATOM
       1    C1      18.159632   19.086151   20.590752 C.2        1 MOL1        -0.2535
       2    H1      17.481307   18.603236   19.889753 H          1 MOL1         0.0845
       3    H2      17.728197   19.503634   21.499582 H          1 MOL1         0.0845
       4    C2      19.470991   19.154878   20.347759 C.2        1 MOL1        -0.1324
       5    H3      19.883658   18.726956   19.434644 H          1 MOL1         0.0833
       6    C3      20.474447   19.809355   21.273429 C.3        1 MOL1        -0.1813
       7    H4      19.966168   20.397760   22.046504 H          1 MOL1         0.0753
       8    H5      21.073124   20.525690   20.695555 H          1 MOL1         0.0753
       9    C4      21.430817   18.781161   21.922126 C.3        1 MOL1        -0.1855
      10    H6      21.930808   18.221602   21.119711 H          1 MOL1         0.0755
      11    H7      22.226958   19.314124   22.459396 H          1 MOL1         0.0755
      12    C5      20.752270   17.770134   22.882581 C.3        1 MOL1        -0.1855
      13    H8      21.461394   16.949200   23.054231 H          1 MOL1         0.0755
      14    H9      19.873526   17.313689   22.406492 H          1 MOL1         0.0755
      15    C6      20.364707   18.355271   24.269729 C.3        1 MOL1        -0.1958
      16    H10     20.234161   17.529798   24.979208 H          1 MOL1         0.0753
      17    H11     21.177321   18.978152   24.662385 H          1 MOL1         0.0753
      18    C7      19.066858   19.158385   24.300193 C.2        1 MOL1         0.6174
      19    O1      19.132425   20.345509   24.553653 O.co2      1 MOL1        -0.6695
      20    O2      18.018853   18.557155   24.167779 O.co2      1 MOL1        -0.6695
@<TRIPOS>BOND
    1     1     2    1
    2     1     3    1
    3     1     4    2
    4     4     5    1
    5     4     6    1
    6     6     7    1
    7     6     8    1
    8     6     9    1
    9     9    10    1
   10     9    11    1
   11     9    12    1
   12    12    13    1
   13    12    14    1
   14    12    15    1
   15    15    16    1
   16    15    17    1
   17    15    18    1
   18    18    19    1
   19    18    20    2
@<TRIPOS>SUBSTRUCTURE
       1 MOL1            1 RESIDUE      1      MOL     
@<SCITEGIC>MOL_PROPERTY
VM2 Rank
SciTegic.value.IntegerValue
72

@<SCITEGIC>MOL_PROPERTY
Conf_Id
SciTegic.value.IntegerValue
81

@<SCITEGIC>MOL_PROPERTY
Probability
SciTegic.value.DoubleValue
0.00

@<SCITEGIC>MOL_PROPERTY
Sum Probability
SciTegic.value.DoubleValue
100.00

@<SCITEGIC>MOL_PROPERTY
Delta G
SciTegic.value.DoubleValue
5.863

@<SCITEGIC>MOL_PROPERTY
G
SciTegic.value.DoubleValue
-16.027

@<SCITEGIC>MOL_PROPERTY
E
SciTegic.value.DoubleValue
-32.079

@<SCITEGIC>MOL_PROPERTY
-TS
SciTegic.value.DoubleValue
16.052

@<SCITEGIC>MOL_PROPERTY
U+W
SciTegic.value.DoubleValue
-48.176

@<SCITEGIC>MOL_PROPERTY
U
SciTegic.value.DoubleValue
14.641

@<SCITEGIC>MOL_PROPERTY
W
SciTegic.value.DoubleValue
-62.816

@<SCITEGIC>MOL_PROPERTY
W(PB)
SciTegic.value.DoubleValue
-64.896

@<SCITEGIC>MOL_PROPERTY
W(SA)
SciTegic.value.DoubleValue
2.079

@<SCITEGIC>MOL_PROPERTY
Valence
SciTegic.value.DoubleValue
11.577

@<SCITEGIC>MOL_PROPERTY
Coulomb
SciTegic.value.DoubleValue
3.283

@<SCITEGIC>MOL_PROPERTY
VdW
SciTegic.value.DoubleValue
-0.219

@<SCITEGIC>MOL_PROPERTY
VdW6
SciTegic.value.DoubleValue
-9.345

@<SCITEGIC>MOL_PROPERTY
VdW12
SciTegic.value.DoubleValue
9.126

@<SCITEGIC>MOL_PROPERTY
Bond
SciTegic.value.DoubleValue
0.192

@<SCITEGIC>MOL_PROPERTY
Angle
SciTegic.value.DoubleValue
3.435

@<SCITEGIC>MOL_PROPERTY
Pdih
SciTegic.value.DoubleValue
7.929

@<SCITEGIC>MOL_PROPERTY
Idih
SciTegic.value.DoubleValue
0.021

@<SCITEGIC>MOL_PROPERTY
Tether
SciTegic.value.DoubleValue
0.000

@<TRIPOS>MOLECULE
guest-s22_vm2.mol2 : vm2 ligand conformer 73
          20          19           1
SMALL
USER_CHARGES
 
@<TRIPOS>ATOM
       1    C1      21.344794   19.289105   19.918705 C.2        1 MOL1        -0.2535
       2    H1      22.430283   19.206441   19.915167 H          1 MOL1         0.0845
       3    H2      20.837972   19.276980   18.955151 H          1 MOL1         0.0845
       4    C2      20.665034   19.398055   21.063317 C.2        1 MOL1        -0.1324
       5    H3      21.196175   19.411299   22.012763 H          1 MOL1         0.0833
       6    C3      19.157895   19.524002   21.142174 C.3        1 MOL1        -0.1813
       7    H4      18.781029   19.883312   20.175033 H          1 MOL1         0.0753
       8    H5      18.870735   20.286813   21.878366 H          1 MOL1         0.0753
       9    C4      18.470142   18.175002   21.462568 C.3        1 MOL1        -0.1855
      10    H6      17.535595   18.123708   20.887348 H          1 MOL1         0.0755
      11    H7      19.089091   17.343476   21.097902 H          1 MOL1         0.0755
      12    C5      18.111288   17.955063   22.954466 C.3        1 MOL1        -0.1855
      13    H8      17.580884   16.996034   23.027588 H          1 MOL1         0.0755
      14    H9      17.390935   18.717295   23.282049 H          1 MOL1         0.0755
      15    C6      19.320908   17.908418   23.931345 C.3        1 MOL1        -0.1958
      16    H10     19.039397   17.326729   24.816497 H          1 MOL1         0.0753
      17    H11     20.163151   17.382272   23.466049 H          1 MOL1         0.0753
      18    C7      19.808340   19.260845   24.453846 C.2        1 MOL1         0.6174
      19    O1      21.005870   19.416270   24.590582 O.co2      1 MOL1        -0.6695
      20    O2      18.986728   20.091239   24.790997 O.co2      1 MOL1        -0.6695
@<TRIPOS>BOND
    1     1     2    1
    2     1     3    1
    3     1     4    2
    4     4     5    1
    5     4     6    1
    6     6     7    1
    7     6     8    1
    8     6     9    1
    9     9    10    1
   10     9    11    1
   11     9    12    1
   12    12    13    1
   13    12    14    1
   14    12    15    1
   15    15    16    1
   16    15    17    1
   17    15    18    1
   18    18    19    1
   19    18    20    2
@<TRIPOS>SUBSTRUCTURE
       1 MOL1            1 RESIDUE      1      MOL     
@<SCITEGIC>MOL_PROPERTY
VM2 Rank
SciTegic.value.IntegerValue
73

@<SCITEGIC>MOL_PROPERTY
Conf_Id
SciTegic.value.IntegerValue
1054

@<SCITEGIC>MOL_PROPERTY
Probability
SciTegic.value.DoubleValue
0.00

@<SCITEGIC>MOL_PROPERTY
Sum Probability
SciTegic.value.DoubleValue
100.00

@<SCITEGIC>MOL_PROPERTY
Delta G
SciTegic.value.DoubleValue
6.783

@<SCITEGIC>MOL_PROPERTY
G
SciTegic.value.DoubleValue
-15.106

@<SCITEGIC>MOL_PROPERTY
E
SciTegic.value.DoubleValue
-30.712

@<SCITEGIC>MOL_PROPERTY
-TS
SciTegic.value.DoubleValue
15.606

@<SCITEGIC>MOL_PROPERTY
U+W
SciTegic.value.DoubleValue
-46.809

@<SCITEGIC>MOL_PROPERTY
U
SciTegic.value.DoubleValue
15.456

@<SCITEGIC>MOL_PROPERTY
W
SciTegic.value.DoubleValue
-62.264

@<SCITEGIC>MOL_PROPERTY
W(PB)
SciTegic.value.DoubleValue
-64.357

@<SCITEGIC>MOL_PROPERTY
W(SA)
SciTegic.value.DoubleValue
2.093

@<SCITEGIC>MOL_PROPERTY
Valence
SciTegic.value.DoubleValue
13.616

@<SCITEGIC>MOL_PROPERTY
Coulomb
SciTegic.value.DoubleValue
1.409

@<SCITEGIC>MOL_PROPERTY
VdW
SciTegic.value.DoubleValue
0.431

@<SCITEGIC>MOL_PROPERTY
VdW6
SciTegic.value.DoubleValue
-9.299

@<SCITEGIC>MOL_PROPERTY
VdW12
SciTegic.value.DoubleValue
9.729

@<SCITEGIC>MOL_PROPERTY
Bond
SciTegic.value.DoubleValue
0.212

@<SCITEGIC>MOL_PROPERTY
Angle
SciTegic.value.DoubleValue
3.797

@<SCITEGIC>MOL_PROPERTY
Pdih
SciTegic.value.DoubleValue
9.591

@<SCITEGIC>MOL_PROPERTY
Idih
SciTegic.value.DoubleValue
0.016

@<SCITEGIC>MOL_PROPERTY
Tether
SciTegic.value.DoubleValue
0.000

@<TRIPOS>MOLECULE
guest-s22_vm2.mol2 : vm2 ligand conformer 74
          20          19           1
SMALL
USER_CHARGES
 
@<TRIPOS>ATOM
       1    C1      18.780309   18.516029   19.587731 C.2        1 MOL1        -0.2535
       2    H1      17.951677   17.855929   19.337191 H          1 MOL1         0.0845
       3    H2      19.419627   18.849825   18.772070 H          1 MOL1         0.0845
       4    C2      19.002163   18.896524   20.848717 C.2        1 MOL1        -0.1324
       5    H3      18.346073   18.551228   21.644988 H          1 MOL1         0.0833
       6    C3      20.129541   19.816924   21.267561 C.3        1 MOL1        -0.1813
       7    H4      19.774005   20.559034   21.995012 H          1 MOL1         0.0753
       8    H5      20.462848   20.390493   20.392108 H          1 MOL1         0.0753
       9    C4      21.343624   19.041402   21.833264 C.3        1 MOL1        -0.1855
      10    H6      21.382595   18.034983   21.393814 H          1 MOL1         0.0755
      11    H7      22.258562   19.547783   21.496587 H          1 MOL1         0.0755
      12    C5      21.405036   18.948232   23.379374 C.3        1 MOL1        -0.1855
      13    H8      21.494117   19.954557   23.811334 H          1 MOL1         0.0755
      14    H9      22.337594   18.430364   23.641214 H          1 MOL1         0.0755
      15    C6      20.228237   18.181982   24.048453 C.3        1 MOL1        -0.1958
      16    H10     19.944439   17.316303   23.437911 H          1 MOL1         0.0753
      17    H11     20.565660   17.786902   25.013420 H          1 MOL1         0.0753
      18    C7      18.977368   19.010224   24.346800 C.2        1 MOL1         0.6174
      19    O1      19.108841   20.127933   24.806923 O.co2      1 MOL1        -0.6695
      20    O2      17.895879   18.478750   24.189176 O.co2      1 MOL1        -0.6695
@<TRIPOS>BOND
    1     1     2    1
    2     1     3    1
    3     1     4    2
    4     4     5    1
    5     4     6    1
    6     6     7    1
    7     6     8    1
    8     6     9    1
    9     9    10    1
   10     9    11    1
   11     9    12    1
   12    12    13    1
   13    12    14    1
   14    12    15    1
   15    15    16    1
   16    15    17    1
   17    15    18    1
   18    18    19    1
   19    18    20    2
@<TRIPOS>SUBSTRUCTURE
       1 MOL1            1 RESIDUE      1      MOL     
@<SCITEGIC>MOL_PROPERTY
VM2 Rank
SciTegic.value.IntegerValue
74

@<SCITEGIC>MOL_PROPERTY
Conf_Id
SciTegic.value.IntegerValue
337

@<SCITEGIC>MOL_PROPERTY
Probability
SciTegic.value.DoubleValue
0.00

@<SCITEGIC>MOL_PROPERTY
Sum Probability
SciTegic.value.DoubleValue
100.00

@<SCITEGIC>MOL_PROPERTY
Delta G
SciTegic.value.DoubleValue
6.793

@<SCITEGIC>MOL_PROPERTY
G
SciTegic.value.DoubleValue
-15.097

@<SCITEGIC>MOL_PROPERTY
E
SciTegic.value.DoubleValue
-30.705

@<SCITEGIC>MOL_PROPERTY
-TS
SciTegic.value.DoubleValue
15.608

@<SCITEGIC>MOL_PROPERTY
U+W
SciTegic.value.DoubleValue
-46.801

@<SCITEGIC>MOL_PROPERTY
U
SciTegic.value.DoubleValue
15.456

@<SCITEGIC>MOL_PROPERTY
W
SciTegic.value.DoubleValue
-62.258

@<SCITEGIC>MOL_PROPERTY
W(PB)
SciTegic.value.DoubleValue
-64.378

@<SCITEGIC>MOL_PROPERTY
W(SA)
SciTegic.value.DoubleValue
2.121

@<SCITEGIC>MOL_PROPERTY
Valence
SciTegic.value.DoubleValue
13.615

@<SCITEGIC>MOL_PROPERTY
Coulomb
SciTegic.value.DoubleValue
1.410

@<SCITEGIC>MOL_PROPERTY
VdW
SciTegic.value.DoubleValue
0.431

@<SCITEGIC>MOL_PROPERTY
VdW6
SciTegic.value.DoubleValue
-9.299

@<SCITEGIC>MOL_PROPERTY
VdW12
SciTegic.value.DoubleValue
9.730

@<SCITEGIC>MOL_PROPERTY
Bond
SciTegic.value.DoubleValue
0.212

@<SCITEGIC>MOL_PROPERTY
Angle
SciTegic.value.DoubleValue
3.796

@<SCITEGIC>MOL_PROPERTY
Pdih
SciTegic.value.DoubleValue
9.592

@<SCITEGIC>MOL_PROPERTY
Idih
SciTegic.value.DoubleValue
0.016

@<SCITEGIC>MOL_PROPERTY
Tether
SciTegic.value.DoubleValue
0.000

@<TRIPOS>MOLECULE
guest-s22_vm2.mol2 : vm2 ligand conformer 75
          20          19           1
SMALL
USER_CHARGES
 
@<TRIPOS>ATOM
       1    C1      20.421017   17.261229   21.235300 C.2        1 MOL1        -0.2535
       2    H1      21.351759   16.707422   21.127521 H          1 MOL1         0.0845
       3    H2      19.596419   16.761096   21.741114 H          1 MOL1         0.0845
       4    C2      20.302163   18.508902   20.775239 C.2        1 MOL1        -0.1324
       5    H3      21.142746   18.988553   20.274719 H          1 MOL1         0.0833
       6    C3      19.044091   19.344728   20.887191 C.3        1 MOL1        -0.1813
       7    H4      18.256490   18.813172   21.438821 H          1 MOL1         0.0753
       8    H5      18.655526   19.503808   19.872599 H          1 MOL1         0.0753
       9    C4      19.300416   20.733997   21.520355 C.3        1 MOL1        -0.1855
      10    H6      20.300395   21.094785   21.243253 H          1 MOL1         0.0755
      11    H7      18.593697   21.446107   21.072702 H          1 MOL1         0.0755
      12    C5      19.118822   20.807109   23.057817 C.3        1 MOL1        -0.1855
      13    H8      18.077836   20.578747   23.324236 H          1 MOL1         0.0755
      14    H9      19.274877   21.852691   23.355767 H          1 MOL1         0.0755
      15    C6      20.097085   19.924720   23.886403 C.3        1 MOL1        -0.1958
      16    H10     21.073954   19.876716   23.390676 H          1 MOL1         0.0753
      17    H11     20.264982   20.401348   24.858862 H          1 MOL1         0.0753
      18    C7      19.639078   18.496725   24.194673 C.2        1 MOL1         0.6174
      19    O1      20.498359   17.694150   24.502881 O.co2      1 MOL1        -0.6695
      20    O2      18.449968   18.246439   24.248141 O.co2      1 MOL1        -0.6695
@<TRIPOS>BOND
    1     1     2    1
    2     1     3    1
    3     1     4    2
    4     4     5    1
    5     4     6    1
    6     6     7    1
    7     6     8    1
    8     6     9    1
    9     9    10    1
   10     9    11    1
   11     9    12    1
   12    12    13    1
   13    12    14    1
   14    12    15    1
   15    15    16    1
   16    15    17    1
   17    15    18    1
   18    18    19    1
   19    18    20    2
@<TRIPOS>SUBSTRUCTURE
       1 MOL1            1 RESIDUE      1      MOL     
@<SCITEGIC>MOL_PROPERTY
VM2 Rank
SciTegic.value.IntegerValue
75

@<SCITEGIC>MOL_PROPERTY
Conf_Id
SciTegic.value.IntegerValue
127

@<SCITEGIC>MOL_PROPERTY
Probability
SciTegic.value.DoubleValue
0.00

@<SCITEGIC>MOL_PROPERTY
Sum Probability
SciTegic.value.DoubleValue
100.00

@<SCITEGIC>MOL_PROPERTY
Delta G
SciTegic.value.DoubleValue
9.340

@<SCITEGIC>MOL_PROPERTY
G
SciTegic.value.DoubleValue
-12.550

@<SCITEGIC>MOL_PROPERTY
E
SciTegic.value.DoubleValue
-28.542

@<SCITEGIC>MOL_PROPERTY
-TS
SciTegic.value.DoubleValue
15.992

@<SCITEGIC>MOL_PROPERTY
U+W
SciTegic.value.DoubleValue
-44.638

@<SCITEGIC>MOL_PROPERTY
U
SciTegic.value.DoubleValue
18.568

@<SCITEGIC>MOL_PROPERTY
W
SciTegic.value.DoubleValue
-63.206

@<SCITEGIC>MOL_PROPERTY
W(PB)
SciTegic.value.DoubleValue
-65.269

@<SCITEGIC>MOL_PROPERTY
W(SA)
SciTegic.value.DoubleValue
2.063

@<SCITEGIC>MOL_PROPERTY
Valence
SciTegic.value.DoubleValue
14.101

@<SCITEGIC>MOL_PROPERTY
Coulomb
SciTegic.value.DoubleValue
4.490

@<SCITEGIC>MOL_PROPERTY
VdW
SciTegic.value.DoubleValue
-0.023

@<SCITEGIC>MOL_PROPERTY
VdW6
SciTegic.value.DoubleValue
-10.118

@<SCITEGIC>MOL_PROPERTY
VdW12
SciTegic.value.DoubleValue
10.095

@<SCITEGIC>MOL_PROPERTY
Bond
SciTegic.value.DoubleValue
0.225

@<SCITEGIC>MOL_PROPERTY
Angle
SciTegic.value.DoubleValue
4.258

@<SCITEGIC>MOL_PROPERTY
Pdih
SciTegic.value.DoubleValue
9.582

@<SCITEGIC>MOL_PROPERTY
Idih
SciTegic.value.DoubleValue
0.036

@<SCITEGIC>MOL_PROPERTY
Tether
SciTegic.value.DoubleValue
0.000

