VeraChem MOL file


 20 19  0  0  0  0  0  0  0  0999 V2000     
   20.4455   18.0661   18.7399 C   0  0  0  0  0  0  0  0  0  0  0  0
   20.6597   17.7974   17.7068 H   0  0  0  0  0  0  0  0  0  0  0  0
   20.5834   17.2883   19.4880 H   0  0  0  0  0  0  0  0  0  0  0  0
   20.0331   19.2995   19.0536 C   0  0  0  0  0  0  0  0  0  0  0  0
   19.9133   20.0362   18.2595 H   0  0  0  0  0  0  0  0  0  0  0  0
   19.6972   19.8197   20.4413 C   0  0  0  0  0  0  0  0  0  0  0  0
   18.6643   20.1928   20.4378 H   0  0  0  0  0  0  0  0  0  0  0  0
   20.3272   20.6942   20.6523 H   0  0  0  0  0  0  0  0  0  0  0  0
   19.8605   18.7897   21.5834 C   0  0  0  0  0  0  0  0  0  0  0  0
   19.2167   17.9209   21.3889 H   0  0  0  0  0  0  0  0  0  0  0  0
   20.8976   18.4277   21.6057 H   0  0  0  0  0  0  0  0  0  0  0  0
   19.5003   19.3966   22.9571 C   0  0  0  0  0  0  0  0  0  0  0  0
   18.4637   19.7607   22.9413 H   0  0  0  0  0  0  0  0  0  0  0  0
   20.1411   20.2665   23.1577 H   0  0  0  0  0  0  0  0  0  0  0  0
   19.6630   18.3671   24.1025 C   0  0  0  0  0  0  0  0  0  0  0  0
   19.0192   17.4974   23.9243 H   0  0  0  0  0  0  0  0  0  0  0  0
   20.6967   18.0031   24.1407 H   0  0  0  0  0  0  0  0  0  0  0  0
   19.3129   18.9430   25.4699 C   0  0  0  0  0  0  0  0  0  0  0  0
   20.1971   19.4751   26.1115 O   0  5  0  0  0  0  0  0  0  0  0  0
   18.1613   18.8614   25.8489 O   0  0  0  0  0  0  0  0  0  0  0  0
  1  2  1  0  0  0  0
  1  3  1  0  0  0  0
  1  4  2  0  0  0  0
  4  5  1  0  0  0  0
  4  6  1  0  0  0  0
  6  7  1  0  0  0  0
  6  8  1  0  0  0  0
  6  9  1  0  0  0  0
  9 10  1  0  0  0  0
  9 11  1  0  0  0  0
  9 12  1  0  0  0  0
 12 13  1  0  0  0  0
 12 14  1  0  0  0  0
 12 15  1  0  0  0  0
 15 16  1  0  0  0  0
 15 17  1  0  0  0  0
 15 18  1  0  0  0  0
 18 19  1  0  0  0  0
 18 20  2  0  0  0  0
M  END
> <VM2 Rank>
1

> <Conf_Id>
811

> <Probability>
13.58

> <Sum Probability>
13.58

> <Delta G>
0.000

> <G>
-21.890

> <E>
-37.137

> <-TS>
15.248

> <U+W>
-53.234

> <U>
6.572

> <W>
-59.803

> <W(PB)>
-62.038

> <W(SA)>
2.234

> <Valence>
7.989

> <Coulomb>
-2.698

> <VdW>
1.281

> <VdW6>
-6.467

> <VdW12>
7.748

> <Bond>
0.136

> <Angle>
2.854

> <Pdih>
4.998

> <Idih>
0.001

> <Tether>
0.000

$$$$
VeraChem MOL file


 20 19  0  0  0  0  0  0  0  0999 V2000     
   19.7352   18.4522   18.2411 C   0  0  0  0  0  0  0  0  0  0  0  0
   18.6523   18.3602   18.3074 H   0  0  0  0  0  0  0  0  0  0  0  0
   20.2190   18.0464   17.3542 H   0  0  0  0  0  0  0  0  0  0  0  0
   20.4463   19.0369   19.2086 C   0  0  0  0  0  0  0  0  0  0  0  0
   21.5297   19.1182   19.1231 H   0  0  0  0  0  0  0  0  0  0  0  0
   19.8449   19.6233   20.4664 C   0  0  0  0  0  0  0  0  0  0  0  0
   18.7579   19.7336   20.3525 H   0  0  0  0  0  0  0  0  0  0  0  0
   20.2491   20.6310   20.6318 H   0  0  0  0  0  0  0  0  0  0  0  0
   20.1458   18.7372   21.6933 C   0  0  0  0  0  0  0  0  0  0  0  0
   19.7431   17.7294   21.5212 H   0  0  0  0  0  0  0  0  0  0  0  0
   21.2331   18.6308   21.8095 H   0  0  0  0  0  0  0  0  0  0  0  0
   19.5411   19.3233   22.9876 C   0  0  0  0  0  0  0  0  0  0  0  0
   18.4532   19.4288   22.8737 H   0  0  0  0  0  0  0  0  0  0  0  0
   19.9428   20.3313   23.1611 H   0  0  0  0  0  0  0  0  0  0  0  0
   19.8424   18.4338   24.2189 C   0  0  0  0  0  0  0  0  0  0  0  0
   19.4359   17.4267   24.0671 H   0  0  0  0  0  0  0  0  0  0  0  0
   20.9255   18.3293   24.3548 H   0  0  0  0  0  0  0  0  0  0  0  0
   19.2549   18.9920   25.5101 C   0  0  0  0  0  0  0  0  0  0  0  0
   19.9340   19.7578   26.1652 O   0  5  0  0  0  0  0  0  0  0  0  0
   18.1264   18.6615   25.8167 O   0  0  0  0  0  0  0  0  0  0  0  0
  1  2  1  0  0  0  0
  1  3  1  0  0  0  0
  1  4  2  0  0  0  0
  4  5  1  0  0  0  0
  4  6  1  0  0  0  0
  6  7  1  0  0  0  0
  6  8  1  0  0  0  0
  6  9  1  0  0  0  0
  9 10  1  0  0  0  0
  9 11  1  0  0  0  0
  9 12  1  0  0  0  0
 12 13  1  0  0  0  0
 12 14  1  0  0  0  0
 12 15  1  0  0  0  0
 15 16  1  0  0  0  0
 15 17  1  0  0  0  0
 15 18  1  0  0  0  0
 18 19  1  0  0  0  0
 18 20  2  0  0  0  0
M  END
> <VM2 Rank>
2

> <Conf_Id>
464

> <Probability>
13.37

> <Sum Probability>
26.95

> <Delta G>
0.009

> <G>
-21.880

> <E>
-36.772

> <-TS>
14.892

> <U+W>
-52.869

> <U>
6.632

> <W>
-59.501

> <W(PB)>
-61.760

> <W(SA)>
2.259

> <Valence>
9.076

> <Coulomb>
-3.008

> <VdW>
0.564

> <VdW6>
-5.773

> <VdW12>
6.337

> <Bond>
0.084

> <Angle>
2.239

> <Pdih>
6.752

> <Idih>
0.001

> <Tether>
0.000

$$$$
VeraChem MOL file


 20 19  0  0  0  0  0  0  0  0999 V2000     
   19.8357   18.3567   18.2570 C   0  0  0  0  0  0  0  0  0  0  0  0
   19.5624   18.6705   17.2509 H   0  0  0  0  0  0  0  0  0  0  0  0
   19.7745   17.2936   18.4842 H   0  0  0  0  0  0  0  0  0  0  0  0
   20.2277   19.2448   19.1742 C   0  0  0  0  0  0  0  0  0  0  0  0
   20.2812   20.3047   18.9266 H   0  0  0  0  0  0  0  0  0  0  0  0
   20.6226   18.8841   20.5890 C   0  0  0  0  0  0  0  0  0  0  0  0
   21.5741   19.3716   20.8405 H   0  0  0  0  0  0  0  0  0  0  0  0
   20.7904   17.8016   20.6726 H   0  0  0  0  0  0  0  0  0  0  0  0
   19.5374   19.3154   21.5975 C   0  0  0  0  0  0  0  0  0  0  0  0
   19.3732   20.3988   21.5166 H   0  0  0  0  0  0  0  0  0  0  0  0
   18.5870   18.8283   21.3391 H   0  0  0  0  0  0  0  0  0  0  0  0
   19.9263   18.9570   23.0483 C   0  0  0  0  0  0  0  0  0  0  0  0
   20.8769   19.4434   23.3082 H   0  0  0  0  0  0  0  0  0  0  0  0
   20.0892   17.8734   23.1314 H   0  0  0  0  0  0  0  0  0  0  0  0
   18.8371   19.3894   24.0606 C   0  0  0  0  0  0  0  0  0  0  0  0
   18.6718   20.4718   23.9998 H   0  0  0  0  0  0  0  0  0  0  0  0
   17.8841   18.9018   23.8228 H   0  0  0  0  0  0  0  0  0  0  0  0
   19.1983   19.0457   25.5012 C   0  0  0  0  0  0  0  0  0  0  0  0
   19.8214   19.8649   26.1473 O   0  5  0  0  0  0  0  0  0  0  0  0
   18.8644   17.9600   25.9329 O   0  0  0  0  0  0  0  0  0  0  0  0
  1  2  1  0  0  0  0
  1  3  1  0  0  0  0
  1  4  2  0  0  0  0
  4  5  1  0  0  0  0
  4  6  1  0  0  0  0
  6  7  1  0  0  0  0
  6  8  1  0  0  0  0
  6  9  1  0  0  0  0
  9 10  1  0  0  0  0
  9 11  1  0  0  0  0
  9 12  1  0  0  0  0
 12 13  1  0  0  0  0
 12 14  1  0  0  0  0
 12 15  1  0  0  0  0
 15 16  1  0  0  0  0
 15 17  1  0  0  0  0
 15 18  1  0  0  0  0
 18 19  1  0  0  0  0
 18 20  2  0  0  0  0
M  END
> <VM2 Rank>
3

> <Conf_Id>
691

> <Probability>
12.14

> <Sum Probability>
39.10

> <Delta G>
0.067

> <G>
-21.823

> <E>
-36.714

> <-TS>
14.891

> <U+W>
-52.810

> <U>
6.633

> <W>
-59.443

> <W(PB)>
-61.702

> <W(SA)>
2.259

> <Valence>
9.076

> <Coulomb>
-3.007

> <VdW>
0.564

> <VdW6>
-5.773

> <VdW12>
6.337

> <Bond>
0.084

> <Angle>
2.239

> <Pdih>
6.752

> <Idih>
0.001

> <Tether>
0.000

$$$$
VeraChem MOL file


 20 19  0  0  0  0  0  0  0  0999 V2000     
   19.2310   18.4035   18.7287 C   0  0  0  0  0  0  0  0  0  0  0  0
   18.2507   18.2552   18.2791 H   0  0  0  0  0  0  0  0  0  0  0  0
   20.0633   17.8369   18.3143 H   0  0  0  0  0  0  0  0  0  0  0  0
   19.4012   19.2463   19.7507 C   0  0  0  0  0  0  0  0  0  0  0  0
   18.5550   19.8058   20.1482 H   0  0  0  0  0  0  0  0  0  0  0  0
   20.7333   19.5077   20.4208 C   0  0  0  0  0  0  0  0  0  0  0  0
   20.8632   20.5854   20.5873 H   0  0  0  0  0  0  0  0  0  0  0  0
   21.5500   19.1992   19.7541 H   0  0  0  0  0  0  0  0  0  0  0  0
   20.8759   18.7518   21.7610 C   0  0  0  0  0  0  0  0  0  0  0  0
   20.7294   17.6762   21.5906 H   0  0  0  0  0  0  0  0  0  0  0  0
   21.9037   18.8748   22.1288 H   0  0  0  0  0  0  0  0  0  0  0  0
   19.8878   19.2504   22.8405 C   0  0  0  0  0  0  0  0  0  0  0  0
   18.8540   19.0972   22.5022 H   0  0  0  0  0  0  0  0  0  0  0  0
   20.0178   20.3311   22.9911 H   0  0  0  0  0  0  0  0  0  0  0  0
   20.0918   18.5179   24.1895 C   0  0  0  0  0  0  0  0  0  0  0  0
   19.9534   17.4379   24.0582 H   0  0  0  0  0  0  0  0  0  0  0  0
   21.1145   18.6721   24.5539 H   0  0  0  0  0  0  0  0  0  0  0  0
   19.1276   18.9910   25.2714 C   0  0  0  0  0  0  0  0  0  0  0  0
   19.4622   19.9293   25.9673 O   0  5  0  0  0  0  0  0  0  0  0  0
   18.0602   18.4202   25.3783 O   0  0  0  0  0  0  0  0  0  0  0  0
  1  2  1  0  0  0  0
  1  3  1  0  0  0  0
  1  4  2  0  0  0  0
  4  5  1  0  0  0  0
  4  6  1  0  0  0  0
  6  7  1  0  0  0  0
  6  8  1  0  0  0  0
  6  9  1  0  0  0  0
  9 10  1  0  0  0  0
  9 11  1  0  0  0  0
  9 12  1  0  0  0  0
 12 13  1  0  0  0  0
 12 14  1  0  0  0  0
 12 15  1  0  0  0  0
 15 16  1  0  0  0  0
 15 17  1  0  0  0  0
 15 18  1  0  0  0  0
 18 19  1  0  0  0  0
 18 20  2  0  0  0  0
M  END
> <VM2 Rank>
4

> <Conf_Id>
900

> <Probability>
4.86

> <Sum Probability>
43.95

> <Delta G>
0.613

> <G>
-21.277

> <E>
-36.308

> <-TS>
15.032

> <U+W>
-52.405

> <U>
7.828

> <W>
-60.233

> <W(PB)>
-62.486

> <W(SA)>
2.254

> <Valence>
9.300

> <Coulomb>
-2.080

> <VdW>
0.608

> <VdW6>
-6.341

> <VdW12>
6.949

> <Bond>
0.103

> <Angle>
2.334

> <Pdih>
6.862

> <Idih>
0.001

> <Tether>
0.000

$$$$
VeraChem MOL file


 20 19  0  0  0  0  0  0  0  0999 V2000     
   21.2428   19.0106   18.9879 C   0  0  0  0  0  0  0  0  0  0  0  0
   20.9774   18.1129   18.4319 H   0  0  0  0  0  0  0  0  0  0  0  0
   22.2181   19.4523   18.7905 H   0  0  0  0  0  0  0  0  0  0  0  0
   20.4087   19.5501   19.8806 C   0  0  0  0  0  0  0  0  0  0  0  0
   20.6931   20.4508   20.4240 H   0  0  0  0  0  0  0  0  0  0  0  0
   19.0371   18.9959   20.2020 C   0  0  0  0  0  0  0  0  0  0  0  0
   18.7025   18.3400   19.3869 H   0  0  0  0  0  0  0  0  0  0  0  0
   18.3066   19.8140   20.2576 H   0  0  0  0  0  0  0  0  0  0  0  0
   19.0219   18.1924   21.5219 C   0  0  0  0  0  0  0  0  0  0  0  0
   18.0412   17.7094   21.6306 H   0  0  0  0  0  0  0  0  0  0  0  0
   19.7655   17.3854   21.4663 H   0  0  0  0  0  0  0  0  0  0  0  0
   19.2949   19.0715   22.7640 C   0  0  0  0  0  0  0  0  0  0  0  0
   18.5665   19.8932   22.8038 H   0  0  0  0  0  0  0  0  0  0  0  0
   20.2900   19.5302   22.6875 H   0  0  0  0  0  0  0  0  0  0  0  0
   19.2152   18.2535   24.0765 C   0  0  0  0  0  0  0  0  0  0  0  0
   18.2223   17.7998   24.1809 H   0  0  0  0  0  0  0  0  0  0  0  0
   19.9454   17.4355   24.0573 H   0  0  0  0  0  0  0  0  0  0  0  0
   19.4824   19.0980   25.3172 C   0  0  0  0  0  0  0  0  0  0  0  0
   20.6283   19.1944   25.7099 O   0  5  0  0  0  0  0  0  0  0  0  0
   18.5397   19.6516   25.8480 O   0  0  0  0  0  0  0  0  0  0  0  0
  1  2  1  0  0  0  0
  1  3  1  0  0  0  0
  1  4  2  0  0  0  0
  4  5  1  0  0  0  0
  4  6  1  0  0  0  0
  6  7  1  0  0  0  0
  6  8  1  0  0  0  0
  6  9  1  0  0  0  0
  9 10  1  0  0  0  0
  9 11  1  0  0  0  0
  9 12  1  0  0  0  0
 12 13  1  0  0  0  0
 12 14  1  0  0  0  0
 12 15  1  0  0  0  0
 15 16  1  0  0  0  0
 15 17  1  0  0  0  0
 15 18  1  0  0  0  0
 18 19  1  0  0  0  0
 18 20  2  0  0  0  0
M  END
> <VM2 Rank>
5

> <Conf_Id>
1093

> <Probability>
4.70

> <Sum Probability>
48.66

> <Delta G>
0.632

> <G>
-21.257

> <E>
-36.290

> <-TS>
15.033

> <U+W>
-52.387

> <U>
7.828

> <W>
-60.214

> <W(PB)>
-62.457

> <W(SA)>
2.242

> <Valence>
9.300

> <Coulomb>
-2.080

> <VdW>
0.608

> <VdW6>
-6.341

> <VdW12>
6.949

> <Bond>
0.104

> <Angle>
2.334

> <Pdih>
6.862

> <Idih>
0.001

> <Tether>
0.000

$$$$
VeraChem MOL file


 20 19  0  0  0  0  0  0  0  0999 V2000     
   19.7218   18.9159   18.3063 C   0  0  0  0  0  0  0  0  0  0  0  0
   18.7432   19.3930   18.3237 H   0  0  0  0  0  0  0  0  0  0  0  0
   20.2156   18.8208   17.3406 H   0  0  0  0  0  0  0  0  0  0  0  0
   20.2985   18.4655   19.4235 C   0  0  0  0  0  0  0  0  0  0  0  0
   21.2791   17.9917   19.3844 H   0  0  0  0  0  0  0  0  0  0  0  0
   19.6743   18.5615   20.7979 C   0  0  0  0  0  0  0  0  0  0  0  0
   19.7369   17.5831   21.2907 H   0  0  0  0  0  0  0  0  0  0  0  0
   18.6070   18.8072   20.7138 H   0  0  0  0  0  0  0  0  0  0  0  0
   20.3831   19.6339   21.6555 C   0  0  0  0  0  0  0  0  0  0  0  0
   21.4373   19.3579   21.7953 H   0  0  0  0  0  0  0  0  0  0  0  0
   20.3820   20.5845   21.1045 H   0  0  0  0  0  0  0  0  0  0  0  0
   19.7172   19.8615   23.0335 C   0  0  0  0  0  0  0  0  0  0  0  0
   18.6662   20.1506   22.8948 H   0  0  0  0  0  0  0  0  0  0  0  0
   20.2098   20.7111   23.5266 H   0  0  0  0  0  0  0  0  0  0  0  0
   19.7959   18.6282   23.9703 C   0  0  0  0  0  0  0  0  0  0  0  0
   19.2360   17.7859   23.5485 H   0  0  0  0  0  0  0  0  0  0  0  0
   20.8374   18.3038   24.0825 H   0  0  0  0  0  0  0  0  0  0  0  0
   19.2353   18.9075   25.3601 C   0  0  0  0  0  0  0  0  0  0  0  0
   19.9948   19.3259   26.2115 O   0  5  0  0  0  0  0  0  0  0  0  0
   18.0500   18.7181   25.5495 O   0  0  0  0  0  0  0  0  0  0  0  0
  1  2  1  0  0  0  0
  1  3  1  0  0  0  0
  1  4  2  0  0  0  0
  4  5  1  0  0  0  0
  4  6  1  0  0  0  0
  6  7  1  0  0  0  0
  6  8  1  0  0  0  0
  6  9  1  0  0  0  0
  9 10  1  0  0  0  0
  9 11  1  0  0  0  0
  9 12  1  0  0  0  0
 12 13  1  0  0  0  0
 12 14  1  0  0  0  0
 12 15  1  0  0  0  0
 15 16  1  0  0  0  0
 15 17  1  0  0  0  0
 15 18  1  0  0  0  0
 18 19  1  0  0  0  0
 18 20  2  0  0  0  0
M  END
> <VM2 Rank>
6

> <Conf_Id>
902

> <Probability>
3.95

> <Sum Probability>
52.60

> <Delta G>
0.737

> <G>
-21.153

> <E>
-36.159

> <-TS>
15.007

> <U+W>
-52.256

> <U>
7.491

> <W>
-59.747

> <W(PB)>
-61.973

> <W(SA)>
2.226

> <Valence>
9.604

> <Coulomb>
-2.799

> <VdW>
0.686

> <VdW6>
-6.435

> <VdW12>
7.121

> <Bond>
0.124

> <Angle>
2.493

> <Pdih>
6.986

> <Idih>
0.001

> <Tether>
0.000

$$$$
VeraChem MOL file


 20 19  0  0  0  0  0  0  0  0999 V2000     
   18.6388   19.5593   19.3942 C   0  0  0  0  0  0  0  0  0  0  0  0
   17.7306   19.2213   18.8984 H   0  0  0  0  0  0  0  0  0  0  0  0
   18.7026   20.6135   19.6590 H   0  0  0  0  0  0  0  0  0  0  0  0
   19.6324   18.7100   19.6688 C   0  0  0  0  0  0  0  0  0  0  0  0
   19.5476   17.6581   19.3975 H   0  0  0  0  0  0  0  0  0  0  0  0
   20.9226   19.1055   20.3552 C   0  0  0  0  0  0  0  0  0  0  0  0
   21.0131   20.1990   20.4079 H   0  0  0  0  0  0  0  0  0  0  0  0
   21.7713   18.7532   19.7540 H   0  0  0  0  0  0  0  0  0  0  0  0
   21.0368   18.5092   21.7762 C   0  0  0  0  0  0  0  0  0  0  0  0
   20.9454   17.4156   21.7234 H   0  0  0  0  0  0  0  0  0  0  0  0
   22.0397   18.7224   22.1707 H   0  0  0  0  0  0  0  0  0  0  0  0
   19.9772   19.0770   22.7481 C   0  0  0  0  0  0  0  0  0  0  0  0
   18.9687   18.8468   22.3780 H   0  0  0  0  0  0  0  0  0  0  0  0
   20.0593   20.1720   22.7864 H   0  0  0  0  0  0  0  0  0  0  0  0
   20.1380   18.5009   24.1765 C   0  0  0  0  0  0  0  0  0  0  0  0
   20.0458   17.4083   24.1563 H   0  0  0  0  0  0  0  0  0  0  0  0
   21.1343   18.7354   24.5699 H   0  0  0  0  0  0  0  0  0  0  0  0
   19.1032   19.0460   25.1544 C   0  0  0  0  0  0  0  0  0  0  0  0
   19.3625   20.0728   25.7504 O   0  5  0  0  0  0  0  0  0  0  0  0
   18.0595   18.4373   25.2841 O   0  0  0  0  0  0  0  0  0  0  0  0
  1  2  1  0  0  0  0
  1  3  1  0  0  0  0
  1  4  2  0  0  0  0
  4  5  1  0  0  0  0
  4  6  1  0  0  0  0
  6  7  1  0  0  0  0
  6  8  1  0  0  0  0
  6  9  1  0  0  0  0
  9 10  1  0  0  0  0
  9 11  1  0  0  0  0
  9 12  1  0  0  0  0
 12 13  1  0  0  0  0
 12 14  1  0  0  0  0
 12 15  1  0  0  0  0
 15 16  1  0  0  0  0
 15 17  1  0  0  0  0
 15 18  1  0  0  0  0
 18 19  1  0  0  0  0
 18 20  2  0  0  0  0
M  END
> <VM2 Rank>
7

> <Conf_Id>
1047

> <Probability>
3.86

> <Sum Probability>
56.46

> <Delta G>
0.750

> <G>
-21.140

> <E>
-36.251

> <-TS>
15.112

> <U+W>
-52.348

> <U>
8.428

> <W>
-60.776

> <W(PB)>
-62.984

> <W(SA)>
2.208

> <Valence>
9.231

> <Coulomb>
-1.304

> <VdW>
0.501

> <VdW6>
-6.515

> <VdW12>
7.016

> <Bond>
0.103

> <Angle>
2.328

> <Pdih>
6.799

> <Idih>
0.001

> <Tether>
0.000

$$$$
VeraChem MOL file


 20 19  0  0  0  0  0  0  0  0999 V2000     
   20.3964   17.5036   19.6232 C   0  0  0  0  0  0  0  0  0  0  0  0
   21.4118   17.4449   20.0117 H   0  0  0  0  0  0  0  0  0  0  0  0
   19.9723   16.5991   19.1905 H   0  0  0  0  0  0  0  0  0  0  0  0
   19.6938   18.6382   19.6769 C   0  0  0  0  0  0  0  0  0  0  0  0
   18.6779   18.6751   19.2846 H   0  0  0  0  0  0  0  0  0  0  0  0
   20.2150   19.9331   20.2631 C   0  0  0  0  0  0  0  0  0  0  0  0
   20.0722   20.7406   19.5327 H   0  0  0  0  0  0  0  0  0  0  0  0
   21.2964   19.8676   20.4449 H   0  0  0  0  0  0  0  0  0  0  0  0
   19.4934   20.3144   21.5753 C   0  0  0  0  0  0  0  0  0  0  0  0
   19.8215   21.3171   21.8820 H   0  0  0  0  0  0  0  0  0  0  0  0
   18.4118   20.3792   21.3935 H   0  0  0  0  0  0  0  0  0  0  0  0
   19.7731   19.3157   22.7216 C   0  0  0  0  0  0  0  0  0  0  0  0
   20.8562   19.2397   22.8901 H   0  0  0  0  0  0  0  0  0  0  0  0
   19.4248   18.3131   22.4374 H   0  0  0  0  0  0  0  0  0  0  0  0
   19.0781   19.7406   24.0386 C   0  0  0  0  0  0  0  0  0  0  0  0
   19.4261   20.7336   24.3475 H   0  0  0  0  0  0  0  0  0  0  0  0
   17.9938   19.8086   23.8892 H   0  0  0  0  0  0  0  0  0  0  0  0
   19.3389   18.7703   25.1851 C   0  0  0  0  0  0  0  0  0  0  0  0
   20.3231   18.9492   25.8751 O   0  5  0  0  0  0  0  0  0  0  0  0
   18.5591   17.8529   25.3492 O   0  0  0  0  0  0  0  0  0  0  0  0
  1  2  1  0  0  0  0
  1  3  1  0  0  0  0
  1  4  2  0  0  0  0
  4  5  1  0  0  0  0
  4  6  1  0  0  0  0
  6  7  1  0  0  0  0
  6  8  1  0  0  0  0
  6  9  1  0  0  0  0
  9 10  1  0  0  0  0
  9 11  1  0  0  0  0
  9 12  1  0  0  0  0
 12 13  1  0  0  0  0
 12 14  1  0  0  0  0
 12 15  1  0  0  0  0
 15 16  1  0  0  0  0
 15 17  1  0  0  0  0
 15 18  1  0  0  0  0
 18 19  1  0  0  0  0
 18 20  2  0  0  0  0
M  END
> <VM2 Rank>
8

> <Conf_Id>
712

> <Probability>
3.80

> <Sum Probability>
60.26

> <Delta G>
0.760

> <G>
-21.130

> <E>
-36.242

> <-TS>
15.112

> <U+W>
-52.338

> <U>
8.429

> <W>
-60.767

> <W(PB)>
-62.976

> <W(SA)>
2.209

> <Valence>
9.230

> <Coulomb>
-1.303

> <VdW>
0.502

> <VdW6>
-6.515

> <VdW12>
7.017

> <Bond>
0.103

> <Angle>
2.328

> <Pdih>
6.799

> <Idih>
0.000

> <Tether>
0.000

$$$$
VeraChem MOL file


 20 19  0  0  0  0  0  0  0  0999 V2000     
   19.8316   18.5362   18.3333 C   0  0  0  0  0  0  0  0  0  0  0  0
   20.2358   18.7514   17.3456 H   0  0  0  0  0  0  0  0  0  0  0  0
   19.2550   17.6199   18.4499 H   0  0  0  0  0  0  0  0  0  0  0  0
   20.0390   19.3654   19.3595 C   0  0  0  0  0  0  0  0  0  0  0  0
   20.6196   20.2772   19.2218 H   0  0  0  0  0  0  0  0  0  0  0  0
   19.5092   19.1338   20.7572 C   0  0  0  0  0  0  0  0  0  0  0  0
   18.7384   18.3512   20.7462 H   0  0  0  0  0  0  0  0  0  0  0  0
   19.0250   20.0511   21.1151 H   0  0  0  0  0  0  0  0  0  0  0  0
   20.6457   18.7231   21.7203 C   0  0  0  0  0  0  0  0  0  0  0  0
   21.1693   17.8539   21.2988 H   0  0  0  0  0  0  0  0  0  0  0  0
   21.3871   19.5314   21.7830 H   0  0  0  0  0  0  0  0  0  0  0  0
   20.1502   18.3597   23.1404 C   0  0  0  0  0  0  0  0  0  0  0  0
   20.9991   17.9735   23.7214 H   0  0  0  0  0  0  0  0  0  0  0  0
   19.4182   17.5424   23.0805 H   0  0  0  0  0  0  0  0  0  0  0  0
   19.5278   19.5574   23.9041 C   0  0  0  0  0  0  0  0  0  0  0  0
   20.2339   20.3958   23.9335 H   0  0  0  0  0  0  0  0  0  0  0  0
   18.6230   19.9111   23.3972 H   0  0  0  0  0  0  0  0  0  0  0  0
   19.1487   19.2081   25.3387 C   0  0  0  0  0  0  0  0  0  0  0  0
   19.9819   19.3712   26.2081 O   0  5  0  0  0  0  0  0  0  0  0  0
   18.0371   18.7632   25.5464 O   0  0  0  0  0  0  0  0  0  0  0  0
  1  2  1  0  0  0  0
  1  3  1  0  0  0  0
  1  4  2  0  0  0  0
  4  5  1  0  0  0  0
  4  6  1  0  0  0  0
  6  7  1  0  0  0  0
  6  8  1  0  0  0  0
  6  9  1  0  0  0  0
  9 10  1  0  0  0  0
  9 11  1  0  0  0  0
  9 12  1  0  0  0  0
 12 13  1  0  0  0  0
 12 14  1  0  0  0  0
 12 15  1  0  0  0  0
 15 16  1  0  0  0  0
 15 17  1  0  0  0  0
 15 18  1  0  0  0  0
 18 19  1  0  0  0  0
 18 20  2  0  0  0  0
M  END
> <VM2 Rank>
9

> <Conf_Id>
373

> <Probability>
3.72

> <Sum Probability>
63.98

> <Delta G>
0.772

> <G>
-21.118

> <E>
-36.124

> <-TS>
15.006

> <U+W>
-52.220

> <U>
7.491

> <W>
-59.712

> <W(PB)>
-61.947

> <W(SA)>
2.236

> <Valence>
9.604

> <Coulomb>
-2.799

> <VdW>
0.686

> <VdW6>
-6.435

> <VdW12>
7.121

> <Bond>
0.124

> <Angle>
2.493

> <Pdih>
6.986

> <Idih>
0.001

> <Tether>
0.000

$$$$
VeraChem MOL file


 20 19  0  0  0  0  0  0  0  0999 V2000     
   20.7498   18.7248   18.7014 C   0  0  0  0  0  0  0  0  0  0  0  0
   21.6421   18.9994   19.2599 H   0  0  0  0  0  0  0  0  0  0  0  0
   20.8793   18.5153   17.6409 H   0  0  0  0  0  0  0  0  0  0  0  0
   19.5427   18.6406   19.2720 C   0  0  0  0  0  0  0  0  0  0  0  0
   18.6860   18.3590   18.6601 H   0  0  0  0  0  0  0  0  0  0  0  0
   19.2062   18.9030   20.7305 C   0  0  0  0  0  0  0  0  0  0  0  0
   18.7966   17.9813   21.1623 H   0  0  0  0  0  0  0  0  0  0  0  0
   18.3935   19.6401   20.7761 H   0  0  0  0  0  0  0  0  0  0  0  0
   20.3901   19.4061   21.5934 C   0  0  0  0  0  0  0  0  0  0  0  0
   21.1831   18.6462   21.6152 H   0  0  0  0  0  0  0  0  0  0  0  0
   20.8210   20.2996   21.1213 H   0  0  0  0  0  0  0  0  0  0  0  0
   19.9853   19.7699   23.0422 C   0  0  0  0  0  0  0  0  0  0  0  0
   19.1959   20.5340   23.0270 H   0  0  0  0  0  0  0  0  0  0  0  0
   20.8493   20.2272   23.5441 H   0  0  0  0  0  0  0  0  0  0  0  0
   19.5121   18.5524   23.8783 C   0  0  0  0  0  0  0  0  0  0  0  0
   18.5947   18.1265   23.4570 H   0  0  0  0  0  0  0  0  0  0  0  0
   20.2742   17.7640   23.8638 H   0  0  0  0  0  0  0  0  0  0  0  0
   19.2305   18.9108   25.3330 C   0  0  0  0  0  0  0  0  0  0  0  0
   20.1422   18.8249   26.1318 O   0  5  0  0  0  0  0  0  0  0  0  0
   18.1121   19.2855   25.6254 O   0  0  0  0  0  0  0  0  0  0  0  0
  1  2  1  0  0  0  0
  1  3  1  0  0  0  0
  1  4  2  0  0  0  0
  4  5  1  0  0  0  0
  4  6  1  0  0  0  0
  6  7  1  0  0  0  0
  6  8  1  0  0  0  0
  6  9  1  0  0  0  0
  9 10  1  0  0  0  0
  9 11  1  0  0  0  0
  9 12  1  0  0  0  0
 12 13  1  0  0  0  0
 12 14  1  0  0  0  0
 12 15  1  0  0  0  0
 15 16  1  0  0  0  0
 15 17  1  0  0  0  0
 15 18  1  0  0  0  0
 18 19  1  0  0  0  0
 18 20  2  0  0  0  0
M  END
> <VM2 Rank>
10

> <Conf_Id>
159

> <Probability>
3.61

> <Sum Probability>
67.59

> <Delta G>
0.790

> <G>
-21.100

> <E>
-36.457

> <-TS>
15.358

> <U+W>
-52.554

> <U>
7.428

> <W>
-59.981

> <W(PB)>
-62.178

> <W(SA)>
2.196

> <Valence>
8.549

> <Coulomb>
-2.540

> <VdW>
1.419

> <VdW6>
-7.115

> <VdW12>
8.535

> <Bond>
0.184

> <Angle>
3.112

> <Pdih>
5.252

> <Idih>
0.001

> <Tether>
0.000

$$$$
VeraChem MOL file


 20 19  0  0  0  0  0  0  0  0999 V2000     
   20.5528   17.9815   18.7232 C   0  0  0  0  0  0  0  0  0  0  0  0
   20.8518   17.0929   19.2768 H   0  0  0  0  0  0  0  0  0  0  0  0
   20.4877   17.8984   17.6396 H   0  0  0  0  0  0  0  0  0  0  0  0
   20.2736   19.1300   19.3452 C   0  0  0  0  0  0  0  0  0  0  0  0
   19.9755   20.0078   18.7723 H   0  0  0  0  0  0  0  0  0  0  0  0
   20.3433   19.3211   20.8440 C   0  0  0  0  0  0  0  0  0  0  0  0
   20.8985   20.2410   21.0709 H   0  0  0  0  0  0  0  0  0  0  0  0
   20.9013   18.4932   21.2998 H   0  0  0  0  0  0  0  0  0  0  0  0
   18.9282   19.4048   21.4593 C   0  0  0  0  0  0  0  0  0  0  0  0
   18.3603   20.1885   20.9394 H   0  0  0  0  0  0  0  0  0  0  0  0
   18.3926   18.4626   21.2787 H   0  0  0  0  0  0  0  0  0  0  0  0
   18.9309   19.7207   22.9740 C   0  0  0  0  0  0  0  0  0  0  0  0
   17.8940   19.8754   23.3032 H   0  0  0  0  0  0  0  0  0  0  0  0
   19.4581   20.6677   23.1552 H   0  0  0  0  0  0  0  0  0  0  0  0
   19.5656   18.6008   23.8389 C   0  0  0  0  0  0  0  0  0  0  0  0
   19.0762   17.6412   23.6341 H   0  0  0  0  0  0  0  0  0  0  0  0
   20.6282   18.4823   23.5992 H   0  0  0  0  0  0  0  0  0  0  0  0
   19.4562   18.8778   25.3340 C   0  0  0  0  0  0  0  0  0  0  0  0
   20.3460   19.5111   25.8668 O   0  5  0  0  0  0  0  0  0  0  0  0
   18.4743   18.4702   25.9226 O   0  0  0  0  0  0  0  0  0  0  0  0
  1  2  1  0  0  0  0
  1  3  1  0  0  0  0
  1  4  2  0  0  0  0
  4  5  1  0  0  0  0
  4  6  1  0  0  0  0
  6  7  1  0  0  0  0
  6  8  1  0  0  0  0
  6  9  1  0  0  0  0
  9 10  1  0  0  0  0
  9 11  1  0  0  0  0
  9 12  1  0  0  0  0
 12 13  1  0  0  0  0
 12 14  1  0  0  0  0
 12 15  1  0  0  0  0
 15 16  1  0  0  0  0
 15 17  1  0  0  0  0
 15 18  1  0  0  0  0
 18 19  1  0  0  0  0
 18 20  2  0  0  0  0
M  END
> <VM2 Rank>
11

> <Conf_Id>
527

> <Probability>
3.42

> <Sum Probability>
71.01

> <Delta G>
0.822

> <G>
-21.068

> <E>
-36.064

> <-TS>
14.996

> <U+W>
-52.161

> <U>
7.601

> <W>
-59.762

> <W(PB)>
-62.010

> <W(SA)>
2.248

> <Valence>
9.602

> <Coulomb>
-2.686

> <VdW>
0.685

> <VdW6>
-6.453

> <VdW12>
7.139

> <Bond>
0.125

> <Angle>
2.485

> <Pdih>
6.991

> <Idih>
0.001

> <Tether>
0.000

$$$$
VeraChem MOL file


 20 19  0  0  0  0  0  0  0  0999 V2000     
   20.7505   18.7272   18.7014 C   0  0  0  0  0  0  0  0  0  0  0  0
   20.9746   18.8546   17.6437 H   0  0  0  0  0  0  0  0  0  0  0  0
   21.3668   18.0197   19.2519 H   0  0  0  0  0  0  0  0  0  0  0  0
   19.7615   19.4194   19.2784 C   0  0  0  0  0  0  0  0  0  0  0  0
   19.1795   20.1151   18.6744 H   0  0  0  0  0  0  0  0  0  0  0  0
   19.3316   19.3487   20.7342 C   0  0  0  0  0  0  0  0  0  0  0  0
   18.2536   19.1424   20.7721 H   0  0  0  0  0  0  0  0  0  0  0  0
   19.4602   20.3422   21.1815 H   0  0  0  0  0  0  0  0  0  0  0  0
   20.0762   18.2895   21.5843 C   0  0  0  0  0  0  0  0  0  0  0  0
   19.9806   17.3096   21.0969 H   0  0  0  0  0  0  0  0  0  0  0  0
   21.1490   18.5246   21.6142 H   0  0  0  0  0  0  0  0  0  0  0  0
   19.5352   18.1681   23.0291 C   0  0  0  0  0  0  0  0  0  0  0  0
   20.0323   17.3201   23.5205 H   0  0  0  0  0  0  0  0  0  0  0  0
   18.4633   17.9273   23.0058 H   0  0  0  0  0  0  0  0  0  0  0  0
   19.7619   19.4410   23.8855 C   0  0  0  0  0  0  0  0  0  0  0  0
   20.8231   19.7171   23.8797 H   0  0  0  0  0  0  0  0  0  0  0  0
   19.2025   20.2888   23.4746 H   0  0  0  0  0  0  0  0  0  0  0  0
   19.3286   19.2599   25.3358 C   0  0  0  0  0  0  0  0  0  0  0  0
   20.1481   18.8461   26.1320 O   0  5  0  0  0  0  0  0  0  0  0  0
   18.1774   19.5181   25.6273 O   0  0  0  0  0  0  0  0  0  0  0  0
  1  2  1  0  0  0  0
  1  3  1  0  0  0  0
  1  4  2  0  0  0  0
  4  5  1  0  0  0  0
  4  6  1  0  0  0  0
  6  7  1  0  0  0  0
  6  8  1  0  0  0  0
  6  9  1  0  0  0  0
  9 10  1  0  0  0  0
  9 11  1  0  0  0  0
  9 12  1  0  0  0  0
 12 13  1  0  0  0  0
 12 14  1  0  0  0  0
 12 15  1  0  0  0  0
 15 16  1  0  0  0  0
 15 17  1  0  0  0  0
 15 18  1  0  0  0  0
 18 19  1  0  0  0  0
 18 20  2  0  0  0  0
M  END
> <VM2 Rank>
12

> <Conf_Id>
1081

> <Probability>
3.35

> <Sum Probability>
74.36

> <Delta G>
0.835

> <G>
-21.055

> <E>
-36.411

> <-TS>
15.356

> <U+W>
-52.507

> <U>
7.428

> <W>
-59.935

> <W(PB)>
-62.137

> <W(SA)>
2.203

> <Valence>
8.548

> <Coulomb>
-2.540

> <VdW>
1.420

> <VdW6>
-7.116

> <VdW12>
8.536

> <Bond>
0.184

> <Angle>
3.112

> <Pdih>
5.251

> <Idih>
0.001

> <Tether>
0.000

$$$$
VeraChem MOL file


 20 19  0  0  0  0  0  0  0  0999 V2000     
   20.4087   17.9380   18.7046 C   0  0  0  0  0  0  0  0  0  0  0  0
   20.7588   17.9799   17.6746 H   0  0  0  0  0  0  0  0  0  0  0  0
   20.5224   16.9936   19.2344 H   0  0  0  0  0  0  0  0  0  0  0  0
   19.8638   19.0064   19.2923 C   0  0  0  0  0  0  0  0  0  0  0  0
   19.7596   19.9426   18.7443 H   0  0  0  0  0  0  0  0  0  0  0  0
   19.3544   19.0231   20.7165 C   0  0  0  0  0  0  0  0  0  0  0  0
   19.2491   17.9953   21.0867 H   0  0  0  0  0  0  0  0  0  0  0  0
   18.3534   19.4739   20.7425 H   0  0  0  0  0  0  0  0  0  0  0  0
   20.3059   19.8201   21.6370 C   0  0  0  0  0  0  0  0  0  0  0  0
   21.2925   19.3368   21.6528 H   0  0  0  0  0  0  0  0  0  0  0  0
   20.4580   20.8209   21.2100 H   0  0  0  0  0  0  0  0  0  0  0  0
   19.7788   19.9764   23.0834 C   0  0  0  0  0  0  0  0  0  0  0  0
   18.7963   20.4682   23.0698 H   0  0  0  0  0  0  0  0  0  0  0  0
   20.4535   20.6470   23.6334 H   0  0  0  0  0  0  0  0  0  0  0  0
   19.6755   18.6340   23.8531 C   0  0  0  0  0  0  0  0  0  0  0  0
   18.9395   17.9733   23.3813 H   0  0  0  0  0  0  0  0  0  0  0  0
   20.6400   18.1126   23.8358 H   0  0  0  0  0  0  0  0  0  0  0  0
   19.2646   18.8200   25.3093 C   0  0  0  0  0  0  0  0  0  0  0  0
   20.1407   18.9725   26.1375 O   0  5  0  0  0  0  0  0  0  0  0  0
   18.0787   18.8274   25.5744 O   0  0  0  0  0  0  0  0  0  0  0  0
  1  2  1  0  0  0  0
  1  3  1  0  0  0  0
  1  4  2  0  0  0  0
  4  5  1  0  0  0  0
  4  6  1  0  0  0  0
  6  7  1  0  0  0  0
  6  8  1  0  0  0  0
  6  9  1  0  0  0  0
  9 10  1  0  0  0  0
  9 11  1  0  0  0  0
  9 12  1  0  0  0  0
 12 13  1  0  0  0  0
 12 14  1  0  0  0  0
 12 15  1  0  0  0  0
 15 16  1  0  0  0  0
 15 17  1  0  0  0  0
 15 18  1  0  0  0  0
 18 19  1  0  0  0  0
 18 20  2  0  0  0  0
M  END
> <VM2 Rank>
13

> <Conf_Id>
857

> <Probability>
3.23

> <Sum Probability>
77.59

> <Delta G>
0.856

> <G>
-21.034

> <E>
-36.029

> <-TS>
14.996

> <U+W>
-52.126

> <U>
7.601

> <W>
-59.727

> <W(PB)>
-61.964

> <W(SA)>
2.236

> <Valence>
9.602

> <Coulomb>
-2.686

> <VdW>
0.685

> <VdW6>
-6.453

> <VdW12>
7.139

> <Bond>
0.125

> <Angle>
2.485

> <Pdih>
6.991

> <Idih>
0.001

> <Tether>
0.000

$$$$
VeraChem MOL file


 20 19  0  0  0  0  0  0  0  0999 V2000     
   19.8561   17.5665   19.8301 C   0  0  0  0  0  0  0  0  0  0  0  0
   20.1967   16.6519   19.3480 H   0  0  0  0  0  0  0  0  0  0  0  0
   18.9628   17.4943   20.4465 H   0  0  0  0  0  0  0  0  0  0  0  0
   20.5161   18.7173   19.6579 C   0  0  0  0  0  0  0  0  0  0  0  0
   21.4043   18.7281   19.0266 H   0  0  0  0  0  0  0  0  0  0  0  0
   20.1671   20.0676   20.2642 C   0  0  0  0  0  0  0  0  0  0  0  0
   19.7572   20.7102   19.4738 H   0  0  0  0  0  0  0  0  0  0  0  0
   21.0938   20.5618   20.5852 H   0  0  0  0  0  0  0  0  0  0  0  0
   19.1837   20.0450   21.4606 C   0  0  0  0  0  0  0  0  0  0  0  0
   18.9014   21.0798   21.6981 H   0  0  0  0  0  0  0  0  0  0  0  0
   18.2544   19.5343   21.1756 H   0  0  0  0  0  0  0  0  0  0  0  0
   19.7916   19.3954   22.7256 C   0  0  0  0  0  0  0  0  0  0  0  0
   20.7033   19.9354   23.0158 H   0  0  0  0  0  0  0  0  0  0  0  0
   20.0923   18.3608   22.5132 H   0  0  0  0  0  0  0  0  0  0  0  0
   18.7950   19.4011   23.9109 C   0  0  0  0  0  0  0  0  0  0  0  0
   18.4977   20.4289   24.1512 H   0  0  0  0  0  0  0  0  0  0  0  0
   17.8836   18.8542   23.6410 H   0  0  0  0  0  0  0  0  0  0  0  0
   19.3716   18.7681   25.1722 C   0  0  0  0  0  0  0  0  0  0  0  0
   19.9895   19.4793   25.9397 O   0  5  0  0  0  0  0  0  0  0  0  0
   19.2004   17.5778   25.3468 O   0  0  0  0  0  0  0  0  0  0  0  0
  1  2  1  0  0  0  0
  1  3  1  0  0  0  0
  1  4  2  0  0  0  0
  4  5  1  0  0  0  0
  4  6  1  0  0  0  0
  6  7  1  0  0  0  0
  6  8  1  0  0  0  0
  6  9  1  0  0  0  0
  9 10  1  0  0  0  0
  9 11  1  0  0  0  0
  9 12  1  0  0  0  0
 12 13  1  0  0  0  0
 12 14  1  0  0  0  0
 12 15  1  0  0  0  0
 15 16  1  0  0  0  0
 15 17  1  0  0  0  0
 15 18  1  0  0  0  0
 18 19  1  0  0  0  0
 18 20  2  0  0  0  0
M  END
> <VM2 Rank>
14

> <Conf_Id>
832

> <Probability>
1.68

> <Sum Probability>
79.27

> <Delta G>
1.245

> <G>
-20.645

> <E>
-36.098

> <-TS>
15.454

> <U+W>
-52.195

> <U>
8.773

> <W>
-60.968

> <W(PB)>
-63.158

> <W(SA)>
2.191

> <Valence>
8.762

> <Coulomb>
-1.079

> <VdW>
1.090

> <VdW6>
-7.279

> <VdW12>
8.369

> <Bond>
0.166

> <Angle>
3.199

> <Pdih>
5.396

> <Idih>
0.000

> <Tether>
0.000

$$$$
VeraChem MOL file


 20 19  0  0  0  0  0  0  0  0999 V2000     
   20.9383   17.8928   19.9698 C   0  0  0  0  0  0  0  0  0  0  0  0
   21.2742   16.9767   19.4871 H   0  0  0  0  0  0  0  0  0  0  0  0
   21.5538   18.2753   20.7809 H   0  0  0  0  0  0  0  0  0  0  0  0
   19.8202   18.5075   19.5680 C   0  0  0  0  0  0  0  0  0  0  0  0
   19.2457   18.0773   18.7480 H   0  0  0  0  0  0  0  0  0  0  0  0
   19.2250   19.7835   20.1427 C   0  0  0  0  0  0  0  0  0  0  0  0
   18.1344   19.6695   20.2035 H   0  0  0  0  0  0  0  0  0  0  0  0
   19.3895   20.5994   19.4264 H   0  0  0  0  0  0  0  0  0  0  0  0
   19.7510   20.2161   21.5338 C   0  0  0  0  0  0  0  0  0  0  0  0
   20.8443   20.3151   21.5096 H   0  0  0  0  0  0  0  0  0  0  0  0
   19.3598   21.2179   21.7572 H   0  0  0  0  0  0  0  0  0  0  0  0
   19.3202   19.2533   22.6649 C   0  0  0  0  0  0  0  0  0  0  0  0
   19.6905   18.2397   22.4613 H   0  0  0  0  0  0  0  0  0  0  0  0
   18.2238   19.1879   22.6960 H   0  0  0  0  0  0  0  0  0  0  0  0
   19.8441   19.7174   24.0462 C   0  0  0  0  0  0  0  0  0  0  0  0
   20.9391   19.7754   24.0351 H   0  0  0  0  0  0  0  0  0  0  0  0
   19.4680   20.7214   24.2764 H   0  0  0  0  0  0  0  0  0  0  0  0
   19.4303   18.7858   25.1798 C   0  0  0  0  0  0  0  0  0  0  0  0
   20.1755   17.8717   25.4725 O   0  5  0  0  0  0  0  0  0  0  0  0
   18.3664   18.9900   25.7304 O   0  0  0  0  0  0  0  0  0  0  0  0
  1  2  1  0  0  0  0
  1  3  1  0  0  0  0
  1  4  2  0  0  0  0
  4  5  1  0  0  0  0
  4  6  1  0  0  0  0
  6  7  1  0  0  0  0
  6  8  1  0  0  0  0
  6  9  1  0  0  0  0
  9 10  1  0  0  0  0
  9 11  1  0  0  0  0
  9 12  1  0  0  0  0
 12 13  1  0  0  0  0
 12 14  1  0  0  0  0
 12 15  1  0  0  0  0
 15 16  1  0  0  0  0
 15 17  1  0  0  0  0
 15 18  1  0  0  0  0
 18 19  1  0  0  0  0
 18 20  2  0  0  0  0
M  END
> <VM2 Rank>
15

> <Conf_Id>
1025

> <Probability>
1.53

> <Sum Probability>
80.80

> <Delta G>
1.302

> <G>
-20.587

> <E>
-36.041

> <-TS>
15.454

> <U+W>
-52.138

> <U>
8.773

> <W>
-60.910

> <W(PB)>
-63.120

> <W(SA)>
2.210

> <Valence>
8.762

> <Coulomb>
-1.079

> <VdW>
1.090

> <VdW6>
-7.279

> <VdW12>
8.369

> <Bond>
0.166

> <Angle>
3.199

> <Pdih>
5.396

> <Idih>
0.000

> <Tether>
0.000

$$$$
VeraChem MOL file


 20 19  0  0  0  0  0  0  0  0999 V2000     
   19.5297   18.5191   18.5565 C   0  0  0  0  0  0  0  0  0  0  0  0
   18.7844   18.5315   17.7630 H   0  0  0  0  0  0  0  0  0  0  0  0
   20.3346   17.7901   18.4765 H   0  0  0  0  0  0  0  0  0  0  0  0
   19.4544   19.3649   19.5873 C   0  0  0  0  0  0  0  0  0  0  0  0
   18.6399   20.0863   19.6490 H   0  0  0  0  0  0  0  0  0  0  0  0
   20.4511   19.4068   20.7242 C   0  0  0  0  0  0  0  0  0  0  0  0
   20.7664   20.4443   20.8983 H   0  0  0  0  0  0  0  0  0  0  0  0
   21.3550   18.8419   20.4585 H   0  0  0  0  0  0  0  0  0  0  0  0
   19.8441   18.8269   22.0189 C   0  0  0  0  0  0  0  0  0  0  0  0
   18.9415   19.3950   22.2837 H   0  0  0  0  0  0  0  0  0  0  0  0
   19.5257   17.7907   21.8396 H   0  0  0  0  0  0  0  0  0  0  0  0
   20.8492   18.8652   23.1922 C   0  0  0  0  0  0  0  0  0  0  0  0
   21.1616   19.9017   23.3813 H   0  0  0  0  0  0  0  0  0  0  0  0
   21.7538   18.3084   22.9126 H   0  0  0  0  0  0  0  0  0  0  0  0
   20.2677   18.2583   24.4955 C   0  0  0  0  0  0  0  0  0  0  0  0
   19.9253   17.2320   24.3158 H   0  0  0  0  0  0  0  0  0  0  0  0
   21.0548   18.2018   25.2565 H   0  0  0  0  0  0  0  0  0  0  0  0
   19.1136   19.0595   25.0914 C   0  0  0  0  0  0  0  0  0  0  0  0
   19.3758   20.0917   25.6769 O   0  5  0  0  0  0  0  0  0  0  0  0
   17.9855   18.6256   24.9650 O   0  0  0  0  0  0  0  0  0  0  0  0
  1  2  1  0  0  0  0
  1  3  1  0  0  0  0
  1  4  2  0  0  0  0
  4  5  1  0  0  0  0
  4  6  1  0  0  0  0
  6  7  1  0  0  0  0
  6  8  1  0  0  0  0
  6  9  1  0  0  0  0
  9 10  1  0  0  0  0
  9 11  1  0  0  0  0
  9 12  1  0  0  0  0
 12 13  1  0  0  0  0
 12 14  1  0  0  0  0
 12 15  1  0  0  0  0
 15 16  1  0  0  0  0
 15 17  1  0  0  0  0
 15 18  1  0  0  0  0
 18 19  1  0  0  0  0
 18 20  2  0  0  0  0
M  END
> <VM2 Rank>
16

> <Conf_Id>
539

> <Probability>
1.44

> <Sum Probability>
82.24

> <Delta G>
1.337

> <G>
-20.553

> <E>
-35.757

> <-TS>
15.204

> <U+W>
-51.854

> <U>
8.963

> <W>
-60.817

> <W(PB)>
-63.056

> <W(SA)>
2.240

> <Valence>
9.327

> <Coulomb>
-0.781

> <VdW>
0.417

> <VdW6>
-6.635

> <VdW12>
7.051

> <Bond>
0.105

> <Angle>
2.399

> <Pdih>
6.822

> <Idih>
0.000

> <Tether>
0.000

$$$$
VeraChem MOL file


 20 19  0  0  0  0  0  0  0  0999 V2000     
   19.1056   19.7951   18.8822 C   0  0  0  0  0  0  0  0  0  0  0  0
   18.4275   19.6314   18.0463 H   0  0  0  0  0  0  0  0  0  0  0  0
   19.3078   20.8259   19.1688 H   0  0  0  0  0  0  0  0  0  0  0  0
   19.6636   18.7688   19.5294 C   0  0  0  0  0  0  0  0  0  0  0  0
   19.4473   17.7443   19.2271 H   0  0  0  0  0  0  0  0  0  0  0  0
   20.6139   18.9183   20.6965 C   0  0  0  0  0  0  0  0  0  0  0  0
   20.9717   19.9546   20.7653 H   0  0  0  0  0  0  0  0  0  0  0  0
   21.4987   18.2886   20.5326 H   0  0  0  0  0  0  0  0  0  0  0  0
   19.9340   18.5207   22.0234 C   0  0  0  0  0  0  0  0  0  0  0  0
   19.0464   19.1500   22.1778 H   0  0  0  0  0  0  0  0  0  0  0  0
   19.5797   17.4829   21.9568 H   0  0  0  0  0  0  0  0  0  0  0  0
   20.8935   18.6648   23.2263 C   0  0  0  0  0  0  0  0  0  0  0  0
   21.2388   19.7051   23.3045 H   0  0  0  0  0  0  0  0  0  0  0  0
   21.7857   18.0476   23.0541 H   0  0  0  0  0  0  0  0  0  0  0  0
   20.2384   18.2392   24.5660 C   0  0  0  0  0  0  0  0  0  0  0  0
   19.8640   17.2108   24.4949 H   0  0  0  0  0  0  0  0  0  0  0  0
   20.9925   18.2483   25.3618 H   0  0  0  0  0  0  0  0  0  0  0  0
   19.0938   19.1447   25.0119 C   0  0  0  0  0  0  0  0  0  0  0  0
   19.3725   20.2312   25.4798 O   0  5  0  0  0  0  0  0  0  0  0  0
   17.9557   18.7353   24.8924 O   0  0  0  0  0  0  0  0  0  0  0  0
  1  2  1  0  0  0  0
  1  3  1  0  0  0  0
  1  4  2  0  0  0  0
  4  5  1  0  0  0  0
  4  6  1  0  0  0  0
  6  7  1  0  0  0  0
  6  8  1  0  0  0  0
  6  9  1  0  0  0  0
  9 10  1  0  0  0  0
  9 11  1  0  0  0  0
  9 12  1  0  0  0  0
 12 13  1  0  0  0  0
 12 14  1  0  0  0  0
 12 15  1  0  0  0  0
 15 16  1  0  0  0  0
 15 17  1  0  0  0  0
 15 18  1  0  0  0  0
 18 19  1  0  0  0  0
 18 20  2  0  0  0  0
M  END
> <VM2 Rank>
17

> <Conf_Id>
232

> <Probability>
1.31

> <Sum Probability>
83.55

> <Delta G>
1.394

> <G>
-20.496

> <E>
-35.703

> <-TS>
15.207

> <U+W>
-51.799

> <U>
9.411

> <W>
-61.210

> <W(PB)>
-63.461

> <W(SA)>
2.251

> <Valence>
9.329

> <Coulomb>
-0.324

> <VdW>
0.406

> <VdW6>
-6.640

> <VdW12>
7.046

> <Bond>
0.105

> <Angle>
2.401

> <Pdih>
6.823

> <Idih>
0.000

> <Tether>
0.000

$$$$
VeraChem MOL file


 20 19  0  0  0  0  0  0  0  0999 V2000     
   19.9491   18.1921   18.6168 C   0  0  0  0  0  0  0  0  0  0  0  0
   20.2711   17.3725   17.9766 H   0  0  0  0  0  0  0  0  0  0  0  0
   19.0818   18.7672   18.2964 H   0  0  0  0  0  0  0  0  0  0  0  0
   20.5943   18.4761   19.7512 C   0  0  0  0  0  0  0  0  0  0  0  0
   21.4599   17.8874   20.0543 H   0  0  0  0  0  0  0  0  0  0  0  0
   20.2066   19.5975   20.6891 C   0  0  0  0  0  0  0  0  0  0  0  0
   19.5064   20.2833   20.1929 H   0  0  0  0  0  0  0  0  0  0  0  0
   21.0974   20.1862   20.9459 H   0  0  0  0  0  0  0  0  0  0  0  0
   19.5613   19.0474   21.9784 C   0  0  0  0  0  0  0  0  0  0  0  0
   18.6734   18.4553   21.7172 H   0  0  0  0  0  0  0  0  0  0  0  0
   20.2644   18.3636   22.4739 H   0  0  0  0  0  0  0  0  0  0  0  0
   19.1616   20.1810   22.9498 C   0  0  0  0  0  0  0  0  0  0  0  0
   18.4715   20.8675   22.4410 H   0  0  0  0  0  0  0  0  0  0  0  0
   20.0495   20.7688   23.2215 H   0  0  0  0  0  0  0  0  0  0  0  0
   18.4832   19.6497   24.2392 C   0  0  0  0  0  0  0  0  0  0  0  0
   18.1154   20.4938   24.8343 H   0  0  0  0  0  0  0  0  0  0  0  0
   17.6102   19.0372   23.9832 H   0  0  0  0  0  0  0  0  0  0  0  0
   19.4084   18.8296   25.1338 C   0  0  0  0  0  0  0  0  0  0  0  0
   20.2340   19.4227   25.7999 O   0  5  0  0  0  0  0  0  0  0  0  0
   19.2725   17.6220   25.1498 O   0  0  0  0  0  0  0  0  0  0  0  0
  1  2  1  0  0  0  0
  1  3  1  0  0  0  0
  1  4  2  0  0  0  0
  4  5  1  0  0  0  0
  4  6  1  0  0  0  0
  6  7  1  0  0  0  0
  6  8  1  0  0  0  0
  6  9  1  0  0  0  0
  9 10  1  0  0  0  0
  9 11  1  0  0  0  0
  9 12  1  0  0  0  0
 12 13  1  0  0  0  0
 12 14  1  0  0  0  0
 12 15  1  0  0  0  0
 15 16  1  0  0  0  0
 15 17  1  0  0  0  0
 15 18  1  0  0  0  0
 18 19  1  0  0  0  0
 18 20  2  0  0  0  0
M  END
> <VM2 Rank>
18

> <Conf_Id>
828

> <Probability>
1.30

> <Sum Probability>
84.86

> <Delta G>
1.398

> <G>
-20.492

> <E>
-35.696

> <-TS>
15.205

> <U+W>
-51.793

> <U>
8.964

> <W>
-60.757

> <W(PB)>
-63.007

> <W(SA)>
2.251

> <Valence>
9.326

> <Coulomb>
-0.779

> <VdW>
0.417

> <VdW6>
-6.635

> <VdW12>
7.052

> <Bond>
0.105

> <Angle>
2.399

> <Pdih>
6.821

> <Idih>
0.000

> <Tether>
0.000

$$$$
VeraChem MOL file


 20 19  0  0  0  0  0  0  0  0999 V2000     
   20.1449   17.5606   19.5008 C   0  0  0  0  0  0  0  0  0  0  0  0
   20.3875   16.9453   18.6360 H   0  0  0  0  0  0  0  0  0  0  0  0
   19.7146   17.0512   20.3605 H   0  0  0  0  0  0  0  0  0  0  0  0
   20.3732   18.8788   19.4872 C   0  0  0  0  0  0  0  0  0  0  0  0
   20.8069   19.3323   18.5962 H   0  0  0  0  0  0  0  0  0  0  0  0
   20.0888   19.8615   20.6108 C   0  0  0  0  0  0  0  0  0  0  0  0
   19.4212   20.6468   20.2317 H   0  0  0  0  0  0  0  0  0  0  0  0
   21.0237   20.3715   20.8788 H   0  0  0  0  0  0  0  0  0  0  0  0
   19.4683   19.2388   21.8833 C   0  0  0  0  0  0  0  0  0  0  0  0
   18.5219   18.7435   21.6264 H   0  0  0  0  0  0  0  0  0  0  0  0
   20.1419   18.4651   22.2771 H   0  0  0  0  0  0  0  0  0  0  0  0
   19.2101   20.3028   22.9741 C   0  0  0  0  0  0  0  0  0  0  0  0
   18.5530   21.0847   22.5697 H   0  0  0  0  0  0  0  0  0  0  0  0
   20.1549   20.7933   23.2469 H   0  0  0  0  0  0  0  0  0  0  0  0
   18.5559   19.7050   24.2468 C   0  0  0  0  0  0  0  0  0  0  0  0
   18.2899   20.5143   24.9369 H   0  0  0  0  0  0  0  0  0  0  0  0
   17.6233   19.1897   23.9870 H   0  0  0  0  0  0  0  0  0  0  0  0
   19.4536   18.7332   25.0075 C   0  0  0  0  0  0  0  0  0  0  0  0
   20.3572   19.1935   25.6773 O   0  5  0  0  0  0  0  0  0  0  0  0
   19.2189   17.5439   24.9203 O   0  0  0  0  0  0  0  0  0  0  0  0
  1  2  1  0  0  0  0
  1  3  1  0  0  0  0
  1  4  2  0  0  0  0
  4  5  1  0  0  0  0
  4  6  1  0  0  0  0
  6  7  1  0  0  0  0
  6  8  1  0  0  0  0
  6  9  1  0  0  0  0
  9 10  1  0  0  0  0
  9 11  1  0  0  0  0
  9 12  1  0  0  0  0
 12 13  1  0  0  0  0
 12 14  1  0  0  0  0
 12 15  1  0  0  0  0
 15 16  1  0  0  0  0
 15 17  1  0  0  0  0
 15 18  1  0  0  0  0
 18 19  1  0  0  0  0
 18 20  2  0  0  0  0
M  END
> <VM2 Rank>
19

> <Conf_Id>
867

> <Probability>
1.30

> <Sum Probability>
86.15

> <Delta G>
1.400

> <G>
-20.490

> <E>
-36.061

> <-TS>
15.571

> <U+W>
-52.158

> <U>
9.324

> <W>
-61.481

> <W(PB)>
-63.687

> <W(SA)>
2.205

> <Valence>
8.234

> <Coulomb>
-0.022

> <VdW>
1.111

> <VdW6>
-7.367

> <VdW12>
8.478

> <Bond>
0.158

> <Angle>
3.010

> <Pdih>
5.066

> <Idih>
0.000

> <Tether>
0.000

$$$$
VeraChem MOL file


 20 19  0  0  0  0  0  0  0  0999 V2000     
   20.6146   17.7280   19.1007 C   0  0  0  0  0  0  0  0  0  0  0  0
   20.3333   17.0205   18.3225 H   0  0  0  0  0  0  0  0  0  0  0  0
   21.6232   17.6540   19.5042 H   0  0  0  0  0  0  0  0  0  0  0  0
   19.7523   18.6472   19.5423 C   0  0  0  0  0  0  0  0  0  0  0  0
   18.7468   18.7037   19.1258 H   0  0  0  0  0  0  0  0  0  0  0  0
   20.0714   19.6615   20.6180 C   0  0  0  0  0  0  0  0  0  0  0  0
   19.7665   20.6616   20.2817 H   0  0  0  0  0  0  0  0  0  0  0  0
   21.1552   19.7032   20.7919 H   0  0  0  0  0  0  0  0  0  0  0  0
   19.3522   19.3177   21.9392 C   0  0  0  0  0  0  0  0  0  0  0  0
   18.2678   19.2800   21.7669 H   0  0  0  0  0  0  0  0  0  0  0  0
   19.6568   18.3137   22.2662 H   0  0  0  0  0  0  0  0  0  0  0  0
   19.6654   20.3471   23.0485 C   0  0  0  0  0  0  0  0  0  0  0  0
   19.3754   21.3494   22.7051 H   0  0  0  0  0  0  0  0  0  0  0  0
   20.7482   20.3771   23.2335 H   0  0  0  0  0  0  0  0  0  0  0  0
   18.9262   20.0368   24.3760 C   0  0  0  0  0  0  0  0  0  0  0  0
   19.0887   20.8561   25.0862 H   0  0  0  0  0  0  0  0  0  0  0  0
   17.8449   19.9767   24.2026 H   0  0  0  0  0  0  0  0  0  0  0  0
   19.3832   18.7482   25.0538 C   0  0  0  0  0  0  0  0  0  0  0  0
   20.4502   18.7549   25.6357 O   0  5  0  0  0  0  0  0  0  0  0  0
   18.6557   17.7765   24.9937 O   0  0  0  0  0  0  0  0  0  0  0  0
  1  2  1  0  0  0  0
  1  3  1  0  0  0  0
  1  4  2  0  0  0  0
  4  5  1  0  0  0  0
  4  6  1  0  0  0  0
  6  7  1  0  0  0  0
  6  8  1  0  0  0  0
  6  9  1  0  0  0  0
  9 10  1  0  0  0  0
  9 11  1  0  0  0  0
  9 12  1  0  0  0  0
 12 13  1  0  0  0  0
 12 14  1  0  0  0  0
 12 15  1  0  0  0  0
 15 16  1  0  0  0  0
 15 17  1  0  0  0  0
 15 18  1  0  0  0  0
 18 19  1  0  0  0  0
 18 20  2  0  0  0  0
M  END
> <VM2 Rank>
20

> <Conf_Id>
1112

> <Probability>
1.28

> <Sum Probability>
87.43

> <Delta G>
1.408

> <G>
-20.482

> <E>
-35.689

> <-TS>
15.207

> <U+W>
-51.785

> <U>
9.412

> <W>
-61.196

> <W(PB)>
-63.440

> <W(SA)>
2.243

> <Valence>
9.329

> <Coulomb>
-0.324

> <VdW>
0.406

> <VdW6>
-6.640

> <VdW12>
7.047

> <Bond>
0.105

> <Angle>
2.401

> <Pdih>
6.823

> <Idih>
0.000

> <Tether>
0.000

$$$$
VeraChem MOL file


 20 19  0  0  0  0  0  0  0  0999 V2000     
   20.7856   17.7538   19.5833 C   0  0  0  0  0  0  0  0  0  0  0  0
   21.1263   17.1680   18.7313 H   0  0  0  0  0  0  0  0  0  0  0  0
   21.2096   17.5021   20.5532 H   0  0  0  0  0  0  0  0  0  0  0  0
   19.8870   18.7322   19.4245 C   0  0  0  0  0  0  0  0  0  0  0  0
   19.4979   18.9376   18.4275 H   0  0  0  0  0  0  0  0  0  0  0  0
   19.3195   19.6296   20.5115 C   0  0  0  0  0  0  0  0  0  0  0  0
   18.2260   19.5280   20.5180 H   0  0  0  0  0  0  0  0  0  0  0  0
   19.5182   20.6760   20.2442 H   0  0  0  0  0  0  0  0  0  0  0  0
   19.8622   19.3575   21.9341 C   0  0  0  0  0  0  0  0  0  0  0  0
   19.6490   18.3165   22.2135 H   0  0  0  0  0  0  0  0  0  0  0  0
   20.9543   19.4769   21.9400 H   0  0  0  0  0  0  0  0  0  0  0  0
   19.2370   20.3109   22.9776 C   0  0  0  0  0  0  0  0  0  0  0  0
   18.1450   20.1874   22.9876 H   0  0  0  0  0  0  0  0  0  0  0  0
   19.4350   21.3505   22.6835 H   0  0  0  0  0  0  0  0  0  0  0  0
   19.7931   20.0779   24.4064 C   0  0  0  0  0  0  0  0  0  0  0  0
   20.8857   20.1731   24.4078 H   0  0  0  0  0  0  0  0  0  0  0  0
   19.4062   20.8508   25.0808 H   0  0  0  0  0  0  0  0  0  0  0  0
   19.4215   18.7235   25.0034 C   0  0  0  0  0  0  0  0  0  0  0  0
   20.2783   17.8632   25.0569 O   0  5  0  0  0  0  0  0  0  0  0  0
   18.2867   18.5694   25.4103 O   0  0  0  0  0  0  0  0  0  0  0  0
  1  2  1  0  0  0  0
  1  3  1  0  0  0  0
  1  4  2  0  0  0  0
  4  5  1  0  0  0  0
  4  6  1  0  0  0  0
  6  7  1  0  0  0  0
  6  8  1  0  0  0  0
  6  9  1  0  0  0  0
  9 10  1  0  0  0  0
  9 11  1  0  0  0  0
  9 12  1  0  0  0  0
 12 13  1  0  0  0  0
 12 14  1  0  0  0  0
 12 15  1  0  0  0  0
 15 16  1  0  0  0  0
 15 17  1  0  0  0  0
 15 18  1  0  0  0  0
 18 19  1  0  0  0  0
 18 20  2  0  0  0  0
M  END
> <VM2 Rank>
21

> <Conf_Id>
683

> <Probability>
1.15

> <Sum Probability>
88.58

> <Delta G>
1.472

> <G>
-20.418

> <E>
-35.990

> <-TS>
15.572

> <U+W>
-52.086

> <U>
9.323

> <W>
-61.410

> <W(PB)>
-63.641

> <W(SA)>
2.232

> <Valence>
8.234

> <Coulomb>
-0.022

> <VdW>
1.111

> <VdW6>
-7.367

> <VdW12>
8.478

> <Bond>
0.158

> <Angle>
3.010

> <Pdih>
5.066

> <Idih>
0.000

> <Tether>
0.000

$$$$
VeraChem MOL file


 20 19  0  0  0  0  0  0  0  0999 V2000     
   21.1012   18.4809   19.1431 C   0  0  0  0  0  0  0  0  0  0  0  0
   22.0713   18.0052   19.0102 H   0  0  0  0  0  0  0  0  0  0  0  0
   20.4256   18.4888   18.2893 H   0  0  0  0  0  0  0  0  0  0  0  0
   20.7560   19.0298   20.3107 C   0  0  0  0  0  0  0  0  0  0  0  0
   21.4481   19.0132   21.1523 H   0  0  0  0  0  0  0  0  0  0  0  0
   19.4295   19.7122   20.5680 C   0  0  0  0  0  0  0  0  0  0  0  0
   18.9616   19.9832   19.6119 H   0  0  0  0  0  0  0  0  0  0  0  0
   19.5917   20.6576   21.1007 H   0  0  0  0  0  0  0  0  0  0  0  0
   18.4473   18.8143   21.3583 C   0  0  0  0  0  0  0  0  0  0  0  0
   17.4886   19.3400   21.4644 H   0  0  0  0  0  0  0  0  0  0  0  0
   18.2380   17.9132   20.7656 H   0  0  0  0  0  0  0  0  0  0  0  0
   18.9478   18.3846   22.7601 C   0  0  0  0  0  0  0  0  0  0  0  0
   19.8705   17.7960   22.6658 H   0  0  0  0  0  0  0  0  0  0  0  0
   18.2018   17.7137   23.2080 H   0  0  0  0  0  0  0  0  0  0  0  0
   19.1896   19.5748   23.7243 C   0  0  0  0  0  0  0  0  0  0  0  0
   19.9950   20.2166   23.3498 H   0  0  0  0  0  0  0  0  0  0  0  0
   18.2867   20.1927   23.7974 H   0  0  0  0  0  0  0  0  0  0  0  0
   19.5713   19.1258   25.1302 C   0  0  0  0  0  0  0  0  0  0  0  0
   20.7488   18.9590   25.3796 O   0  5  0  0  0  0  0  0  0  0  0  0
   18.6795   18.9366   25.9337 O   0  0  0  0  0  0  0  0  0  0  0  0
  1  2  1  0  0  0  0
  1  3  1  0  0  0  0
  1  4  2  0  0  0  0
  4  5  1  0  0  0  0
  4  6  1  0  0  0  0
  6  7  1  0  0  0  0
  6  8  1  0  0  0  0
  6  9  1  0  0  0  0
  9 10  1  0  0  0  0
  9 11  1  0  0  0  0
  9 12  1  0  0  0  0
 12 13  1  0  0  0  0
 12 14  1  0  0  0  0
 12 15  1  0  0  0  0
 15 16  1  0  0  0  0
 15 17  1  0  0  0  0
 15 18  1  0  0  0  0
 18 19  1  0  0  0  0
 18 20  2  0  0  0  0
M  END
> <VM2 Rank>
22

> <Conf_Id>
507

> <Probability>
1.01

> <Sum Probability>
89.60

> <Delta G>
1.547

> <G>
-20.343

> <E>
-35.610

> <-TS>
15.267

> <U+W>
-51.707

> <U>
8.691

> <W>
-60.398

> <W(PB)>
-62.591

> <W(SA)>
2.193

> <Valence>
9.775

> <Coulomb>
-1.698

> <VdW>
0.614

> <VdW6>
-7.233

> <VdW12>
7.847

> <Bond>
0.151

> <Angle>
2.692

> <Pdih>
6.931

> <Idih>
0.001

> <Tether>
0.000

$$$$
VeraChem MOL file


 20 19  0  0  0  0  0  0  0  0999 V2000     
   19.5973   18.0276   18.9490 C   0  0  0  0  0  0  0  0  0  0  0  0
   19.1055   17.1112   18.6274 H   0  0  0  0  0  0  0  0  0  0  0  0
   20.3366   18.4619   18.2779 H   0  0  0  0  0  0  0  0  0  0  0  0
   19.3045   18.5924   20.1233 C   0  0  0  0  0  0  0  0  0  0  0  0
   18.5597   18.1427   20.7794 H   0  0  0  0  0  0  0  0  0  0  0  0
   19.9422   19.8667   20.6341 C   0  0  0  0  0  0  0  0  0  0  0  0
   19.1728   20.5314   21.0467 H   0  0  0  0  0  0  0  0  0  0  0  0
   20.3945   20.4152   19.7968 H   0  0  0  0  0  0  0  0  0  0  0  0
   21.0383   19.5951   21.6925 C   0  0  0  0  0  0  0  0  0  0  0  0
   21.8355   18.9973   21.2297 H   0  0  0  0  0  0  0  0  0  0  0  0
   21.5002   20.5489   21.9819 H   0  0  0  0  0  0  0  0  0  0  0  0
   20.5422   18.8651   22.9658 C   0  0  0  0  0  0  0  0  0  0  0  0
   21.4042   18.6786   23.6211 H   0  0  0  0  0  0  0  0  0  0  0  0
   20.1408   17.8776   22.7006 H   0  0  0  0  0  0  0  0  0  0  0  0
   19.4751   19.6609   23.7612 C   0  0  0  0  0  0  0  0  0  0  0  0
   19.8496   20.6636   23.9990 H   0  0  0  0  0  0  0  0  0  0  0  0
   18.5639   19.7854   23.1654 H   0  0  0  0  0  0  0  0  0  0  0  0
   19.0844   18.9791   25.0674 C   0  0  0  0  0  0  0  0  0  0  0  0
   19.7189   19.2500   26.0679 O   0  5  0  0  0  0  0  0  0  0  0  0
   18.1681   18.1812   25.0468 O   0  0  0  0  0  0  0  0  0  0  0  0
  1  2  1  0  0  0  0
  1  3  1  0  0  0  0
  1  4  2  0  0  0  0
  4  5  1  0  0  0  0
  4  6  1  0  0  0  0
  6  7  1  0  0  0  0
  6  8  1  0  0  0  0
  6  9  1  0  0  0  0
  9 10  1  0  0  0  0
  9 11  1  0  0  0  0
  9 12  1  0  0  0  0
 12 13  1  0  0  0  0
 12 14  1  0  0  0  0
 12 15  1  0  0  0  0
 15 16  1  0  0  0  0
 15 17  1  0  0  0  0
 15 18  1  0  0  0  0
 18 19  1  0  0  0  0
 18 20  2  0  0  0  0
M  END
> <VM2 Rank>
23

> <Conf_Id>
890

> <Probability>
0.98

> <Sum Probability>
90.58

> <Delta G>
1.565

> <G>
-20.325

> <E>
-35.591

> <-TS>
15.266

> <U+W>
-51.687

> <U>
8.691

> <W>
-60.378

> <W(PB)>
-62.583

> <W(SA)>
2.205

> <Valence>
9.775

> <Coulomb>
-1.698

> <VdW>
0.614

> <VdW6>
-7.233

> <VdW12>
7.847

> <Bond>
0.151

> <Angle>
2.692

> <Pdih>
6.931

> <Idih>
0.001

> <Tether>
0.000

$$$$
VeraChem MOL file


 20 19  0  0  0  0  0  0  0  0999 V2000     
   20.2575   18.2020   18.3039 C   0  0  0  0  0  0  0  0  0  0  0  0
   19.6540   17.3088   18.4577 H   0  0  0  0  0  0  0  0  0  0  0  0
   20.9056   18.2241   17.4294 H   0  0  0  0  0  0  0  0  0  0  0  0
   20.2096   19.2312   19.1537 C   0  0  0  0  0  0  0  0  0  0  0  0
   20.8225   20.1158   18.9818 H   0  0  0  0  0  0  0  0  0  0  0  0
   19.3347   19.2724   20.3867 C   0  0  0  0  0  0  0  0  0  0  0  0
   18.5762   18.4790   20.3415 H   0  0  0  0  0  0  0  0  0  0  0  0
   18.7920   20.2266   20.4205 H   0  0  0  0  0  0  0  0  0  0  0  0
   20.1739   19.1084   21.6711 C   0  0  0  0  0  0  0  0  0  0  0  0
   20.7178   18.1545   21.6303 H   0  0  0  0  0  0  0  0  0  0  0  0
   20.9294   19.9047   21.7181 H   0  0  0  0  0  0  0  0  0  0  0  0
   19.2958   19.1511   22.9408 C   0  0  0  0  0  0  0  0  0  0  0  0
   18.5402   18.3545   22.8947 H   0  0  0  0  0  0  0  0  0  0  0  0
   18.7506   20.1043   22.9815 H   0  0  0  0  0  0  0  0  0  0  0  0
   20.1402   18.9854   24.2323 C   0  0  0  0  0  0  0  0  0  0  0  0
   20.6821   18.0329   24.2012 H   0  0  0  0  0  0  0  0  0  0  0  0
   20.8924   19.7810   24.2881 H   0  0  0  0  0  0  0  0  0  0  0  0
   19.3463   19.0159   25.5392 C   0  0  0  0  0  0  0  0  0  0  0  0
   19.9736   18.8905   26.5721 O   0  5  0  0  0  0  0  0  0  0  0  0
   18.1394   19.1612   25.5083 O   0  0  0  0  0  0  0  0  0  0  0  0
  1  2  1  0  0  0  0
  1  3  1  0  0  0  0
  1  4  2  0  0  0  0
  4  5  1  0  0  0  0
  4  6  1  0  0  0  0
  6  7  1  0  0  0  0
  6  8  1  0  0  0  0
  6  9  1  0  0  0  0
  9 10  1  0  0  0  0
  9 11  1  0  0  0  0
  9 12  1  0  0  0  0
 12 13  1  0  0  0  0
 12 14  1  0  0  0  0
 12 15  1  0  0  0  0
 15 16  1  0  0  0  0
 15 17  1  0  0  0  0
 15 18  1  0  0  0  0
 18 19  1  0  0  0  0
 18 20  2  0  0  0  0
M  END
> <VM2 Rank>
24

> <Conf_Id>
33

> <Probability>
0.84

> <Sum Probability>
91.42

> <Delta G>
1.659

> <G>
-20.231

> <E>
-35.649

> <-TS>
15.418

> <U+W>
-51.745

> <U>
7.593

> <W>
-59.338

> <W(PB)>
-61.574

> <W(SA)>
2.236

> <Valence>
9.570

> <Coulomb>
-3.091

> <VdW>
1.114

> <VdW6>
-6.064

> <VdW12>
7.178

> <Bond>
0.117

> <Angle>
2.692

> <Pdih>
6.761

> <Idih>
0.000

> <Tether>
0.000

$$$$
VeraChem MOL file


 20 19  0  0  0  0  0  0  0  0999 V2000     
   19.0966   17.5640   20.1212 C   0  0  0  0  0  0  0  0  0  0  0  0
   18.1654   17.7170   20.6642 H   0  0  0  0  0  0  0  0  0  0  0  0
   19.2859   16.5694   19.7214 H   0  0  0  0  0  0  0  0  0  0  0  0
   19.9778   18.5539   19.9554 C   0  0  0  0  0  0  0  0  0  0  0  0
   20.9057   18.3788   19.4117 H   0  0  0  0  0  0  0  0  0  0  0  0
   19.7852   19.9600   20.4822 C   0  0  0  0  0  0  0  0  0  0  0  0
   18.7501   20.1113   20.8142 H   0  0  0  0  0  0  0  0  0  0  0  0
   19.9466   20.6731   19.6629 H   0  0  0  0  0  0  0  0  0  0  0  0
   20.7661   20.2970   21.6308 C   0  0  0  0  0  0  0  0  0  0  0  0
   21.7950   20.2088   21.2559 H   0  0  0  0  0  0  0  0  0  0  0  0
   20.6348   21.3491   21.9181 H   0  0  0  0  0  0  0  0  0  0  0  0
   20.6138   19.4048   22.8880 C   0  0  0  0  0  0  0  0  0  0  0  0
   21.4029   19.6705   23.6049 H   0  0  0  0  0  0  0  0  0  0  0  0
   20.7802   18.3516   22.6235 H   0  0  0  0  0  0  0  0  0  0  0  0
   19.2368   19.5503   23.5865 C   0  0  0  0  0  0  0  0  0  0  0  0
   19.0367   20.6040   23.8138 H   0  0  0  0  0  0  0  0  0  0  0  0
   18.4334   19.1998   22.9288 H   0  0  0  0  0  0  0  0  0  0  0  0
   19.1492   18.7618   24.8883 C   0  0  0  0  0  0  0  0  0  0  0  0
   19.5321   19.2978   25.9095 O   0  5  0  0  0  0  0  0  0  0  0  0
   18.7133   17.6283   24.8462 O   0  0  0  0  0  0  0  0  0  0  0  0
  1  2  1  0  0  0  0
  1  3  1  0  0  0  0
  1  4  2  0  0  0  0
  4  5  1  0  0  0  0
  4  6  1  0  0  0  0
  6  7  1  0  0  0  0
  6  8  1  0  0  0  0
  6  9  1  0  0  0  0
  9 10  1  0  0  0  0
  9 11  1  0  0  0  0
  9 12  1  0  0  0  0
 12 13  1  0  0  0  0
 12 14  1  0  0  0  0
 12 15  1  0  0  0  0
 15 16  1  0  0  0  0
 15 17  1  0  0  0  0
 15 18  1  0  0  0  0
 18 19  1  0  0  0  0
 18 20  2  0  0  0  0
M  END
> <VM2 Rank>
25

> <Conf_Id>
931

> <Probability>
0.69

> <Sum Probability>
92.11

> <Delta G>
1.776

> <G>
-20.114

> <E>
-35.468

> <-TS>
15.354

> <U+W>
-51.565

> <U>
9.796

> <W>
-61.361

> <W(PB)>
-63.521

> <W(SA)>
2.160

> <Valence>
9.746

> <Coulomb>
-0.309

> <VdW>
0.360

> <VdW6>
-7.585

> <VdW12>
7.944

> <Bond>
0.150

> <Angle>
2.663

> <Pdih>
6.933

> <Idih>
0.000

> <Tether>
0.000

$$$$
VeraChem MOL file


 20 19  0  0  0  0  0  0  0  0999 V2000     
   19.0087   17.6202   20.1111 C   0  0  0  0  0  0  0  0  0  0  0  0
   18.1033   17.3248   19.5838 H   0  0  0  0  0  0  0  0  0  0  0  0
   19.4360   16.9054   20.8124 H   0  0  0  0  0  0  0  0  0  0  0  0
   19.5671   18.8163   19.9075 C   0  0  0  0  0  0  0  0  0  0  0  0
   19.1213   19.5187   19.2038 H   0  0  0  0  0  0  0  0  0  0  0  0
   20.8228   19.2972   20.6030 C   0  0  0  0  0  0  0  0  0  0  0  0
   21.5321   19.6603   19.8475 H   0  0  0  0  0  0  0  0  0  0  0  0
   21.3255   18.4662   21.1141 H   0  0  0  0  0  0  0  0  0  0  0  0
   20.5383   20.4426   21.6042 C   0  0  0  0  0  0  0  0  0  0  0  0
   21.4902   20.8027   22.0177 H   0  0  0  0  0  0  0  0  0  0  0  0
   20.1019   21.2903   21.0587 H   0  0  0  0  0  0  0  0  0  0  0  0
   19.5925   20.0572   22.7690 C   0  0  0  0  0  0  0  0  0  0  0  0
   18.6216   19.7304   22.3720 H   0  0  0  0  0  0  0  0  0  0  0  0
   19.3927   20.9546   23.3707 H   0  0  0  0  0  0  0  0  0  0  0  0
   20.1690   18.9549   23.6950 C   0  0  0  0  0  0  0  0  0  0  0  0
   20.2887   18.0148   23.1449 H   0  0  0  0  0  0  0  0  0  0  0  0
   21.1601   19.2477   24.0612 H   0  0  0  0  0  0  0  0  0  0  0  0
   19.2827   18.6765   24.9038 C   0  0  0  0  0  0  0  0  0  0  0  0
   19.4411   19.3560   25.8988 O   0  5  0  0  0  0  0  0  0  0  0  0
   18.4488   17.7971   24.8155 O   0  0  0  0  0  0  0  0  0  0  0  0
  1  2  1  0  0  0  0
  1  3  1  0  0  0  0
  1  4  2  0  0  0  0
  4  5  1  0  0  0  0
  4  6  1  0  0  0  0
  6  7  1  0  0  0  0
  6  8  1  0  0  0  0
  6  9  1  0  0  0  0
  9 10  1  0  0  0  0
  9 11  1  0  0  0  0
  9 12  1  0  0  0  0
 12 13  1  0  0  0  0
 12 14  1  0  0  0  0
 12 15  1  0  0  0  0
 15 16  1  0  0  0  0
 15 17  1  0  0  0  0
 15 18  1  0  0  0  0
 18 19  1  0  0  0  0
 18 20  2  0  0  0  0
M  END
> <VM2 Rank>
26

> <Conf_Id>
108

> <Probability>
0.65

> <Sum Probability>
92.76

> <Delta G>
1.814

> <G>
-20.076

> <E>
-35.429

> <-TS>
15.354

> <U+W>
-51.526

> <U>
9.796

> <W>
-61.321

> <W(PB)>
-63.482

> <W(SA)>
2.161

> <Valence>
9.746

> <Coulomb>
-0.310

> <VdW>
0.360

> <VdW6>
-7.585

> <VdW12>
7.945

> <Bond>
0.150

> <Angle>
2.663

> <Pdih>
6.933

> <Idih>
0.000

> <Tether>
0.000

$$$$
VeraChem MOL file


 20 19  0  0  0  0  0  0  0  0999 V2000     
   20.2718   17.5711   19.4448 C   0  0  0  0  0  0  0  0  0  0  0  0
   19.7351   16.7195   19.0301 H   0  0  0  0  0  0  0  0  0  0  0  0
   21.3599   17.5354   19.4255 H   0  0  0  0  0  0  0  0  0  0  0  0
   19.6173   18.6153   19.9594 C   0  0  0  0  0  0  0  0  0  0  0  0
   18.5278   18.6317   19.9662 H   0  0  0  0  0  0  0  0  0  0  0  0
   20.2952   19.8347   20.5470 C   0  0  0  0  0  0  0  0  0  0  0  0
   19.7992   20.7470   20.1898 H   0  0  0  0  0  0  0  0  0  0  0  0
   21.3328   19.8894   20.1909 H   0  0  0  0  0  0  0  0  0  0  0  0
   20.3026   19.8158   22.0923 C   0  0  0  0  0  0  0  0  0  0  0  0
   20.7900   18.8951   22.4421 H   0  0  0  0  0  0  0  0  0  0  0  0
   20.9171   20.6516   22.4538 H   0  0  0  0  0  0  0  0  0  0  0  0
   18.8850   19.9273   22.7020 C   0  0  0  0  0  0  0  0  0  0  0  0
   18.2744   19.0673   22.3947 H   0  0  0  0  0  0  0  0  0  0  0  0
   18.3901   20.8246   22.3069 H   0  0  0  0  0  0  0  0  0  0  0  0
   18.9081   20.0059   24.2506 C   0  0  0  0  0  0  0  0  0  0  0  0
   19.5330   20.8454   24.5786 H   0  0  0  0  0  0  0  0  0  0  0  0
   17.8952   20.2000   24.6226 H   0  0  0  0  0  0  0  0  0  0  0  0
   19.4078   18.7332   24.9283 C   0  0  0  0  0  0  0  0  0  0  0  0
   20.5377   18.7247   25.3759 O   0  5  0  0  0  0  0  0  0  0  0  0
   18.6455   17.7900   25.0077 O   0  0  0  0  0  0  0  0  0  0  0  0
  1  2  1  0  0  0  0
  1  3  1  0  0  0  0
  1  4  2  0  0  0  0
  4  5  1  0  0  0  0
  4  6  1  0  0  0  0
  6  7  1  0  0  0  0
  6  8  1  0  0  0  0
  6  9  1  0  0  0  0
  9 10  1  0  0  0  0
  9 11  1  0  0  0  0
  9 12  1  0  0  0  0
 12 13  1  0  0  0  0
 12 14  1  0  0  0  0
 12 15  1  0  0  0  0
 15 16  1  0  0  0  0
 15 17  1  0  0  0  0
 15 18  1  0  0  0  0
 18 19  1  0  0  0  0
 18 20  2  0  0  0  0
M  END
> <VM2 Rank>
27

> <Conf_Id>
377

> <Probability>
0.54

> <Sum Probability>
93.31

> <Delta G>
1.918

> <G>
-19.972

> <E>
-35.340

> <-TS>
15.368

> <U+W>
-51.436

> <U>
10.461

> <W>
-61.897

> <W(PB)>
-64.078

> <W(SA)>
2.180

> <Valence>
9.555

> <Coulomb>
0.483

> <VdW>
0.423

> <VdW6>
-7.224

> <VdW12>
7.647

> <Bond>
0.126

> <Angle>
2.492

> <Pdih>
6.936

> <Idih>
0.001

> <Tether>
0.000

$$$$
VeraChem MOL file


 20 19  0  0  0  0  0  0  0  0999 V2000     
   20.7323   18.6108   18.7839 C   0  0  0  0  0  0  0  0  0  0  0  0
   21.6149   19.2484   18.7795 H   0  0  0  0  0  0  0  0  0  0  0  0
   20.6936   17.8035   18.0545 H   0  0  0  0  0  0  0  0  0  0  0  0
   19.7352   18.8061   19.6506 C   0  0  0  0  0  0  0  0  0  0  0  0
   18.8593   18.1583   19.6356 H   0  0  0  0  0  0  0  0  0  0  0  0
   19.7168   19.9101   20.6864 C   0  0  0  0  0  0  0  0  0  0  0  0
   18.7247   20.3802   20.7150 H   0  0  0  0  0  0  0  0  0  0  0  0
   20.4229   20.7003   20.3973 H   0  0  0  0  0  0  0  0  0  0  0  0
   20.0938   19.4017   22.0962 C   0  0  0  0  0  0  0  0  0  0  0  0
   21.0789   18.9167   22.0584 H   0  0  0  0  0  0  0  0  0  0  0  0
   20.1967   20.2667   22.7656 H   0  0  0  0  0  0  0  0  0  0  0  0
   19.0493   18.4218   22.6818 C   0  0  0  0  0  0  0  0  0  0  0  0
   18.9598   17.5461   22.0256 H   0  0  0  0  0  0  0  0  0  0  0  0
   18.0611   18.9015   22.7062 H   0  0  0  0  0  0  0  0  0  0  0  0
   19.4206   17.9378   24.1077 C   0  0  0  0  0  0  0  0  0  0  0  0
   18.7197   17.1560   24.4232 H   0  0  0  0  0  0  0  0  0  0  0  0
   20.4201   17.4862   24.1059 H   0  0  0  0  0  0  0  0  0  0  0  0
   19.3840   19.0369   25.1657 C   0  0  0  0  0  0  0  0  0  0  0  0
   20.4399   19.4844   25.5681 O   0  5  0  0  0  0  0  0  0  0  0  0
   18.2990   19.4085   25.5677 O   0  0  0  0  0  0  0  0  0  0  0  0
  1  2  1  0  0  0  0
  1  3  1  0  0  0  0
  1  4  2  0  0  0  0
  4  5  1  0  0  0  0
  4  6  1  0  0  0  0
  6  7  1  0  0  0  0
  6  8  1  0  0  0  0
  6  9  1  0  0  0  0
  9 10  1  0  0  0  0
  9 11  1  0  0  0  0
  9 12  1  0  0  0  0
 12 13  1  0  0  0  0
 12 14  1  0  0  0  0
 12 15  1  0  0  0  0
 15 16  1  0  0  0  0
 15 17  1  0  0  0  0
 15 18  1  0  0  0  0
 18 19  1  0  0  0  0
 18 20  2  0  0  0  0
M  END
> <VM2 Rank>
28

> <Conf_Id>
506

> <Probability>
0.54

> <Sum Probability>
93.84

> <Delta G>
1.924

> <G>
-19.965

> <E>
-35.309

> <-TS>
15.344

> <U+W>
-51.405

> <U>
9.191

> <W>
-60.597

> <W(PB)>
-62.798

> <W(SA)>
2.201

> <Valence>
9.572

> <Coulomb>
-0.885

> <VdW>
0.504

> <VdW6>
-7.168

> <VdW12>
7.672

> <Bond>
0.127

> <Angle>
2.504

> <Pdih>
6.941

> <Idih>
0.001

> <Tether>
0.000

$$$$
VeraChem MOL file


 20 19  0  0  0  0  0  0  0  0999 V2000     
   20.6908   17.6974   19.4987 C   0  0  0  0  0  0  0  0  0  0  0  0
   21.6835   17.3071   19.2812 H   0  0  0  0  0  0  0  0  0  0  0  0
   19.8379   17.0766   19.2289 H   0  0  0  0  0  0  0  0  0  0  0  0
   20.5298   18.8904   20.0771 C   0  0  0  0  0  0  0  0  0  0  0  0
   21.3971   19.4968   20.3364 H   0  0  0  0  0  0  0  0  0  0  0  0
   19.1827   19.4992   20.4036 C   0  0  0  0  0  0  0  0  0  0  0  0
   18.3997   19.0050   19.8126 H   0  0  0  0  0  0  0  0  0  0  0  0
   19.1688   20.5569   20.1085 H   0  0  0  0  0  0  0  0  0  0  0  0
   18.8270   19.3709   21.9020 C   0  0  0  0  0  0  0  0  0  0  0  0
   17.7926   19.7095   22.0508 H   0  0  0  0  0  0  0  0  0  0  0  0
   18.8542   18.3114   22.1924 H   0  0  0  0  0  0  0  0  0  0  0  0
   19.7666   20.1931   22.8157 C   0  0  0  0  0  0  0  0  0  0  0  0
   19.7688   21.2404   22.4848 H   0  0  0  0  0  0  0  0  0  0  0  0
   20.7984   19.8283   22.7203 H   0  0  0  0  0  0  0  0  0  0  0  0
   19.3444   20.1375   24.3069 C   0  0  0  0  0  0  0  0  0  0  0  0
   19.9683   20.8251   24.8901 H   0  0  0  0  0  0  0  0  0  0  0  0
   18.3074   20.4759   24.4205 H   0  0  0  0  0  0  0  0  0  0  0  0
   19.4768   18.7540   24.9372 C   0  0  0  0  0  0  0  0  0  0  0  0
   20.5862   18.3750   25.2578 O   0  5  0  0  0  0  0  0  0  0  0  0
   18.4667   18.1004   25.1090 O   0  0  0  0  0  0  0  0  0  0  0  0
  1  2  1  0  0  0  0
  1  3  1  0  0  0  0
  1  4  2  0  0  0  0
  4  5  1  0  0  0  0
  4  6  1  0  0  0  0
  6  7  1  0  0  0  0
  6  8  1  0  0  0  0
  6  9  1  0  0  0  0
  9 10  1  0  0  0  0
  9 11  1  0  0  0  0
  9 12  1  0  0  0  0
 12 13  1  0  0  0  0
 12 14  1  0  0  0  0
 12 15  1  0  0  0  0
 15 16  1  0  0  0  0
 15 17  1  0  0  0  0
 15 18  1  0  0  0  0
 18 19  1  0  0  0  0
 18 20  2  0  0  0  0
M  END
> <VM2 Rank>
29

> <Conf_Id>
1123

> <Probability>
0.52

> <Sum Probability>
94.36

> <Delta G>
1.947

> <G>
-19.942

> <E>
-35.310

> <-TS>
15.368

> <U+W>
-51.407

> <U>
10.461

> <W>
-61.868

> <W(PB)>
-64.045

> <W(SA)>
2.178

> <Valence>
9.554

> <Coulomb>
0.484

> <VdW>
0.423

> <VdW6>
-7.224

> <VdW12>
7.647

> <Bond>
0.126

> <Angle>
2.492

> <Pdih>
6.936

> <Idih>
0.001

> <Tether>
0.000

$$$$
VeraChem MOL file


 20 19  0  0  0  0  0  0  0  0999 V2000     
   19.9075   18.3621   18.6774 C   0  0  0  0  0  0  0  0  0  0  0  0
   18.8502   18.4149   18.4228 H   0  0  0  0  0  0  0  0  0  0  0  0
   20.5481   17.7596   18.0357 H   0  0  0  0  0  0  0  0  0  0  0  0
   20.4027   19.0073   19.7368 C   0  0  0  0  0  0  0  0  0  0  0  0
   21.4648   18.9437   19.9717 H   0  0  0  0  0  0  0  0  0  0  0  0
   19.5753   19.8674   20.6681 C   0  0  0  0  0  0  0  0  0  0  0  0
   18.6435   20.1639   20.1677 H   0  0  0  0  0  0  0  0  0  0  0  0
   20.1121   20.7984   20.8939 H   0  0  0  0  0  0  0  0  0  0  0  0
   19.2198   19.1383   21.9835 C   0  0  0  0  0  0  0  0  0  0  0  0
   18.5101   19.7584   22.5481 H   0  0  0  0  0  0  0  0  0  0  0  0
   18.6987   18.1993   21.7514 H   0  0  0  0  0  0  0  0  0  0  0  0
   20.4586   18.8466   22.8636 C   0  0  0  0  0  0  0  0  0  0  0  0
   20.9882   19.7839   23.0837 H   0  0  0  0  0  0  0  0  0  0  0  0
   21.1602   18.2094   22.3094 H   0  0  0  0  0  0  0  0  0  0  0  0
   20.0907   18.1397   24.1941 C   0  0  0  0  0  0  0  0  0  0  0  0
   19.5314   17.2184   23.9913 H   0  0  0  0  0  0  0  0  0  0  0  0
   21.0076   17.8457   24.7183 H   0  0  0  0  0  0  0  0  0  0  0  0
   19.2754   19.0041   25.1517 C   0  0  0  0  0  0  0  0  0  0  0  0
   19.8538   19.8773   25.7682 O   0  5  0  0  0  0  0  0  0  0  0  0
   18.0872   18.7751   25.2647 O   0  0  0  0  0  0  0  0  0  0  0  0
  1  2  1  0  0  0  0
  1  3  1  0  0  0  0
  1  4  2  0  0  0  0
  4  5  1  0  0  0  0
  4  6  1  0  0  0  0
  6  7  1  0  0  0  0
  6  8  1  0  0  0  0
  6  9  1  0  0  0  0
  9 10  1  0  0  0  0
  9 11  1  0  0  0  0
  9 12  1  0  0  0  0
 12 13  1  0  0  0  0
 12 14  1  0  0  0  0
 12 15  1  0  0  0  0
 15 16  1  0  0  0  0
 15 17  1  0  0  0  0
 15 18  1  0  0  0  0
 18 19  1  0  0  0  0
 18 20  2  0  0  0  0
M  END
> <VM2 Rank>
30

> <Conf_Id>
220

> <Probability>
0.49

> <Sum Probability>
94.85

> <Delta G>
1.986

> <G>
-19.904

> <E>
-35.247

> <-TS>
15.343

> <U+W>
-51.344

> <U>
9.191

> <W>
-60.535

> <W(PB)>
-62.743

> <W(SA)>
2.208

> <Valence>
9.572

> <Coulomb>
-0.885

> <VdW>
0.504

> <VdW6>
-7.168

> <VdW12>
7.672

> <Bond>
0.127

> <Angle>
2.504

> <Pdih>
6.941

> <Idih>
0.001

> <Tether>
0.000

$$$$
VeraChem MOL file


 20 19  0  0  0  0  0  0  0  0999 V2000     
   21.0127   18.0305   19.9121 C   0  0  0  0  0  0  0  0  0  0  0  0
   20.2614   17.2570   20.0552 H   0  0  0  0  0  0  0  0  0  0  0  0
   22.0056   17.7040   19.6081 H   0  0  0  0  0  0  0  0  0  0  0  0
   20.7435   19.3282   20.0921 C   0  0  0  0  0  0  0  0  0  0  0  0
   21.5335   20.0614   19.9325 H   0  0  0  0  0  0  0  0  0  0  0  0
   19.4122   19.9251   20.5187 C   0  0  0  0  0  0  0  0  0  0  0  0
   18.9029   20.3170   19.6284 H   0  0  0  0  0  0  0  0  0  0  0  0
   19.6023   20.8068   21.1434 H   0  0  0  0  0  0  0  0  0  0  0  0
   18.4517   18.9700   21.2747 C   0  0  0  0  0  0  0  0  0  0  0  0
   17.4994   19.4906   21.4440 H   0  0  0  0  0  0  0  0  0  0  0  0
   18.2101   18.1127   20.6327 H   0  0  0  0  0  0  0  0  0  0  0  0
   18.9863   18.4580   22.6366 C   0  0  0  0  0  0  0  0  0  0  0  0
   19.9299   17.9149   22.4943 H   0  0  0  0  0  0  0  0  0  0  0  0
   18.2707   17.7293   23.0416 H   0  0  0  0  0  0  0  0  0  0  0  0
   19.1953   19.5832   23.6831 C   0  0  0  0  0  0  0  0  0  0  0  0
   19.9814   20.2725   23.3549 H   0  0  0  0  0  0  0  0  0  0  0  0
   18.2753   20.1680   23.8000 H   0  0  0  0  0  0  0  0  0  0  0  0
   19.5909   19.0470   25.0543 C   0  0  0  0  0  0  0  0  0  0  0  0
   20.7738   18.9303   25.3069 O   0  5  0  0  0  0  0  0  0  0  0  0
   18.7046   18.7459   25.8294 O   0  0  0  0  0  0  0  0  0  0  0  0
  1  2  1  0  0  0  0
  1  3  1  0  0  0  0
  1  4  2  0  0  0  0
  4  5  1  0  0  0  0
  4  6  1  0  0  0  0
  6  7  1  0  0  0  0
  6  8  1  0  0  0  0
  6  9  1  0  0  0  0
  9 10  1  0  0  0  0
  9 11  1  0  0  0  0
  9 12  1  0  0  0  0
 12 13  1  0  0  0  0
 12 14  1  0  0  0  0
 12 15  1  0  0  0  0
 15 16  1  0  0  0  0
 15 17  1  0  0  0  0
 15 18  1  0  0  0  0
 18 19  1  0  0  0  0
 18 20  2  0  0  0  0
M  END
> <VM2 Rank>
31

> <Conf_Id>
766

> <Probability>
0.44

> <Sum Probability>
95.29

> <Delta G>
2.044

> <G>
-19.845

> <E>
-35.290

> <-TS>
15.444

> <U+W>
-51.386

> <U>
10.001

> <W>
-61.387

> <W(PB)>
-63.554

> <W(SA)>
2.168

> <Valence>
9.398

> <Coulomb>
-0.503

> <VdW>
1.105

> <VdW6>
-7.976

> <VdW12>
9.080

> <Bond>
0.216

> <Angle>
3.417

> <Pdih>
5.765

> <Idih>
0.001

> <Tether>
0.000

$$$$
VeraChem MOL file


 20 19  0  0  0  0  0  0  0  0999 V2000     
   21.2236   19.6608   19.9315 C   0  0  0  0  0  0  0  0  0  0  0  0
   22.2678   19.7309   19.6323 H   0  0  0  0  0  0  0  0  0  0  0  0
   20.6934   20.5964   20.0949 H   0  0  0  0  0  0  0  0  0  0  0  0
   20.6325   18.4704   20.0818 C   0  0  0  0  0  0  0  0  0  0  0  0
   21.2105   17.5642   19.9027 H   0  0  0  0  0  0  0  0  0  0  0  0
   19.1919   18.2220   20.4984 C   0  0  0  0  0  0  0  0  0  0  0  0
   19.1495   17.3066   21.1015 H   0  0  0  0  0  0  0  0  0  0  0  0
   18.6023   17.9937   19.6007 H   0  0  0  0  0  0  0  0  0  0  0  0
   18.5038   19.3720   21.2795 C   0  0  0  0  0  0  0  0  0  0  0  0
   18.4902   20.2774   20.6586 H   0  0  0  0  0  0  0  0  0  0  0  0
   17.4498   19.1071   21.4394 H   0  0  0  0  0  0  0  0  0  0  0  0
   19.1470   19.6990   22.6514 C   0  0  0  0  0  0  0  0  0  0  0  0
   18.6391   20.5761   23.0756 H   0  0  0  0  0  0  0  0  0  0  0  0
   20.1981   19.9872   22.5191 H   0  0  0  0  0  0  0  0  0  0  0  0
   19.0595   18.5334   23.6706 C   0  0  0  0  0  0  0  0  0  0  0  0
   18.0205   18.1993   23.7765 H   0  0  0  0  0  0  0  0  0  0  0  0
   19.6452   17.6746   23.3239 H   0  0  0  0  0  0  0  0  0  0  0  0
   19.5743   18.9189   25.0528 C   0  0  0  0  0  0  0  0  0  0  0  0
   20.7471   18.7243   25.3046 O   0  5  0  0  0  0  0  0  0  0  0  0
   18.7915   19.4172   25.8375 O   0  0  0  0  0  0  0  0  0  0  0  0
  1  2  1  0  0  0  0
  1  3  1  0  0  0  0
  1  4  2  0  0  0  0
  4  5  1  0  0  0  0
  4  6  1  0  0  0  0
  6  7  1  0  0  0  0
  6  8  1  0  0  0  0
  6  9  1  0  0  0  0
  9 10  1  0  0  0  0
  9 11  1  0  0  0  0
  9 12  1  0  0  0  0
 12 13  1  0  0  0  0
 12 14  1  0  0  0  0
 12 15  1  0  0  0  0
 15 16  1  0  0  0  0
 15 17  1  0  0  0  0
 15 18  1  0  0  0  0
 18 19  1  0  0  0  0
 18 20  2  0  0  0  0
M  END
> <VM2 Rank>
32

> <Conf_Id>
1060

> <Probability>
0.44

> <Sum Probability>
95.72

> <Delta G>
2.050

> <G>
-19.840

> <E>
-35.283

> <-TS>
15.443

> <U+W>
-51.380

> <U>
10.000

> <W>
-61.380

> <W(PB)>
-63.541

> <W(SA)>
2.161

> <Valence>
9.399

> <Coulomb>
-0.503

> <VdW>
1.105

> <VdW6>
-7.975

> <VdW12>
9.080

> <Bond>
0.216

> <Angle>
3.417

> <Pdih>
5.765

> <Idih>
0.001

> <Tether>
0.000

$$$$
VeraChem MOL file


 20 19  0  0  0  0  0  0  0  0999 V2000     
   19.6799   18.1468   18.9853 C   0  0  0  0  0  0  0  0  0  0  0  0
   20.1838   17.4756   18.2921 H   0  0  0  0  0  0  0  0  0  0  0  0
   18.6002   18.0471   19.0841 H   0  0  0  0  0  0  0  0  0  0  0  0
   20.3636   19.0537   19.6883 C   0  0  0  0  0  0  0  0  0  0  0  0
   21.4444   19.1357   19.5763 H   0  0  0  0  0  0  0  0  0  0  0  0
   19.7336   20.0191   20.6697 C   0  0  0  0  0  0  0  0  0  0  0  0
   18.6394   20.0098   20.5734 H   0  0  0  0  0  0  0  0  0  0  0  0
   20.0572   21.0398   20.4264 H   0  0  0  0  0  0  0  0  0  0  0  0
   20.1250   19.7078   22.1319 C   0  0  0  0  0  0  0  0  0  0  0  0
   21.2193   19.7130   22.2283 H   0  0  0  0  0  0  0  0  0  0  0  0
   19.7504   20.5149   22.7764 H   0  0  0  0  0  0  0  0  0  0  0  0
   19.5618   18.3540   22.6254 C   0  0  0  0  0  0  0  0  0  0  0  0
   19.9407   17.5455   21.9860 H   0  0  0  0  0  0  0  0  0  0  0  0
   18.4676   18.3479   22.5254 H   0  0  0  0  0  0  0  0  0  0  0  0
   19.9458   18.0487   24.0965 C   0  0  0  0  0  0  0  0  0  0  0  0
   19.6289   17.0312   24.3541 H   0  0  0  0  0  0  0  0  0  0  0  0
   21.0353   18.0824   24.2183 H   0  0  0  0  0  0  0  0  0  0  0  0
   19.3123   18.9948   25.1125 C   0  0  0  0  0  0  0  0  0  0  0  0
   20.0108   19.8543   25.6129 O   0  5  0  0  0  0  0  0  0  0  0  0
   18.1382   18.8388   25.3855 O   0  0  0  0  0  0  0  0  0  0  0  0
  1  2  1  0  0  0  0
  1  3  1  0  0  0  0
  1  4  2  0  0  0  0
  4  5  1  0  0  0  0
  4  6  1  0  0  0  0
  6  7  1  0  0  0  0
  6  8  1  0  0  0  0
  6  9  1  0  0  0  0
  9 10  1  0  0  0  0
  9 11  1  0  0  0  0
  9 12  1  0  0  0  0
 12 13  1  0  0  0  0
 12 14  1  0  0  0  0
 12 15  1  0  0  0  0
 15 16  1  0  0  0  0
 15 17  1  0  0  0  0
 15 18  1  0  0  0  0
 18 19  1  0  0  0  0
 18 20  2  0  0  0  0
M  END
> <VM2 Rank>
33

> <Conf_Id>
1109

> <Probability>
0.41

> <Sum Probability>
96.13

> <Delta G>
2.087

> <G>
-19.803

> <E>
-35.222

> <-TS>
15.419

> <U+W>
-51.318

> <U>
9.294

> <W>
-60.613

> <W(PB)>
-62.807

> <W(SA)>
2.194

> <Valence>
9.496

> <Coulomb>
-0.611

> <VdW>
0.409

> <VdW6>
-7.332

> <VdW12>
7.741

> <Bond>
0.126

> <Angle>
2.497

> <Pdih>
6.872

> <Idih>
0.000

> <Tether>
0.000

$$$$
VeraChem MOL file


 20 19  0  0  0  0  0  0  0  0999 V2000     
   20.9610   18.5330   19.1505 C   0  0  0  0  0  0  0  0  0  0  0  0
   21.0817   17.7462   18.4079 H   0  0  0  0  0  0  0  0  0  0  0  0
   21.8624   19.0304   19.5048 H   0  0  0  0  0  0  0  0  0  0  0  0
   19.7527   18.8696   19.6095 C   0  0  0  0  0  0  0  0  0  0  0  0
   18.8631   18.3576   19.2436 H   0  0  0  0  0  0  0  0  0  0  0  0
   19.5064   19.9506   20.6404 C   0  0  0  0  0  0  0  0  0  0  0  0
   18.7467   20.6448   20.2574 H   0  0  0  0  0  0  0  0  0  0  0  0
   20.4157   20.5452   20.8025 H   0  0  0  0  0  0  0  0  0  0  0  0
   19.0199   19.3747   21.9894 C   0  0  0  0  0  0  0  0  0  0  0  0
   18.7323   20.2080   22.6451 H   0  0  0  0  0  0  0  0  0  0  0  0
   18.1127   18.7765   21.8276 H   0  0  0  0  0  0  0  0  0  0  0  0
   20.0958   18.5149   22.6943 C   0  0  0  0  0  0  0  0  0  0  0  0
   21.0042   19.1125   22.8526 H   0  0  0  0  0  0  0  0  0  0  0  0
   20.3795   17.6777   22.0426 H   0  0  0  0  0  0  0  0  0  0  0  0
   19.6098   17.9473   24.0532 C   0  0  0  0  0  0  0  0  0  0  0  0
   18.6852   17.3739   23.9151 H   0  0  0  0  0  0  0  0  0  0  0  0
   20.3591   17.2514   24.4483 H   0  0  0  0  0  0  0  0  0  0  0  0
   19.3685   19.0117   25.1197 C   0  0  0  0  0  0  0  0  0  0  0  0
   20.3358   19.5015   25.6689 O   0  5  0  0  0  0  0  0  0  0  0  0
   18.2211   19.3146   25.3820 O   0  0  0  0  0  0  0  0  0  0  0  0
  1  2  1  0  0  0  0
  1  3  1  0  0  0  0
  1  4  2  0  0  0  0
  4  5  1  0  0  0  0
  4  6  1  0  0  0  0
  6  7  1  0  0  0  0
  6  8  1  0  0  0  0
  6  9  1  0  0  0  0
  9 10  1  0  0  0  0
  9 11  1  0  0  0  0
  9 12  1  0  0  0  0
 12 13  1  0  0  0  0
 12 14  1  0  0  0  0
 12 15  1  0  0  0  0
 15 16  1  0  0  0  0
 15 17  1  0  0  0  0
 15 18  1  0  0  0  0
 18 19  1  0  0  0  0
 18 20  2  0  0  0  0
M  END
> <VM2 Rank>
34

> <Conf_Id>
382

> <Probability>
0.39

> <Sum Probability>
96.53

> <Delta G>
2.113

> <G>
-19.776

> <E>
-35.195

> <-TS>
15.418

> <U+W>
-51.291

> <U>
9.294

> <W>
-60.585

> <W(PB)>
-62.765

> <W(SA)>
2.180

> <Valence>
9.495

> <Coulomb>
-0.611

> <VdW>
0.409

> <VdW6>
-7.332

> <VdW12>
7.741

> <Bond>
0.126

> <Angle>
2.497

> <Pdih>
6.872

> <Idih>
0.000

> <Tether>
0.000

$$$$
VeraChem MOL file


 20 19  0  0  0  0  0  0  0  0999 V2000     
   19.6683   17.8244   19.3582 C   0  0  0  0  0  0  0  0  0  0  0  0
   18.7451   18.2826   19.0071 H   0  0  0  0  0  0  0  0  0  0  0  0
   19.8617   16.7953   19.0607 H   0  0  0  0  0  0  0  0  0  0  0  0
   20.5306   18.4943   20.1275 C   0  0  0  0  0  0  0  0  0  0  0  0
   21.4477   18.0163   20.4707 H   0  0  0  0  0  0  0  0  0  0  0  0
   20.3298   19.9242   20.5822 C   0  0  0  0  0  0  0  0  0  0  0  0
   19.4948   20.3888   20.0404 H   0  0  0  0  0  0  0  0  0  0  0  0
   21.2248   20.5093   20.3323 H   0  0  0  0  0  0  0  0  0  0  0  0
   20.0778   20.0247   22.1035 C   0  0  0  0  0  0  0  0  0  0  0  0
   20.9173   19.5655   22.6435 H   0  0  0  0  0  0  0  0  0  0  0  0
   20.0626   21.0846   22.3920 H   0  0  0  0  0  0  0  0  0  0  0  0
   18.7478   19.3616   22.5331 C   0  0  0  0  0  0  0  0  0  0  0  0
   18.7659   18.2907   22.2880 H   0  0  0  0  0  0  0  0  0  0  0  0
   17.9218   19.8023   21.9588 H   0  0  0  0  0  0  0  0  0  0  0  0
   18.4579   19.5337   24.0468 C   0  0  0  0  0  0  0  0  0  0  0  0
   18.4596   20.5971   24.3149 H   0  0  0  0  0  0  0  0  0  0  0  0
   17.4559   19.1507   24.2736 H   0  0  0  0  0  0  0  0  0  0  0  0
   19.4432   18.8016   24.9535 C   0  0  0  0  0  0  0  0  0  0  0  0
   20.3041   19.4523   25.5125 O   0  5  0  0  0  0  0  0  0  0  0  0
   19.3116   17.6012   25.0908 O   0  0  0  0  0  0  0  0  0  0  0  0
  1  2  1  0  0  0  0
  1  3  1  0  0  0  0
  1  4  2  0  0  0  0
  4  5  1  0  0  0  0
  4  6  1  0  0  0  0
  6  7  1  0  0  0  0
  6  8  1  0  0  0  0
  6  9  1  0  0  0  0
  9 10  1  0  0  0  0
  9 11  1  0  0  0  0
  9 12  1  0  0  0  0
 12 13  1  0  0  0  0
 12 14  1  0  0  0  0
 12 15  1  0  0  0  0
 15 16  1  0  0  0  0
 15 17  1  0  0  0  0
 15 18  1  0  0  0  0
 18 19  1  0  0  0  0
 18 20  2  0  0  0  0
M  END
> <VM2 Rank>
35

> <Conf_Id>
1128

> <Probability>
0.36

> <Sum Probability>
96.89

> <Delta G>
2.158

> <G>
-19.732

> <E>
-35.158

> <-TS>
15.426

> <U+W>
-51.254

> <U>
10.179

> <W>
-61.433

> <W(PB)>
-63.628

> <W(SA)>
2.195

> <Valence>
9.483

> <Coulomb>
0.361

> <VdW>
0.335

> <VdW6>
-7.385

> <VdW12>
7.720

> <Bond>
0.125

> <Angle>
2.487

> <Pdih>
6.870

> <Idih>
0.001

> <Tether>
0.000

$$$$
VeraChem MOL file


 20 19  0  0  0  0  0  0  0  0999 V2000     
   21.0592   18.2439   19.5376 C   0  0  0  0  0  0  0  0  0  0  0  0
   21.6353   19.1541   19.3797 H   0  0  0  0  0  0  0  0  0  0  0  0
   21.5330   17.2992   19.2762 H   0  0  0  0  0  0  0  0  0  0  0  0
   19.8205   18.2802   20.0359 C   0  0  0  0  0  0  0  0  0  0  0  0
   19.2619   17.3572   20.1889 H   0  0  0  0  0  0  0  0  0  0  0  0
   19.0978   19.5528   20.4233 C   0  0  0  0  0  0  0  0  0  0  0  0
   18.1162   19.5720   19.9314 H   0  0  0  0  0  0  0  0  0  0  0  0
   19.6439   20.4338   20.0596 H   0  0  0  0  0  0  0  0  0  0  0  0
   18.8919   19.6672   21.9505 C   0  0  0  0  0  0  0  0  0  0  0  0
   18.2600   20.5411   22.1596 H   0  0  0  0  0  0  0  0  0  0  0  0
   18.3396   18.7884   22.3111 H   0  0  0  0  0  0  0  0  0  0  0  0
   20.2246   19.8068   22.7236 C   0  0  0  0  0  0  0  0  0  0  0  0
   20.7841   20.6651   22.3280 H   0  0  0  0  0  0  0  0  0  0  0  0
   20.8501   18.9189   22.5568 H   0  0  0  0  0  0  0  0  0  0  0  0
   20.0120   20.0021   24.2472 C   0  0  0  0  0  0  0  0  0  0  0  0
   20.9751   20.2115   24.7275 H   0  0  0  0  0  0  0  0  0  0  0  0
   19.3694   20.8713   24.4322 H   0  0  0  0  0  0  0  0  0  0  0  0
   19.4053   18.7902   24.9486 C   0  0  0  0  0  0  0  0  0  0  0  0
   20.1327   17.8487   25.1967 O   0  5  0  0  0  0  0  0  0  0  0  0
   18.2270   18.8263   25.2445 O   0  0  0  0  0  0  0  0  0  0  0  0
  1  2  1  0  0  0  0
  1  3  1  0  0  0  0
  1  4  2  0  0  0  0
  4  5  1  0  0  0  0
  4  6  1  0  0  0  0
  6  7  1  0  0  0  0
  6  8  1  0  0  0  0
  6  9  1  0  0  0  0
  9 10  1  0  0  0  0
  9 11  1  0  0  0  0
  9 12  1  0  0  0  0
 12 13  1  0  0  0  0
 12 14  1  0  0  0  0
 12 15  1  0  0  0  0
 15 16  1  0  0  0  0
 15 17  1  0  0  0  0
 15 18  1  0  0  0  0
 18 19  1  0  0  0  0
 18 20  2  0  0  0  0
M  END
> <VM2 Rank>
36

> <Conf_Id>
169

> <Probability>
0.36

> <Sum Probability>
97.25

> <Delta G>
2.171

> <G>
-19.719

> <E>
-35.145

> <-TS>
15.426

> <U+W>
-51.241

> <U>
10.179

> <W>
-61.420

> <W(PB)>
-63.642

> <W(SA)>
2.222

> <Valence>
9.483

> <Coulomb>
0.361

> <VdW>
0.335

> <VdW6>
-7.385

> <VdW12>
7.720

> <Bond>
0.125

> <Angle>
2.487

> <Pdih>
6.870

> <Idih>
0.001

> <Tether>
0.000

$$$$
VeraChem MOL file


 20 19  0  0  0  0  0  0  0  0999 V2000     
   20.4990   17.6630   19.6772 C   0  0  0  0  0  0  0  0  0  0  0  0
   21.3616   18.2003   19.2864 H   0  0  0  0  0  0  0  0  0  0  0  0
   20.4965   16.5788   19.5804 H   0  0  0  0  0  0  0  0  0  0  0  0
   19.4824   18.3075   20.2560 C   0  0  0  0  0  0  0  0  0  0  0  0
   18.6238   17.7530   20.6329 H   0  0  0  0  0  0  0  0  0  0  0  0
   19.4139   19.8116   20.4127 C   0  0  0  0  0  0  0  0  0  0  0  0
   18.3769   20.1293   20.5848 H   0  0  0  0  0  0  0  0  0  0  0  0
   19.7132   20.2742   19.4625 H   0  0  0  0  0  0  0  0  0  0  0  0
   20.3296   20.3599   21.5352 C   0  0  0  0  0  0  0  0  0  0  0  0
   21.3225   19.8941   21.4711 H   0  0  0  0  0  0  0  0  0  0  0  0
   20.4871   21.4309   21.3486 H   0  0  0  0  0  0  0  0  0  0  0  0
   19.7636   20.2112   22.9699 C   0  0  0  0  0  0  0  0  0  0  0  0
   18.7649   20.6656   23.0265 H   0  0  0  0  0  0  0  0  0  0  0  0
   20.4024   20.7874   23.6536 H   0  0  0  0  0  0  0  0  0  0  0  0
   19.6975   18.7489   23.4804 C   0  0  0  0  0  0  0  0  0  0  0  0
   18.9551   18.1770   22.9149 H   0  0  0  0  0  0  0  0  0  0  0  0
   20.6664   18.2545   23.3425 H   0  0  0  0  0  0  0  0  0  0  0  0
   19.3226   18.6552   24.9550 C   0  0  0  0  0  0  0  0  0  0  0  0
   20.2185   18.6585   25.7761 O   0  5  0  0  0  0  0  0  0  0  0  0
   18.1438   18.6021   25.2455 O   0  0  0  0  0  0  0  0  0  0  0  0
  1  2  1  0  0  0  0
  1  3  1  0  0  0  0
  1  4  2  0  0  0  0
  4  5  1  0  0  0  0
  4  6  1  0  0  0  0
  6  7  1  0  0  0  0
  6  8  1  0  0  0  0
  6  9  1  0  0  0  0
  9 10  1  0  0  0  0
  9 11  1  0  0  0  0
  9 12  1  0  0  0  0
 12 13  1  0  0  0  0
 12 14  1  0  0  0  0
 12 15  1  0  0  0  0
 15 16  1  0  0  0  0
 15 17  1  0  0  0  0
 15 18  1  0  0  0  0
 18 19  1  0  0  0  0
 18 20  2  0  0  0  0
M  END
> <VM2 Rank>
37

> <Conf_Id>
662

> <Probability>
0.22

> <Sum Probability>
97.47

> <Delta G>
2.447

> <G>
-19.442

> <E>
-34.104

> <-TS>
14.662

> <U+W>
-50.200

> <U>
10.643

> <W>
-60.843

> <W(PB)>
-63.001

> <W(SA)>
2.157

> <Valence>
11.231

> <Coulomb>
-1.077

> <VdW>
0.490

> <VdW6>
-7.545

> <VdW12>
8.035

> <Bond>
0.159

> <Angle>
3.005

> <Pdih>
8.064

> <Idih>
0.002

> <Tether>
0.000

$$$$
VeraChem MOL file


 20 19  0  0  0  0  0  0  0  0999 V2000     
   19.4451   19.9235   19.2820 C   0  0  0  0  0  0  0  0  0  0  0  0
   19.5125   20.4657   18.3403 H   0  0  0  0  0  0  0  0  0  0  0  0
   18.4477   19.7626   19.6855 H   0  0  0  0  0  0  0  0  0  0  0  0
   20.5487   19.4878   19.9001 C   0  0  0  0  0  0  0  0  0  0  0  0
   21.5209   19.6818   19.4475 H   0  0  0  0  0  0  0  0  0  0  0  0
   20.6141   18.7206   21.2103 C   0  0  0  0  0  0  0  0  0  0  0  0
   21.1758   19.3225   21.9361 H   0  0  0  0  0  0  0  0  0  0  0  0
   21.2066   17.8094   21.0544 H   0  0  0  0  0  0  0  0  0  0  0  0
   19.2397   18.3314   21.8086 C   0  0  0  0  0  0  0  0  0  0  0  0
   18.6722   19.2402   22.0517 H   0  0  0  0  0  0  0  0  0  0  0  0
   18.6587   17.7915   21.0486 H   0  0  0  0  0  0  0  0  0  0  0  0
   19.3456   17.4323   23.0654 C   0  0  0  0  0  0  0  0  0  0  0  0
   19.8701   16.5036   22.8029 H   0  0  0  0  0  0  0  0  0  0  0  0
   18.3334   17.1364   23.3740 H   0  0  0  0  0  0  0  0  0  0  0  0
   20.0600   18.0960   24.2745 C   0  0  0  0  0  0  0  0  0  0  0  0
   20.0973   17.3852   25.1081 H   0  0  0  0  0  0  0  0  0  0  0  0
   21.0999   18.3364   24.0260 H   0  0  0  0  0  0  0  0  0  0  0  0
   19.3748   19.3596   24.7872 C   0  0  0  0  0  0  0  0  0  0  0  0
   19.9311   20.4263   24.6156 O   0  5  0  0  0  0  0  0  0  0  0  0
   18.3117   19.2405   25.3644 O   0  0  0  0  0  0  0  0  0  0  0  0
  1  2  1  0  0  0  0
  1  3  1  0  0  0  0
  1  4  2  0  0  0  0
  4  5  1  0  0  0  0
  4  6  1  0  0  0  0
  6  7  1  0  0  0  0
  6  8  1  0  0  0  0
  6  9  1  0  0  0  0
  9 10  1  0  0  0  0
  9 11  1  0  0  0  0
  9 12  1  0  0  0  0
 12 13  1  0  0  0  0
 12 14  1  0  0  0  0
 12 15  1  0  0  0  0
 15 16  1  0  0  0  0
 15 17  1  0  0  0  0
 15 18  1  0  0  0  0
 18 19  1  0  0  0  0
 18 20  2  0  0  0  0
M  END
> <VM2 Rank>
38

> <Conf_Id>
847

> <Probability>
0.22

> <Sum Probability>
97.69

> <Delta G>
2.468

> <G>
-19.422

> <E>
-35.131

> <-TS>
15.709

> <U+W>
-51.228

> <U>
10.869

> <W>
-62.097

> <W(PB)>
-64.246

> <W(SA)>
2.149

> <Valence>
8.803

> <Coulomb>
1.019

> <VdW>
1.048

> <VdW6>
-8.312

> <VdW12>
9.360

> <Bond>
0.212

> <Angle>
3.379

> <Pdih>
5.211

> <Idih>
0.001

> <Tether>
0.000

$$$$
VeraChem MOL file


 20 19  0  0  0  0  0  0  0  0999 V2000     
   20.6705   17.8682   19.4980 C   0  0  0  0  0  0  0  0  0  0  0  0
   20.0147   17.1345   19.9618 H   0  0  0  0  0  0  0  0  0  0  0  0
   21.2621   17.5310   18.6487 H   0  0  0  0  0  0  0  0  0  0  0  0
   20.7630   19.1284   19.9378 C   0  0  0  0  0  0  0  0  0  0  0  0
   21.4399   19.8173   19.4331 H   0  0  0  0  0  0  0  0  0  0  0  0
   20.0049   19.7426   21.1030 C   0  0  0  0  0  0  0  0  0  0  0  0
   19.5082   20.6580   20.7551 H   0  0  0  0  0  0  0  0  0  0  0  0
   20.7330   20.0652   21.8581 H   0  0  0  0  0  0  0  0  0  0  0  0
   18.9509   18.8157   21.7578 C   0  0  0  0  0  0  0  0  0  0  0  0
   18.2707   18.4421   20.9803 H   0  0  0  0  0  0  0  0  0  0  0  0
   19.4494   17.9365   22.1887 H   0  0  0  0  0  0  0  0  0  0  0  0
   18.1020   19.5182   22.8463 C   0  0  0  0  0  0  0  0  0  0  0  0
   17.3300   18.8195   23.1973 H   0  0  0  0  0  0  0  0  0  0  0  0
   17.5674   20.3660   22.3972 H   0  0  0  0  0  0  0  0  0  0  0  0
   18.9132   20.0197   24.0724 C   0  0  0  0  0  0  0  0  0  0  0  0
   19.6447   20.7774   23.7695 H   0  0  0  0  0  0  0  0  0  0  0  0
   18.2345   20.5100   24.7799 H   0  0  0  0  0  0  0  0  0  0  0  0
   19.6400   18.9149   24.8340 C   0  0  0  0  0  0  0  0  0  0  0  0
   20.8534   18.8791   24.7779 O   0  5  0  0  0  0  0  0  0  0  0  0
   18.9731   18.1312   25.4809 O   0  0  0  0  0  0  0  0  0  0  0  0
  1  2  1  0  0  0  0
  1  3  1  0  0  0  0
  1  4  2  0  0  0  0
  4  5  1  0  0  0  0
  4  6  1  0  0  0  0
  6  7  1  0  0  0  0
  6  8  1  0  0  0  0
  6  9  1  0  0  0  0
  9 10  1  0  0  0  0
  9 11  1  0  0  0  0
  9 12  1  0  0  0  0
 12 13  1  0  0  0  0
 12 14  1  0  0  0  0
 12 15  1  0  0  0  0
 15 16  1  0  0  0  0
 15 17  1  0  0  0  0
 15 18  1  0  0  0  0
 18 19  1  0  0  0  0
 18 20  2  0  0  0  0
M  END
> <VM2 Rank>
39

> <Conf_Id>
492

> <Probability>
0.21

> <Sum Probability>
97.90

> <Delta G>
2.476

> <G>
-19.413

> <E>
-35.124

> <-TS>
15.710

> <U+W>
-51.220

> <U>
10.870

> <W>
-62.090

> <W(PB)>
-64.273

> <W(SA)>
2.182

> <Valence>
8.803

> <Coulomb>
1.020

> <VdW>
1.048

> <VdW6>
-8.312

> <VdW12>
9.360

> <Bond>
0.212

> <Angle>
3.379

> <Pdih>
5.211

> <Idih>
0.001

> <Tether>
0.000

$$$$
VeraChem MOL file


 20 19  0  0  0  0  0  0  0  0999 V2000     
   20.4031   17.6341   19.6650 C   0  0  0  0  0  0  0  0  0  0  0  0
   21.0178   16.7359   19.6476 H   0  0  0  0  0  0  0  0  0  0  0  0
   19.5064   17.6411   19.0474 H   0  0  0  0  0  0  0  0  0  0  0  0
   20.7369   18.6856   20.4178 C   0  0  0  0  0  0  0  0  0  0  0  0
   21.6430   18.6630   21.0220 H   0  0  0  0  0  0  0  0  0  0  0  0
   19.9369   19.9693   20.4802 C   0  0  0  0  0  0  0  0  0  0  0  0
   19.6653   20.2599   19.4564 H   0  0  0  0  0  0  0  0  0  0  0  0
   20.5596   20.7871   20.8665 H   0  0  0  0  0  0  0  0  0  0  0  0
   18.6390   19.8503   21.3171 C   0  0  0  0  0  0  0  0  0  0  0  0
   17.9726   20.6731   21.0243 H   0  0  0  0  0  0  0  0  0  0  0  0
   18.1073   18.9250   21.0563 H   0  0  0  0  0  0  0  0  0  0  0  0
   18.8418   19.9334   22.8510 C   0  0  0  0  0  0  0  0  0  0  0  0
   17.8540   20.0192   23.3248 H   0  0  0  0  0  0  0  0  0  0  0  0
   19.3860   20.8529   23.1067 H   0  0  0  0  0  0  0  0  0  0  0  0
   19.5721   18.7111   23.4642 C   0  0  0  0  0  0  0  0  0  0  0  0
   19.0926   17.7800   23.1394 H   0  0  0  0  0  0  0  0  0  0  0  0
   20.6135   18.6769   23.1287 H   0  0  0  0  0  0  0  0  0  0  0  0
   19.5817   18.7333   24.9883 C   0  0  0  0  0  0  0  0  0  0  0  0
   20.4927   19.3105   25.5485 O   0  5  0  0  0  0  0  0  0  0  0  0
   18.6668   18.1904   25.5759 O   0  0  0  0  0  0  0  0  0  0  0  0
  1  2  1  0  0  0  0
  1  3  1  0  0  0  0
  1  4  2  0  0  0  0
  4  5  1  0  0  0  0
  4  6  1  0  0  0  0
  6  7  1  0  0  0  0
  6  8  1  0  0  0  0
  6  9  1  0  0  0  0
  9 10  1  0  0  0  0
  9 11  1  0  0  0  0
  9 12  1  0  0  0  0
 12 13  1  0  0  0  0
 12 14  1  0  0  0  0
 12 15  1  0  0  0  0
 15 16  1  0  0  0  0
 15 17  1  0  0  0  0
 15 18  1  0  0  0  0
 18 19  1  0  0  0  0
 18 20  2  0  0  0  0
M  END
> <VM2 Rank>
40

> <Conf_Id>
850

> <Probability>
0.20

> <Sum Probability>
98.10

> <Delta G>
2.505

> <G>
-19.385

> <E>
-34.047

> <-TS>
14.661

> <U+W>
-50.143

> <U>
10.643

> <W>
-60.786

> <W(PB)>
-62.965

> <W(SA)>
2.179

> <Valence>
11.231

> <Coulomb>
-1.077

> <VdW>
0.489

> <VdW6>
-7.546

> <VdW12>
8.035

> <Bond>
0.159

> <Angle>
3.005

> <Pdih>
8.065

> <Idih>
0.002

> <Tether>
0.000

$$$$
VeraChem MOL file


 20 19  0  0  0  0  0  0  0  0999 V2000     
   19.9218   18.4958   18.7070 C   0  0  0  0  0  0  0  0  0  0  0  0
   19.9913   17.7231   17.9432 H   0  0  0  0  0  0  0  0  0  0  0  0
   20.1577   19.5164   18.4100 H   0  0  0  0  0  0  0  0  0  0  0  0
   19.5634   18.1987   19.9588 C   0  0  0  0  0  0  0  0  0  0  0  0
   19.3322   17.1704   20.2361 H   0  0  0  0  0  0  0  0  0  0  0  0
   19.4445   19.2165   21.0712 C   0  0  0  0  0  0  0  0  0  0  0  0
   18.4851   19.0761   21.5858 H   0  0  0  0  0  0  0  0  0  0  0  0
   19.4392   20.2337   20.6570 H   0  0  0  0  0  0  0  0  0  0  0  0
   20.6074   19.0754   22.0787 C   0  0  0  0  0  0  0  0  0  0  0  0
   20.5674   18.0833   22.5492 H   0  0  0  0  0  0  0  0  0  0  0  0
   21.5586   19.1185   21.5306 H   0  0  0  0  0  0  0  0  0  0  0  0
   20.6173   20.1741   23.1700 C   0  0  0  0  0  0  0  0  0  0  0  0
   20.7135   21.1582   22.6917 H   0  0  0  0  0  0  0  0  0  0  0  0
   21.5135   20.0459   23.7927 H   0  0  0  0  0  0  0  0  0  0  0  0
   19.3666   20.1758   24.0911 C   0  0  0  0  0  0  0  0  0  0  0  0
   19.4544   20.9894   24.8205 H   0  0  0  0  0  0  0  0  0  0  0  0
   18.4587   20.3765   23.5110 H   0  0  0  0  0  0  0  0  0  0  0  0
   19.1692   18.8821   24.8760 C   0  0  0  0  0  0  0  0  0  0  0  0
   19.9301   18.6481   25.7945 O   0  5  0  0  0  0  0  0  0  0  0  0
   18.2506   18.1515   24.5607 O   0  0  0  0  0  0  0  0  0  0  0  0
  1  2  1  0  0  0  0
  1  3  1  0  0  0  0
  1  4  2  0  0  0  0
  4  5  1  0  0  0  0
  4  6  1  0  0  0  0
  6  7  1  0  0  0  0
  6  8  1  0  0  0  0
  6  9  1  0  0  0  0
  9 10  1  0  0  0  0
  9 11  1  0  0  0  0
  9 12  1  0  0  0  0
 12 13  1  0  0  0  0
 12 14  1  0  0  0  0
 12 15  1  0  0  0  0
 15 16  1  0  0  0  0
 15 17  1  0  0  0  0
 15 18  1  0  0  0  0
 18 19  1  0  0  0  0
 18 20  2  0  0  0  0
M  END
> <VM2 Rank>
41

> <Conf_Id>
246

> <Probability>
0.20

> <Sum Probability>
98.30

> <Delta G>
2.520

> <G>
-19.369

> <E>
-34.754

> <-TS>
15.384

> <U+W>
-50.850

> <U>
10.197

> <W>
-61.047

> <W(PB)>
-63.244

> <W(SA)>
2.197

> <Valence>
9.837

> <Coulomb>
0.032

> <VdW>
0.327

> <VdW6>
-7.642

> <VdW12>
7.969

> <Bond>
0.151

> <Angle>
2.748

> <Pdih>
6.937

> <Idih>
0.001

> <Tether>
0.000

$$$$
VeraChem MOL file


 20 19  0  0  0  0  0  0  0  0999 V2000     
   19.7784   19.0697   18.6686 C   0  0  0  0  0  0  0  0  0  0  0  0
   19.5018   19.6822   17.8120 H   0  0  0  0  0  0  0  0  0  0  0  0
   20.4737   18.2500   18.4948 H   0  0  0  0  0  0  0  0  0  0  0  0
   19.2837   19.3190   19.8838 C   0  0  0  0  0  0  0  0  0  0  0  0
   18.5894   20.1449   20.0370 H   0  0  0  0  0  0  0  0  0  0  0  0
   19.6202   18.5127   21.1183 C   0  0  0  0  0  0  0  0  0  0  0  0
   20.1046   17.5684   20.8354 H   0  0  0  0  0  0  0  0  0  0  0  0
   18.6911   18.2510   21.6411 H   0  0  0  0  0  0  0  0  0  0  0  0
   20.5497   19.3068   22.0632 C   0  0  0  0  0  0  0  0  0  0  0  0
   21.4271   19.6454   21.4952 H   0  0  0  0  0  0  0  0  0  0  0  0
   20.0353   20.2150   22.4064 H   0  0  0  0  0  0  0  0  0  0  0  0
   21.0385   18.4873   23.2829 C   0  0  0  0  0  0  0  0  0  0  0  0
   21.7505   19.0971   23.8562 H   0  0  0  0  0  0  0  0  0  0  0  0
   21.5991   17.6115   22.9291 H   0  0  0  0  0  0  0  0  0  0  0  0
   19.9060   18.0160   24.2356 C   0  0  0  0  0  0  0  0  0  0  0  0
   19.2163   17.3427   23.7140 H   0  0  0  0  0  0  0  0  0  0  0  0
   20.3415   17.4369   25.0583 H   0  0  0  0  0  0  0  0  0  0  0  0
   19.1014   19.1537   24.8578 C   0  0  0  0  0  0  0  0  0  0  0  0
   19.6350   19.8296   25.7157 O   0  5  0  0  0  0  0  0  0  0  0  0
   17.9581   19.3233   24.4822 O   0  0  0  0  0  0  0  0  0  0  0  0
  1  2  1  0  0  0  0
  1  3  1  0  0  0  0
  1  4  2  0  0  0  0
  4  5  1  0  0  0  0
  4  6  1  0  0  0  0
  6  7  1  0  0  0  0
  6  8  1  0  0  0  0
  6  9  1  0  0  0  0
  9 10  1  0  0  0  0
  9 11  1  0  0  0  0
  9 12  1  0  0  0  0
 12 13  1  0  0  0  0
 12 14  1  0  0  0  0
 12 15  1  0  0  0  0
 15 16  1  0  0  0  0
 15 17  1  0  0  0  0
 15 18  1  0  0  0  0
 18 19  1  0  0  0  0
 18 20  2  0  0  0  0
M  END
> <VM2 Rank>
42

> <Conf_Id>
97

> <Probability>
0.18

> <Sum Probability>
98.49

> <Delta G>
2.567

> <G>
-19.322

> <E>
-34.707

> <-TS>
15.384

> <U+W>
-50.803

> <U>
10.196

> <W>
-60.999

> <W(PB)>
-63.182

> <W(SA)>
2.182

> <Valence>
9.837

> <Coulomb>
0.032

> <VdW>
0.327

> <VdW6>
-7.642

> <VdW12>
7.969

> <Bond>
0.151

> <Angle>
2.748

> <Pdih>
6.937

> <Idih>
0.001

> <Tether>
0.000

$$$$
VeraChem MOL file


 20 19  0  0  0  0  0  0  0  0999 V2000     
   20.5713   18.0502   19.4878 C   0  0  0  0  0  0  0  0  0  0  0  0
   20.6301   17.4256   18.5982 H   0  0  0  0  0  0  0  0  0  0  0  0
   21.1388   17.7236   20.3564 H   0  0  0  0  0  0  0  0  0  0  0  0
   19.8338   19.1662   19.4927 C   0  0  0  0  0  0  0  0  0  0  0  0
   19.2883   19.4436   18.5911 H   0  0  0  0  0  0  0  0  0  0  0  0
   19.6516   20.1327   20.6526 C   0  0  0  0  0  0  0  0  0  0  0  0
   18.6001   20.4477   20.6896 H   0  0  0  0  0  0  0  0  0  0  0  0
   20.2188   21.0480   20.4375 H   0  0  0  0  0  0  0  0  0  0  0  0
   20.0538   19.6039   22.0518 C   0  0  0  0  0  0  0  0  0  0  0  0
   21.0954   19.2570   22.0399 H   0  0  0  0  0  0  0  0  0  0  0  0
   20.0228   20.4429   22.7604 H   0  0  0  0  0  0  0  0  0  0  0  0
   19.1162   18.4835   22.5630 C   0  0  0  0  0  0  0  0  0  0  0  0
   19.1090   17.6512   21.8475 H   0  0  0  0  0  0  0  0  0  0  0  0
   18.0849   18.8588   22.6159 H   0  0  0  0  0  0  0  0  0  0  0  0
   19.5377   17.9426   23.9540 C   0  0  0  0  0  0  0  0  0  0  0  0
   18.9151   17.0789   24.2151 H   0  0  0  0  0  0  0  0  0  0  0  0
   20.5753   17.5887   23.9236 H   0  0  0  0  0  0  0  0  0  0  0  0
   19.4029   18.9606   25.0828 C   0  0  0  0  0  0  0  0  0  0  0  0
   20.4136   19.4813   25.5125 O   0  5  0  0  0  0  0  0  0  0  0  0
   18.2902   19.1970   25.5107 O   0  0  0  0  0  0  0  0  0  0  0  0
  1  2  1  0  0  0  0
  1  3  1  0  0  0  0
  1  4  2  0  0  0  0
  4  5  1  0  0  0  0
  4  6  1  0  0  0  0
  6  7  1  0  0  0  0
  6  8  1  0  0  0  0
  6  9  1  0  0  0  0
  9 10  1  0  0  0  0
  9 11  1  0  0  0  0
  9 12  1  0  0  0  0
 12 13  1  0  0  0  0
 12 14  1  0  0  0  0
 12 15  1  0  0  0  0
 15 16  1  0  0  0  0
 15 17  1  0  0  0  0
 15 18  1  0  0  0  0
 18 19  1  0  0  0  0
 18 20  2  0  0  0  0
M  END
> <VM2 Rank>
43

> <Conf_Id>
484

> <Probability>
0.17

> <Sum Probability>
98.66

> <Delta G>
2.595

> <G>
-19.294

> <E>
-35.038

> <-TS>
15.744

> <U+W>
-51.135

> <U>
9.738

> <W>
-60.873

> <W(PB)>
-63.018

> <W(SA)>
2.145

> <Valence>
9.030

> <Coulomb>
-0.282

> <VdW>
0.990

> <VdW6>
-8.096

> <VdW12>
9.086

> <Bond>
0.190

> <Angle>
3.359

> <Pdih>
5.480

> <Idih>
0.000

> <Tether>
0.000

$$$$
VeraChem MOL file


 20 19  0  0  0  0  0  0  0  0999 V2000     
   20.1786   17.9318   19.4371 C   0  0  0  0  0  0  0  0  0  0  0  0
   19.6968   17.2888   20.1702 H   0  0  0  0  0  0  0  0  0  0  0  0
   20.6786   17.4403   18.6043 H   0  0  0  0  0  0  0  0  0  0  0  0
   20.1641   19.2658   19.5354 C   0  0  0  0  0  0  0  0  0  0  0  0
   20.6625   19.8581   18.7684 H   0  0  0  0  0  0  0  0  0  0  0  0
   19.5144   20.0914   20.6350 C   0  0  0  0  0  0  0  0  0  0  0  0
   18.6091   20.5625   20.2298 H   0  0  0  0  0  0  0  0  0  0  0  0
   20.1814   20.9246   20.8937 H   0  0  0  0  0  0  0  0  0  0  0  0
   19.1523   19.3320   21.9355 C   0  0  0  0  0  0  0  0  0  0  0  0
   18.5553   20.0003   22.5711 H   0  0  0  0  0  0  0  0  0  0  0  0
   18.5047   18.4757   21.7056 H   0  0  0  0  0  0  0  0  0  0  0  0
   20.3987   18.8700   22.7284 C   0  0  0  0  0  0  0  0  0  0  0  0
   21.0131   19.7415   22.9935 H   0  0  0  0  0  0  0  0  0  0  0  0
   21.0242   18.2284   22.0946 H   0  0  0  0  0  0  0  0  0  0  0  0
   20.0295   18.0909   24.0174 C   0  0  0  0  0  0  0  0  0  0  0  0
   19.3931   17.2323   23.7712 H   0  0  0  0  0  0  0  0  0  0  0  0
   20.9406   17.6895   24.4764 H   0  0  0  0  0  0  0  0  0  0  0  0
   19.3210   18.9359   25.0722 C   0  0  0  0  0  0  0  0  0  0  0  0
   19.9894   19.7092   25.7298 O   0  5  0  0  0  0  0  0  0  0  0  0
   18.1231   18.7909   25.2171 O   0  0  0  0  0  0  0  0  0  0  0  0
  1  2  1  0  0  0  0
  1  3  1  0  0  0  0
  1  4  2  0  0  0  0
  4  5  1  0  0  0  0
  4  6  1  0  0  0  0
  6  7  1  0  0  0  0
  6  8  1  0  0  0  0
  6  9  1  0  0  0  0
  9 10  1  0  0  0  0
  9 11  1  0  0  0  0
  9 12  1  0  0  0  0
 12 13  1  0  0  0  0
 12 14  1  0  0  0  0
 12 15  1  0  0  0  0
 15 16  1  0  0  0  0
 15 17  1  0  0  0  0
 15 18  1  0  0  0  0
 18 19  1  0  0  0  0
 18 20  2  0  0  0  0
M  END
> <VM2 Rank>
44

> <Conf_Id>
73

> <Probability>
0.17

> <Sum Probability>
98.83

> <Delta G>
2.627

> <G>
-19.262

> <E>
-35.007

> <-TS>
15.745

> <U+W>
-51.104

> <U>
9.738

> <W>
-60.842

> <W(PB)>
-63.014

> <W(SA)>
2.172

> <Valence>
9.029

> <Coulomb>
-0.281

> <VdW>
0.990

> <VdW6>
-8.096

> <VdW12>
9.086

> <Bond>
0.190

> <Angle>
3.359

> <Pdih>
5.480

> <Idih>
0.000

> <Tether>
0.000

$$$$
VeraChem MOL file


 20 19  0  0  0  0  0  0  0  0999 V2000     
   19.8187   17.4133   19.5529 C   0  0  0  0  0  0  0  0  0  0  0  0
   20.2561   16.9350   18.6782 H   0  0  0  0  0  0  0  0  0  0  0  0
   19.2349   16.7881   20.2268 H   0  0  0  0  0  0  0  0  0  0  0  0
   19.9961   18.7157   19.7890 C   0  0  0  0  0  0  0  0  0  0  0  0
   20.5848   19.3244   19.1030 H   0  0  0  0  0  0  0  0  0  0  0  0
   19.4183   19.4473   20.9802 C   0  0  0  0  0  0  0  0  0  0  0  0
   18.6280   18.8409   21.4421 H   0  0  0  0  0  0  0  0  0  0  0  0
   18.9487   20.3815   20.6449 H   0  0  0  0  0  0  0  0  0  0  0  0
   20.5132   19.7605   22.0244 C   0  0  0  0  0  0  0  0  0  0  0  0
   20.9285   18.8198   22.4115 H   0  0  0  0  0  0  0  0  0  0  0  0
   21.3424   20.2815   21.5264 H   0  0  0  0  0  0  0  0  0  0  0  0
   20.0155   20.6384   23.1991 C   0  0  0  0  0  0  0  0  0  0  0  0
   19.6545   21.5983   22.8057 H   0  0  0  0  0  0  0  0  0  0  0  0
   20.8686   20.8743   23.8501 H   0  0  0  0  0  0  0  0  0  0  0  0
   18.8974   19.9881   24.0591 C   0  0  0  0  0  0  0  0  0  0  0  0
   18.6023   20.6818   24.8549 H   0  0  0  0  0  0  0  0  0  0  0  0
   18.0000   19.8089   23.4560 H   0  0  0  0  0  0  0  0  0  0  0  0
   19.3064   18.6788   24.7280 C   0  0  0  0  0  0  0  0  0  0  0  0
   20.1071   18.7283   25.6413 O   0  5  0  0  0  0  0  0  0  0  0  0
   18.7984   17.6475   24.3341 O   0  0  0  0  0  0  0  0  0  0  0  0
  1  2  1  0  0  0  0
  1  3  1  0  0  0  0
  1  4  2  0  0  0  0
  4  5  1  0  0  0  0
  4  6  1  0  0  0  0
  6  7  1  0  0  0  0
  6  8  1  0  0  0  0
  6  9  1  0  0  0  0
  9 10  1  0  0  0  0
  9 11  1  0  0  0  0
  9 12  1  0  0  0  0
 12 13  1  0  0  0  0
 12 14  1  0  0  0  0
 12 15  1  0  0  0  0
 15 16  1  0  0  0  0
 15 17  1  0  0  0  0
 15 18  1  0  0  0  0
 18 19  1  0  0  0  0
 18 20  2  0  0  0  0
M  END
> <VM2 Rank>
45

> <Conf_Id>
99

> <Probability>
0.14

> <Sum Probability>
98.97

> <Delta G>
2.727

> <G>
-19.163

> <E>
-34.521

> <-TS>
15.358

> <U+W>
-50.617

> <U>
11.126

> <W>
-61.743

> <W(PB)>
-63.912

> <W(SA)>
2.169

> <Valence>
9.852

> <Coulomb>
0.993

> <VdW>
0.281

> <VdW6>
-7.706

> <VdW12>
7.986

> <Bond>
0.153

> <Angle>
2.748

> <Pdih>
6.950

> <Idih>
0.001

> <Tether>
0.000

$$$$
VeraChem MOL file


 20 19  0  0  0  0  0  0  0  0999 V2000     
   21.1164   17.8044   19.7206 C   0  0  0  0  0  0  0  0  0  0  0  0
   21.2279   17.2277   18.8040 H   0  0  0  0  0  0  0  0  0  0  0  0
   21.7699   17.5522   20.5543 H   0  0  0  0  0  0  0  0  0  0  0  0
   20.2095   18.7800   19.8166 C   0  0  0  0  0  0  0  0  0  0  0  0
   19.5636   19.0165   18.9713 H   0  0  0  0  0  0  0  0  0  0  0  0
   19.9993   19.6225   21.0552 C   0  0  0  0  0  0  0  0  0  0  0  0
   19.9473   20.6826   20.7737 H   0  0  0  0  0  0  0  0  0  0  0  0
   20.8587   19.5135   21.7299 H   0  0  0  0  0  0  0  0  0  0  0  0
   18.7032   19.2150   21.7909 C   0  0  0  0  0  0  0  0  0  0  0  0
   17.8674   19.2340   21.0781 H   0  0  0  0  0  0  0  0  0  0  0  0
   18.7905   18.1753   22.1357 H   0  0  0  0  0  0  0  0  0  0  0  0
   18.3528   20.1372   22.9846 C   0  0  0  0  0  0  0  0  0  0  0  0
   17.3852   19.8243   23.4008 H   0  0  0  0  0  0  0  0  0  0  0  0
   18.2128   21.1637   22.6198 H   0  0  0  0  0  0  0  0  0  0  0  0
   19.4075   20.1419   24.1249 C   0  0  0  0  0  0  0  0  0  0  0  0
   20.3686   20.5230   23.7615 H   0  0  0  0  0  0  0  0  0  0  0  0
   19.0822   20.8265   24.9169 H   0  0  0  0  0  0  0  0  0  0  0  0
   19.6348   18.7778   24.7703 C   0  0  0  0  0  0  0  0  0  0  0  0
   20.6975   18.2201   24.5790 O   0  5  0  0  0  0  0  0  0  0  0  0
   18.7499   18.3190   25.4660 O   0  0  0  0  0  0  0  0  0  0  0  0
  1  2  1  0  0  0  0
  1  3  1  0  0  0  0
  1  4  2  0  0  0  0
  4  5  1  0  0  0  0
  4  6  1  0  0  0  0
  6  7  1  0  0  0  0
  6  8  1  0  0  0  0
  6  9  1  0  0  0  0
  9 10  1  0  0  0  0
  9 11  1  0  0  0  0
  9 12  1  0  0  0  0
 12 13  1  0  0  0  0
 12 14  1  0  0  0  0
 12 15  1  0  0  0  0
 15 16  1  0  0  0  0
 15 17  1  0  0  0  0
 15 18  1  0  0  0  0
 18 19  1  0  0  0  0
 18 20  2  0  0  0  0
M  END
> <VM2 Rank>
46

> <Conf_Id>
161

> <Probability>
0.14

> <Sum Probability>
99.10

> <Delta G>
2.743

> <G>
-19.147

> <E>
-34.505

> <-TS>
15.358

> <U+W>
-50.601

> <U>
11.126

> <W>
-61.727

> <W(PB)>
-63.877

> <W(SA)>
2.149

> <Valence>
9.852

> <Coulomb>
0.993

> <VdW>
0.281

> <VdW6>
-7.706

> <VdW12>
7.987

> <Bond>
0.153

> <Angle>
2.748

> <Pdih>
6.950

> <Idih>
0.001

> <Tether>
0.000

$$$$
VeraChem MOL file


 20 19  0  0  0  0  0  0  0  0999 V2000     
   20.7733   17.7201   20.4913 C   0  0  0  0  0  0  0  0  0  0  0  0
   20.4343   17.4182   21.4801 H   0  0  0  0  0  0  0  0  0  0  0  0
   21.5717   17.1307   20.0440 H   0  0  0  0  0  0  0  0  0  0  0  0
   20.2447   18.7620   19.8396 C   0  0  0  0  0  0  0  0  0  0  0  0
   20.6255   19.0151   18.8505 H   0  0  0  0  0  0  0  0  0  0  0  0
   19.1338   19.6771   20.3312 C   0  0  0  0  0  0  0  0  0  0  0  0
   18.2240   19.4613   19.7555 H   0  0  0  0  0  0  0  0  0  0  0  0
   19.3925   20.7151   20.0823 H   0  0  0  0  0  0  0  0  0  0  0  0
   18.8054   19.6001   21.8428 C   0  0  0  0  0  0  0  0  0  0  0  0
   17.8911   20.1790   22.0314 H   0  0  0  0  0  0  0  0  0  0  0  0
   18.5705   18.5645   22.1226 H   0  0  0  0  0  0  0  0  0  0  0  0
   19.9393   20.1627   22.7336 C   0  0  0  0  0  0  0  0  0  0  0  0
   20.1342   21.2064   22.4528 H   0  0  0  0  0  0  0  0  0  0  0  0
   20.8726   19.6121   22.5557 H   0  0  0  0  0  0  0  0  0  0  0  0
   19.5937   20.1028   24.2440 C   0  0  0  0  0  0  0  0  0  0  0  0
   20.3702   20.6214   24.8185 H   0  0  0  0  0  0  0  0  0  0  0  0
   18.6504   20.6272   24.4386 H   0  0  0  0  0  0  0  0  0  0  0  0
   19.4865   18.6846   24.7976 C   0  0  0  0  0  0  0  0  0  0  0  0
   20.5153   18.0750   25.0138 O   0  5  0  0  0  0  0  0  0  0  0  0
   18.3788   18.2335   25.0141 O   0  0  0  0  0  0  0  0  0  0  0  0
  1  2  1  0  0  0  0
  1  3  1  0  0  0  0
  1  4  2  0  0  0  0
  4  5  1  0  0  0  0
  4  6  1  0  0  0  0
  6  7  1  0  0  0  0
  6  8  1  0  0  0  0
  6  9  1  0  0  0  0
  9 10  1  0  0  0  0
  9 11  1  0  0  0  0
  9 12  1  0  0  0  0
 12 13  1  0  0  0  0
 12 14  1  0  0  0  0
 12 15  1  0  0  0  0
 15 16  1  0  0  0  0
 15 17  1  0  0  0  0
 15 18  1  0  0  0  0
 18 19  1  0  0  0  0
 18 20  2  0  0  0  0
M  END
> <VM2 Rank>
47

> <Conf_Id>
896

> <Probability>
0.12

> <Sum Probability>
99.22

> <Delta G>
2.836

> <G>
-19.054

> <E>
-34.883

> <-TS>
15.829

> <U+W>
-50.979

> <U>
11.076

> <W>
-62.055

> <W(PB)>
-64.206

> <W(SA)>
2.151

> <Valence>
8.972

> <Coulomb>
1.263

> <VdW>
0.841

> <VdW6>
-8.354

> <VdW12>
9.195

> <Bond>
0.189

> <Angle>
3.355

> <Pdih>
5.428

> <Idih>
0.001

> <Tether>
0.000

$$$$
VeraChem MOL file


 20 19  0  0  0  0  0  0  0  0999 V2000     
   19.7320   17.3114   20.1645 C   0  0  0  0  0  0  0  0  0  0  0  0
   20.3187   16.3992   20.0711 H   0  0  0  0  0  0  0  0  0  0  0  0
   18.6495   17.2079   20.2174 H   0  0  0  0  0  0  0  0  0  0  0  0
   20.3215   18.5091   20.2150 C   0  0  0  0  0  0  0  0  0  0  0  0
   21.4069   18.5888   20.1611 H   0  0  0  0  0  0  0  0  0  0  0  0
   19.5754   19.8206   20.3440 C   0  0  0  0  0  0  0  0  0  0  0  0
   18.4902   19.6562   20.3861 H   0  0  0  0  0  0  0  0  0  0  0  0
   19.7621   20.4072   19.4347 H   0  0  0  0  0  0  0  0  0  0  0  0
   20.0298   20.6681   21.5582 C   0  0  0  0  0  0  0  0  0  0  0  0
   21.1262   20.6686   21.6281 H   0  0  0  0  0  0  0  0  0  0  0  0
   19.7405   21.7107   21.3680 H   0  0  0  0  0  0  0  0  0  0  0  0
   19.4097   20.2514   22.9157 C   0  0  0  0  0  0  0  0  0  0  0  0
   18.3138   20.2443   22.8387 H   0  0  0  0  0  0  0  0  0  0  0  0
   19.6607   21.0199   23.6599 H   0  0  0  0  0  0  0  0  0  0  0  0
   19.8998   18.8799   23.4459 C   0  0  0  0  0  0  0  0  0  0  0  0
   19.5374   18.0696   22.8056 H   0  0  0  0  0  0  0  0  0  0  0  0
   20.9954   18.8387   23.4382 H   0  0  0  0  0  0  0  0  0  0  0  0
   19.4236   18.5914   24.8649 C   0  0  0  0  0  0  0  0  0  0  0  0
   20.1407   18.9220   25.7887 O   0  5  0  0  0  0  0  0  0  0  0  0
   18.3384   18.0642   25.0111 O   0  0  0  0  0  0  0  0  0  0  0  0
  1  2  1  0  0  0  0
  1  3  1  0  0  0  0
  1  4  2  0  0  0  0
  4  5  1  0  0  0  0
  4  6  1  0  0  0  0
  6  7  1  0  0  0  0
  6  8  1  0  0  0  0
  6  9  1  0  0  0  0
  9 10  1  0  0  0  0
  9 11  1  0  0  0  0
  9 12  1  0  0  0  0
 12 13  1  0  0  0  0
 12 14  1  0  0  0  0
 12 15  1  0  0  0  0
 15 16  1  0  0  0  0
 15 17  1  0  0  0  0
 15 18  1  0  0  0  0
 18 19  1  0  0  0  0
 18 20  2  0  0  0  0
M  END
> <VM2 Rank>
48

> <Conf_Id>
928

> <Probability>
0.11

> <Sum Probability>
99.33

> <Delta G>
2.873

> <G>
-19.016

> <E>
-34.233

> <-TS>
15.216

> <U+W>
-50.329

> <U>
11.028

> <W>
-61.357

> <W(PB)>
-63.524

> <W(SA)>
2.167

> <Valence>
11.008

> <Coulomb>
-0.464

> <VdW>
0.484

> <VdW6>
-7.637

> <VdW12>
8.122

> <Bond>
0.158

> <Angle>
3.060

> <Pdih>
7.789

> <Idih>
0.001

> <Tether>
0.000

$$$$
VeraChem MOL file


 20 19  0  0  0  0  0  0  0  0999 V2000     
   21.0992   17.7235   20.3409 C   0  0  0  0  0  0  0  0  0  0  0  0
   21.1447   16.6482   20.1778 H   0  0  0  0  0  0  0  0  0  0  0  0
   22.0156   18.2225   20.6517 H   0  0  0  0  0  0  0  0  0  0  0  0
   19.9605   18.4002   20.1685 C   0  0  0  0  0  0  0  0  0  0  0  0
   19.0550   17.8798   19.8578 H   0  0  0  0  0  0  0  0  0  0  0  0
   19.8178   19.8936   20.3753 C   0  0  0  0  0  0  0  0  0  0  0  0
   19.5599   20.3463   19.4086 H   0  0  0  0  0  0  0  0  0  0  0  0
   20.7719   20.3440   20.6805 H   0  0  0  0  0  0  0  0  0  0  0  0
   18.7074   20.2694   21.3877 C   0  0  0  0  0  0  0  0  0  0  0  0
   18.4173   21.3118   21.1973 H   0  0  0  0  0  0  0  0  0  0  0  0
   17.8073   19.6681   21.1999 H   0  0  0  0  0  0  0  0  0  0  0  0
   19.1176   20.1634   22.8780 C   0  0  0  0  0  0  0  0  0  0  0  0
   18.3236   20.6168   23.4874 H   0  0  0  0  0  0  0  0  0  0  0  0
   20.0225   20.7595   23.0592 H   0  0  0  0  0  0  0  0  0  0  0  0
   19.3458   18.7129   23.3744 C   0  0  0  0  0  0  0  0  0  0  0  0
   18.4873   18.0825   23.1146 H   0  0  0  0  0  0  0  0  0  0  0  0
   20.2283   18.2779   22.8947 H   0  0  0  0  0  0  0  0  0  0  0  0
   19.5561   18.6313   24.8819 C   0  0  0  0  0  0  0  0  0  0  0  0
   20.6835   18.7712   25.3136 O   0  5  0  0  0  0  0  0  0  0  0  0
   18.5831   18.4523   25.5877 O   0  0  0  0  0  0  0  0  0  0  0  0
  1  2  1  0  0  0  0
  1  3  1  0  0  0  0
  1  4  2  0  0  0  0
  4  5  1  0  0  0  0
  4  6  1  0  0  0  0
  6  7  1  0  0  0  0
  6  8  1  0  0  0  0
  6  9  1  0  0  0  0
  9 10  1  0  0  0  0
  9 11  1  0  0  0  0
  9 12  1  0  0  0  0
 12 13  1  0  0  0  0
 12 14  1  0  0  0  0
 12 15  1  0  0  0  0
 15 16  1  0  0  0  0
 15 17  1  0  0  0  0
 15 18  1  0  0  0  0
 18 19  1  0  0  0  0
 18 20  2  0  0  0  0
M  END
> <VM2 Rank>
49

> <Conf_Id>
157

> <Probability>
0.10

> <Sum Probability>
99.43

> <Delta G>
2.905

> <G>
-18.984

> <E>
-34.201

> <-TS>
15.217

> <U+W>
-50.297

> <U>
11.028

> <W>
-61.325

> <W(PB)>
-63.509

> <W(SA)>
2.184

> <Valence>
11.008

> <Coulomb>
-0.464

> <VdW>
0.484

> <VdW6>
-7.638

> <VdW12>
8.122

> <Bond>
0.158

> <Angle>
3.060

> <Pdih>
7.789

> <Idih>
0.001

> <Tether>
0.000

$$$$
VeraChem MOL file


 20 19  0  0  0  0  0  0  0  0999 V2000     
   21.3390   19.7212   20.5990 C   0  0  0  0  0  0  0  0  0  0  0  0
   22.3399   19.8480   20.1903 H   0  0  0  0  0  0  0  0  0  0  0  0
   21.1798   20.0560   21.6220 H   0  0  0  0  0  0  0  0  0  0  0  0
   20.3628   19.1793   19.8621 C   0  0  0  0  0  0  0  0  0  0  0  0
   20.5831   18.8640   18.8426 H   0  0  0  0  0  0  0  0  0  0  0  0
   18.9242   18.9353   20.2913 C   0  0  0  0  0  0  0  0  0  0  0  0
   18.6099   17.9457   19.9338 H   0  0  0  0  0  0  0  0  0  0  0  0
   18.2775   19.6502   19.7654 H   0  0  0  0  0  0  0  0  0  0  0  0
   18.6419   19.0224   21.8117 C   0  0  0  0  0  0  0  0  0  0  0  0
   18.9744   19.9947   22.1992 H   0  0  0  0  0  0  0  0  0  0  0  0
   17.5550   18.9907   21.9673 H   0  0  0  0  0  0  0  0  0  0  0  0
   19.2896   17.8656   22.6105 C   0  0  0  0  0  0  0  0  0  0  0  0
   20.3776   17.8622   22.4619 H   0  0  0  0  0  0  0  0  0  0  0  0
   18.9185   16.9076   22.2225 H   0  0  0  0  0  0  0  0  0  0  0  0
   18.9841   17.9476   24.1285 C   0  0  0  0  0  0  0  0  0  0  0  0
   17.9008   17.9770   24.2966 H   0  0  0  0  0  0  0  0  0  0  0  0
   19.3589   17.0459   24.6269 H   0  0  0  0  0  0  0  0  0  0  0  0
   19.6181   19.1500   24.8223 C   0  0  0  0  0  0  0  0  0  0  0  0
   20.8073   19.1073   25.0693 O   0  5  0  0  0  0  0  0  0  0  0  0
   18.9038   20.0893   25.1133 O   0  0  0  0  0  0  0  0  0  0  0  0
  1  2  1  0  0  0  0
  1  3  1  0  0  0  0
  1  4  2  0  0  0  0
  4  5  1  0  0  0  0
  4  6  1  0  0  0  0
  6  7  1  0  0  0  0
  6  8  1  0  0  0  0
  6  9  1  0  0  0  0
  9 10  1  0  0  0  0
  9 11  1  0  0  0  0
  9 12  1  0  0  0  0
 12 13  1  0  0  0  0
 12 14  1  0  0  0  0
 12 15  1  0  0  0  0
 15 16  1  0  0  0  0
 15 17  1  0  0  0  0
 15 18  1  0  0  0  0
 18 19  1  0  0  0  0
 18 20  2  0  0  0  0
M  END
> <VM2 Rank>
50

> <Conf_Id>
752

> <Probability>
0.10

> <Sum Probability>
99.54

> <Delta G>
2.910

> <G>
-18.980

> <E>
-34.808

> <-TS>
15.828

> <U+W>
-50.904

> <U>
11.076

> <W>
-61.980

> <W(PB)>
-64.111

> <W(SA)>
2.131

> <Valence>
8.972

> <Coulomb>
1.262

> <VdW>
0.841

> <VdW6>
-8.354

> <VdW12>
9.195

> <Bond>
0.189

> <Angle>
3.355

> <Pdih>
5.428

> <Idih>
0.001

> <Tether>
0.000

$$$$
VeraChem MOL file


 20 19  0  0  0  0  0  0  0  0999 V2000     
   19.9932   18.6779   18.8432 C   0  0  0  0  0  0  0  0  0  0  0  0
   20.4027   17.9184   18.1795 H   0  0  0  0  0  0  0  0  0  0  0  0
   19.8279   19.6706   18.4275 H   0  0  0  0  0  0  0  0  0  0  0  0
   19.7090   18.3998   20.1182 C   0  0  0  0  0  0  0  0  0  0  0  0
   19.8799   17.3991   20.5140 H   0  0  0  0  0  0  0  0  0  0  0  0
   19.1338   19.4011   21.0969 C   0  0  0  0  0  0  0  0  0  0  0  0
   18.3169   18.9423   21.6688 H   0  0  0  0  0  0  0  0  0  0  0  0
   18.6812   20.2376   20.5476 H   0  0  0  0  0  0  0  0  0  0  0  0
   20.2041   19.9682   22.0600 C   0  0  0  0  0  0  0  0  0  0  0  0
   20.9653   20.4973   21.4706 H   0  0  0  0  0  0  0  0  0  0  0  0
   19.7374   20.7259   22.7043 H   0  0  0  0  0  0  0  0  0  0  0  0
   20.9068   18.9070   22.9455 C   0  0  0  0  0  0  0  0  0  0  0  0
   21.6606   19.4104   23.5665 H   0  0  0  0  0  0  0  0  0  0  0  0
   21.4594   18.2050   22.3072 H   0  0  0  0  0  0  0  0  0  0  0  0
   19.9506   18.1086   23.8730 C   0  0  0  0  0  0  0  0  0  0  0  0
   19.2303   17.5324   23.2811 H   0  0  0  0  0  0  0  0  0  0  0  0
   20.5304   17.3797   24.4511 H   0  0  0  0  0  0  0  0  0  0  0  0
   19.1840   18.9730   24.8698 C   0  0  0  0  0  0  0  0  0  0  0  0
   19.7972   19.4474   25.8060 O   0  5  0  0  0  0  0  0  0  0  0  0
   17.9922   19.1350   24.6953 O   0  0  0  0  0  0  0  0  0  0  0  0
  1  2  1  0  0  0  0
  1  3  1  0  0  0  0
  1  4  2  0  0  0  0
  4  5  1  0  0  0  0
  4  6  1  0  0  0  0
  6  7  1  0  0  0  0
  6  8  1  0  0  0  0
  6  9  1  0  0  0  0
  9 10  1  0  0  0  0
  9 11  1  0  0  0  0
  9 12  1  0  0  0  0
 12 13  1  0  0  0  0
 12 14  1  0  0  0  0
 12 15  1  0  0  0  0
 15 16  1  0  0  0  0
 15 17  1  0  0  0  0
 15 18  1  0  0  0  0
 18 19  1  0  0  0  0
 18 20  2  0  0  0  0
M  END
> <VM2 Rank>
51

> <Conf_Id>
284

> <Probability>
0.07

> <Sum Probability>
99.61

> <Delta G>
3.139

> <G>
-18.751

> <E>
-34.410

> <-TS>
15.659

> <U+W>
-50.506

> <U>
10.403

> <W>
-60.909

> <W(PB)>
-63.052

> <W(SA)>
2.143

> <Valence>
10.022

> <Coulomb>
0.093

> <VdW>
0.289

> <VdW6>
-8.409

> <VdW12>
8.698

> <Bond>
0.179

> <Angle>
2.939

> <Pdih>
6.902

> <Idih>
0.001

> <Tether>
0.000

$$$$
VeraChem MOL file


 20 19  0  0  0  0  0  0  0  0999 V2000     
   20.4529   18.8165   18.9024 C   0  0  0  0  0  0  0  0  0  0  0  0
   20.1427   19.7654   18.4680 H   0  0  0  0  0  0  0  0  0  0  0  0
   20.6911   18.0053   18.2166 H   0  0  0  0  0  0  0  0  0  0  0  0
   20.5360   18.6491   20.2248 C   0  0  0  0  0  0  0  0  0  0  0  0
   20.8509   17.6918   20.6392 H   0  0  0  0  0  0  0  0  0  0  0  0
   20.2265   19.7305   21.2378 C   0  0  0  0  0  0  0  0  0  0  0  0
   20.2638   20.7147   20.7518 H   0  0  0  0  0  0  0  0  0  0  0  0
   21.0013   19.7515   22.0151 H   0  0  0  0  0  0  0  0  0  0  0  0
   18.8309   19.5543   21.8829 C   0  0  0  0  0  0  0  0  0  0  0  0
   18.6445   20.3964   22.5634 H   0  0  0  0  0  0  0  0  0  0  0  0
   18.0667   19.6235   21.0968 H   0  0  0  0  0  0  0  0  0  0  0  0
   18.6361   18.2225   22.6527 C   0  0  0  0  0  0  0  0  0  0  0  0
   18.7216   17.3797   21.9541 H   0  0  0  0  0  0  0  0  0  0  0  0
   17.6100   18.1893   23.0441 H   0  0  0  0  0  0  0  0  0  0  0  0
   19.6253   18.0105   23.8311 C   0  0  0  0  0  0  0  0  0  0  0  0
   19.4202   17.0451   24.3079 H   0  0  0  0  0  0  0  0  0  0  0  0
   20.6573   17.9626   23.4652 H   0  0  0  0  0  0  0  0  0  0  0  0
   19.5403   19.0804   24.9158 C   0  0  0  0  0  0  0  0  0  0  0  0
   20.4533   19.8767   25.0128 O   0  5  0  0  0  0  0  0  0  0  0  0
   18.5698   19.0775   25.6477 O   0  0  0  0  0  0  0  0  0  0  0  0
  1  2  1  0  0  0  0
  1  3  1  0  0  0  0
  1  4  2  0  0  0  0
  4  5  1  0  0  0  0
  4  6  1  0  0  0  0
  6  7  1  0  0  0  0
  6  8  1  0  0  0  0
  6  9  1  0  0  0  0
  9 10  1  0  0  0  0
  9 11  1  0  0  0  0
  9 12  1  0  0  0  0
 12 13  1  0  0  0  0
 12 14  1  0  0  0  0
 12 15  1  0  0  0  0
 15 16  1  0  0  0  0
 15 17  1  0  0  0  0
 15 18  1  0  0  0  0
 18 19  1  0  0  0  0
 18 20  2  0  0  0  0
M  END
> <VM2 Rank>
52

> <Conf_Id>
354

> <Probability>
0.07

> <Sum Probability>
99.67

> <Delta G>
3.150

> <G>
-18.740

> <E>
-34.401

> <-TS>
15.660

> <U+W>
-50.497

> <U>
10.403

> <W>
-60.900

> <W(PB)>
-63.048

> <W(SA)>
2.148

> <Valence>
10.022

> <Coulomb>
0.093

> <VdW>
0.289

> <VdW6>
-8.408

> <VdW12>
8.697

> <Bond>
0.179

> <Angle>
2.939

> <Pdih>
6.902

> <Idih>
0.001

> <Tether>
0.000

$$$$
VeraChem MOL file


 20 19  0  0  0  0  0  0  0  0999 V2000     
   20.8985   17.9491   19.8832 C   0  0  0  0  0  0  0  0  0  0  0  0
   21.5629   17.6445   20.6900 H   0  0  0  0  0  0  0  0  0  0  0  0
   20.8567   17.3126   19.0010 H   0  0  0  0  0  0  0  0  0  0  0  0
   20.1594   19.0583   19.9697 C   0  0  0  0  0  0  0  0  0  0  0  0
   19.4990   19.3442   19.1516 H   0  0  0  0  0  0  0  0  0  0  0  0
   20.1627   19.9908   21.1624 C   0  0  0  0  0  0  0  0  0  0  0  0
   20.3566   21.0142   20.8152 H   0  0  0  0  0  0  0  0  0  0  0  0
   20.9842   19.7444   21.8479 H   0  0  0  0  0  0  0  0  0  0  0  0
   18.8165   19.9761   21.9254 C   0  0  0  0  0  0  0  0  0  0  0  0
   18.8565   20.7180   22.7347 H   0  0  0  0  0  0  0  0  0  0  0  0
   18.0199   20.3096   21.2466 H   0  0  0  0  0  0  0  0  0  0  0  0
   18.4258   18.5961   22.5142 C   0  0  0  0  0  0  0  0  0  0  0  0
   18.3120   17.8697   21.6984 H   0  0  0  0  0  0  0  0  0  0  0  0
   17.4379   18.6812   22.9874 H   0  0  0  0  0  0  0  0  0  0  0  0
   19.4311   18.0354   23.5569 C   0  0  0  0  0  0  0  0  0  0  0  0
   19.0830   17.0567   23.9067 H   0  0  0  0  0  0  0  0  0  0  0  0
   20.4115   17.8694   23.0965 H   0  0  0  0  0  0  0  0  0  0  0  0
   19.6120   18.9202   24.7867 C   0  0  0  0  0  0  0  0  0  0  0  0
   20.6591   19.5239   24.9138 O   0  5  0  0  0  0  0  0  0  0  0  0
   18.7059   18.9681   25.5956 O   0  0  0  0  0  0  0  0  0  0  0  0
  1  2  1  0  0  0  0
  1  3  1  0  0  0  0
  1  4  2  0  0  0  0
  4  5  1  0  0  0  0
  4  6  1  0  0  0  0
  6  7  1  0  0  0  0
  6  8  1  0  0  0  0
  6  9  1  0  0  0  0
  9 10  1  0  0  0  0
  9 11  1  0  0  0  0
  9 12  1  0  0  0  0
 12 13  1  0  0  0  0
 12 14  1  0  0  0  0
 12 15  1  0  0  0  0
 15 16  1  0  0  0  0
 15 17  1  0  0  0  0
 15 18  1  0  0  0  0
 18 19  1  0  0  0  0
 18 20  2  0  0  0  0
M  END
> <VM2 Rank>
53

> <Conf_Id>
383

> <Probability>
0.05

> <Sum Probability>
99.73

> <Delta G>
3.307

> <G>
-18.582

> <E>
-34.366

> <-TS>
15.783

> <U+W>
-50.462

> <U>
10.910

> <W>
-61.372

> <W(PB)>
-63.513

> <W(SA)>
2.140

> <Valence>
9.972

> <Coulomb>
0.850

> <VdW>
0.088

> <VdW6>
-8.717

> <VdW12>
8.805

> <Bond>
0.178

> <Angle>
2.916

> <Pdih>
6.877

> <Idih>
0.001

> <Tether>
0.000

$$$$
VeraChem MOL file


 20 19  0  0  0  0  0  0  0  0999 V2000     
   19.8781   17.6414   19.7513 C   0  0  0  0  0  0  0  0  0  0  0  0
   19.3210   16.9682   20.4007 H   0  0  0  0  0  0  0  0  0  0  0  0
   20.4638   17.1943   18.9500 H   0  0  0  0  0  0  0  0  0  0  0  0
   19.8492   18.9648   19.9296 C   0  0  0  0  0  0  0  0  0  0  0  0
   20.4159   19.6210   19.2697 H   0  0  0  0  0  0  0  0  0  0  0  0
   19.0609   19.6584   21.0203 C   0  0  0  0  0  0  0  0  0  0  0  0
   18.3737   18.9568   21.5112 H   0  0  0  0  0  0  0  0  0  0  0  0
   18.4282   20.4325   20.5666 H   0  0  0  0  0  0  0  0  0  0  0  0
   19.9759   20.3257   22.0750 C   0  0  0  0  0  0  0  0  0  0  0  0
   20.5942   21.0859   21.5787 H   0  0  0  0  0  0  0  0  0  0  0  0
   19.3512   20.8671   22.7985 H   0  0  0  0  0  0  0  0  0  0  0  0
   20.9051   19.3438   22.8340 C   0  0  0  0  0  0  0  0  0  0  0  0
   21.5445   19.9196   23.5171 H   0  0  0  0  0  0  0  0  0  0  0  0
   21.5823   18.8559   22.1203 H   0  0  0  0  0  0  0  0  0  0  0  0
   20.1576   18.2545   23.6506 C   0  0  0  0  0  0  0  0  0  0  0  0
   19.5652   17.6141   22.9875 H   0  0  0  0  0  0  0  0  0  0  0  0
   20.8895   17.6015   24.1398 H   0  0  0  0  0  0  0  0  0  0  0  0
   19.2435   18.8092   24.7393 C   0  0  0  0  0  0  0  0  0  0  0  0
   19.7591   19.2852   25.7318 O   0  5  0  0  0  0  0  0  0  0  0  0
   18.0415   18.7350   24.5761 O   0  0  0  0  0  0  0  0  0  0  0  0
  1  2  1  0  0  0  0
  1  3  1  0  0  0  0
  1  4  2  0  0  0  0
  4  5  1  0  0  0  0
  4  6  1  0  0  0  0
  6  7  1  0  0  0  0
  6  8  1  0  0  0  0
  6  9  1  0  0  0  0
  9 10  1  0  0  0  0
  9 11  1  0  0  0  0
  9 12  1  0  0  0  0
 12 13  1  0  0  0  0
 12 14  1  0  0  0  0
 12 15  1  0  0  0  0
 15 16  1  0  0  0  0
 15 17  1  0  0  0  0
 15 18  1  0  0  0  0
 18 19  1  0  0  0  0
 18 20  2  0  0  0  0
M  END
> <VM2 Rank>
54

> <Conf_Id>
701

> <Probability>
0.05

> <Sum Probability>
99.78

> <Delta G>
3.317

> <G>
-18.573

> <E>
-34.356

> <-TS>
15.783

> <U+W>
-50.452

> <U>
10.910

> <W>
-61.362

> <W(PB)>
-63.495

> <W(SA)>
2.133

> <Valence>
9.972

> <Coulomb>
0.850

> <VdW>
0.088

> <VdW6>
-8.716

> <VdW12>
8.804

> <Bond>
0.178

> <Angle>
2.916

> <Pdih>
6.877

> <Idih>
0.001

> <Tether>
0.000

$$$$
VeraChem MOL file


 20 19  0  0  0  0  0  0  0  0999 V2000     
   20.1310   19.8865   19.0542 C   0  0  0  0  0  0  0  0  0  0  0  0
   21.0357   20.4173   19.3464 H   0  0  0  0  0  0  0  0  0  0  0  0
   19.8685   19.8877   17.9976 H   0  0  0  0  0  0  0  0  0  0  0  0
   19.3713   19.2556   19.9534 C   0  0  0  0  0  0  0  0  0  0  0  0
   18.4698   18.7295   19.6404 H   0  0  0  0  0  0  0  0  0  0  0  0
   19.6712   19.2116   21.4353 C   0  0  0  0  0  0  0  0  0  0  0  0
   18.7616   19.4689   21.9916 H   0  0  0  0  0  0  0  0  0  0  0  0
   20.4267   19.9661   21.6937 H   0  0  0  0  0  0  0  0  0  0  0  0
   20.1719   17.8130   21.8586 C   0  0  0  0  0  0  0  0  0  0  0  0
   19.3723   17.0744   21.7104 H   0  0  0  0  0  0  0  0  0  0  0  0
   20.9910   17.5186   21.1880 H   0  0  0  0  0  0  0  0  0  0  0  0
   20.6898   17.7393   23.3167 C   0  0  0  0  0  0  0  0  0  0  0  0
   21.4965   18.4701   23.4674 H   0  0  0  0  0  0  0  0  0  0  0  0
   21.1474   16.7510   23.4597 H   0  0  0  0  0  0  0  0  0  0  0  0
   19.5966   17.9243   24.4064 C   0  0  0  0  0  0  0  0  0  0  0  0
   18.7031   17.3420   24.1510 H   0  0  0  0  0  0  0  0  0  0  0  0
   19.9694   17.5260   25.3571 H   0  0  0  0  0  0  0  0  0  0  0  0
   19.1860   19.3702   24.6778 C   0  0  0  0  0  0  0  0  0  0  0  0
   20.0423   20.1560   25.0339 O   0  5  0  0  0  0  0  0  0  0  0  0
   18.0108   19.6614   24.5717 O   0  0  0  0  0  0  0  0  0  0  0  0
  1  2  1  0  0  0  0
  1  3  1  0  0  0  0
  1  4  2  0  0  0  0
  4  5  1  0  0  0  0
  4  6  1  0  0  0  0
  6  7  1  0  0  0  0
  6  8  1  0  0  0  0
  6  9  1  0  0  0  0
  9 10  1  0  0  0  0
  9 11  1  0  0  0  0
  9 12  1  0  0  0  0
 12 13  1  0  0  0  0
 12 14  1  0  0  0  0
 12 15  1  0  0  0  0
 15 16  1  0  0  0  0
 15 17  1  0  0  0  0
 15 18  1  0  0  0  0
 18 19  1  0  0  0  0
 18 20  2  0  0  0  0
M  END
> <VM2 Rank>
55

> <Conf_Id>
158

> <Probability>
0.03

> <Sum Probability>
99.81

> <Delta G>
3.698

> <G>
-18.191

> <E>
-33.715

> <-TS>
15.523

> <U+W>
-49.811

> <U>
11.755

> <W>
-61.566

> <W(PB)>
-63.745

> <W(SA)>
2.179

> <Valence>
10.983

> <Coulomb>
0.362

> <VdW>
0.411

> <VdW6>
-8.035

> <VdW12>
8.446

> <Bond>
0.168

> <Angle>
3.178

> <Pdih>
7.632

> <Idih>
0.005

> <Tether>
0.000

$$$$
VeraChem MOL file


 20 19  0  0  0  0  0  0  0  0999 V2000     
   18.7446   18.6777   19.2641 C   0  0  0  0  0  0  0  0  0  0  0  0
   18.7037   18.6700   18.1763 H   0  0  0  0  0  0  0  0  0  0  0  0
   17.9960   18.0944   19.7981 H   0  0  0  0  0  0  0  0  0  0  0  0
   19.6795   19.3750   19.9149 C   0  0  0  0  0  0  0  0  0  0  0  0
   20.4199   19.9525   19.3619 H   0  0  0  0  0  0  0  0  0  0  0  0
   19.7974   19.4344   21.4219 C   0  0  0  0  0  0  0  0  0  0  0  0
   18.8721   19.0641   21.8806 H   0  0  0  0  0  0  0  0  0  0  0  0
   19.9146   20.4787   21.7410 H   0  0  0  0  0  0  0  0  0  0  0  0
   20.9992   18.6005   21.9181 C   0  0  0  0  0  0  0  0  0  0  0  0
   20.8262   17.5388   21.6947 H   0  0  0  0  0  0  0  0  0  0  0  0
   21.8899   18.8939   21.3455 H   0  0  0  0  0  0  0  0  0  0  0  0
   21.3137   18.7750   23.4248 C   0  0  0  0  0  0  0  0  0  0  0  0
   21.4966   19.8346   23.6513 H   0  0  0  0  0  0  0  0  0  0  0  0
   22.2587   18.2548   23.6317 H   0  0  0  0  0  0  0  0  0  0  0  0
   20.2325   18.2064   24.3863 C   0  0  0  0  0  0  0  0  0  0  0  0
   19.8997   17.2195   24.0425 H   0  0  0  0  0  0  0  0  0  0  0  0
   20.6776   18.0597   25.3772 H   0  0  0  0  0  0  0  0  0  0  0  0
   19.0098   19.0983   24.5925 C   0  0  0  0  0  0  0  0  0  0  0  0
   19.1816   20.2230   25.0205 O   0  5  0  0  0  0  0  0  0  0  0  0
   17.9126   18.6277   24.3649 O   0  0  0  0  0  0  0  0  0  0  0  0
  1  2  1  0  0  0  0
  1  3  1  0  0  0  0
  1  4  2  0  0  0  0
  4  5  1  0  0  0  0
  4  6  1  0  0  0  0
  6  7  1  0  0  0  0
  6  8  1  0  0  0  0
  6  9  1  0  0  0  0
  9 10  1  0  0  0  0
  9 11  1  0  0  0  0
  9 12  1  0  0  0  0
 12 13  1  0  0  0  0
 12 14  1  0  0  0  0
 12 15  1  0  0  0  0
 15 16  1  0  0  0  0
 15 17  1  0  0  0  0
 15 18  1  0  0  0  0
 18 19  1  0  0  0  0
 18 20  2  0  0  0  0
M  END
> <VM2 Rank>
56

> <Conf_Id>
1143

> <Probability>
0.03

> <Sum Probability>
99.83

> <Delta G>
3.741

> <G>
-18.149

> <E>
-33.662

> <-TS>
15.514

> <U+W>
-49.759

> <U>
12.063

> <W>
-61.822

> <W(PB)>
-64.024

> <W(SA)>
2.202

> <Valence>
10.981

> <Coulomb>
0.681

> <VdW>
0.402

> <VdW6>
-8.075

> <VdW12>
8.477

> <Bond>
0.169

> <Angle>
3.169

> <Pdih>
7.638

> <Idih>
0.005

> <Tether>
0.000

$$$$
VeraChem MOL file


 20 19  0  0  0  0  0  0  0  0999 V2000     
   19.9970   18.4110   19.0678 C   0  0  0  0  0  0  0  0  0  0  0  0
   20.3273   17.9458   18.1406 H   0  0  0  0  0  0  0  0  0  0  0  0
   19.1132   19.0430   19.0124 H   0  0  0  0  0  0  0  0  0  0  0  0
   20.6576   18.1991   20.2118 C   0  0  0  0  0  0  0  0  0  0  0  0
   21.5353   17.5533   20.2051 H   0  0  0  0  0  0  0  0  0  0  0  0
   20.3207   18.7770   21.5763 C   0  0  0  0  0  0  0  0  0  0  0  0
   21.2255   19.2348   21.9980 H   0  0  0  0  0  0  0  0  0  0  0  0
   20.0655   17.9478   22.2471 H   0  0  0  0  0  0  0  0  0  0  0  0
   19.1803   19.8243   21.5779 C   0  0  0  0  0  0  0  0  0  0  0  0
   19.4057   20.5909   20.8240 H   0  0  0  0  0  0  0  0  0  0  0  0
   18.2396   19.3479   21.2702 H   0  0  0  0  0  0  0  0  0  0  0  0
   18.9795   20.5392   22.9377 C   0  0  0  0  0  0  0  0  0  0  0  0
   18.2529   21.3487   22.7852 H   0  0  0  0  0  0  0  0  0  0  0  0
   19.9136   21.0273   23.2487 H   0  0  0  0  0  0  0  0  0  0  0  0
   18.4500   19.6295   24.0819 C   0  0  0  0  0  0  0  0  0  0  0  0
   18.0134   20.2595   24.8655 H   0  0  0  0  0  0  0  0  0  0  0  0
   17.6437   18.9844   23.7124 H   0  0  0  0  0  0  0  0  0  0  0  0
   19.5051   18.7628   24.7667 C   0  0  0  0  0  0  0  0  0  0  0  0
   20.4586   19.3133   25.2818 O   0  5  0  0  0  0  0  0  0  0  0  0
   19.3222   17.5619   24.8061 O   0  0  0  0  0  0  0  0  0  0  0  0
  1  2  1  0  0  0  0
  1  3  1  0  0  0  0
  1  4  2  0  0  0  0
  4  5  1  0  0  0  0
  4  6  1  0  0  0  0
  6  7  1  0  0  0  0
  6  8  1  0  0  0  0
  6  9  1  0  0  0  0
  9 10  1  0  0  0  0
  9 11  1  0  0  0  0
  9 12  1  0  0  0  0
 12 13  1  0  0  0  0
 12 14  1  0  0  0  0
 12 15  1  0  0  0  0
 15 16  1  0  0  0  0
 15 17  1  0  0  0  0
 15 18  1  0  0  0  0
 18 19  1  0  0  0  0
 18 20  2  0  0  0  0
M  END
> <VM2 Rank>
57

> <Conf_Id>
1022

> <Probability>
0.03

> <Sum Probability>
99.86

> <Delta G>
3.742

> <G>
-18.148

> <E>
-34.009

> <-TS>
15.862

> <U+W>
-50.106

> <U>
11.478

> <W>
-61.584

> <W(PB)>
-63.742

> <W(SA)>
2.158

> <Valence>
9.964

> <Coulomb>
0.355

> <VdW>
1.159

> <VdW6>
-8.703

> <VdW12>
9.862

> <Bond>
0.227

> <Angle>
3.805

> <Pdih>
5.927

> <Idih>
0.005

> <Tether>
0.000

$$$$
VeraChem MOL file


 20 19  0  0  0  0  0  0  0  0999 V2000     
   19.6594   18.7853   19.0102 C   0  0  0  0  0  0  0  0  0  0  0  0
   19.3800   18.9957   17.9793 H   0  0  0  0  0  0  0  0  0  0  0  0
   20.1878   17.8525   19.1952 H   0  0  0  0  0  0  0  0  0  0  0  0
   19.3538   19.6438   19.9898 C   0  0  0  0  0  0  0  0  0  0  0  0
   18.8203   20.5614   19.7429 H   0  0  0  0  0  0  0  0  0  0  0  0
   19.6769   19.4900   21.4667 C   0  0  0  0  0  0  0  0  0  0  0  0
   18.7324   19.4244   22.0200 H   0  0  0  0  0  0  0  0  0  0  0  0
   20.1657   20.4087   21.8178 H   0  0  0  0  0  0  0  0  0  0  0  0
   20.5755   18.2783   21.8154 C   0  0  0  0  0  0  0  0  0  0  0  0
   20.0472   17.3450   21.5778 H   0  0  0  0  0  0  0  0  0  0  0  0
   21.4677   18.3062   21.1749 H   0  0  0  0  0  0  0  0  0  0  0  0
   21.0495   18.2454   23.2900 C   0  0  0  0  0  0  0  0  0  0  0  0
   21.5883   19.1717   23.5337 H   0  0  0  0  0  0  0  0  0  0  0  0
   21.7848   17.4351   23.3864 H   0  0  0  0  0  0  0  0  0  0  0  0
   19.9234   17.9969   24.3327 C   0  0  0  0  0  0  0  0  0  0  0  0
   19.2539   17.2002   23.9866 H   0  0  0  0  0  0  0  0  0  0  0  0
   20.3742   17.6437   25.2673 H   0  0  0  0  0  0  0  0  0  0  0  0
   19.0891   19.2238   24.6958 C   0  0  0  0  0  0  0  0  0  0  0  0
   19.6604   20.1977   25.1460 O   0  5  0  0  0  0  0  0  0  0  0  0
   17.8830   19.1566   24.5613 O   0  0  0  0  0  0  0  0  0  0  0  0
  1  2  1  0  0  0  0
  1  3  1  0  0  0  0
  1  4  2  0  0  0  0
  4  5  1  0  0  0  0
  4  6  1  0  0  0  0
  6  7  1  0  0  0  0
  6  8  1  0  0  0  0
  6  9  1  0  0  0  0
  9 10  1  0  0  0  0
  9 11  1  0  0  0  0
  9 12  1  0  0  0  0
 12 13  1  0  0  0  0
 12 14  1  0  0  0  0
 12 15  1  0  0  0  0
 15 16  1  0  0  0  0
 15 17  1  0  0  0  0
 15 18  1  0  0  0  0
 18 19  1  0  0  0  0
 18 20  2  0  0  0  0
M  END
> <VM2 Rank>
58

> <Conf_Id>
750

> <Probability>
0.03

> <Sum Probability>
99.88

> <Delta G>
3.750

> <G>
-18.140

> <E>
-34.002

> <-TS>
15.862

> <U+W>
-50.098

> <U>
11.477

> <W>
-61.575

> <W(PB)>
-63.705

> <W(SA)>
2.130

> <Valence>
9.964

> <Coulomb>
0.354

> <VdW>
1.159

> <VdW6>
-8.702

> <VdW12>
9.861

> <Bond>
0.227

> <Angle>
3.805

> <Pdih>
5.927

> <Idih>
0.004

> <Tether>
0.000

$$$$
VeraChem MOL file


 20 19  0  0  0  0  0  0  0  0999 V2000     
   19.6344   19.7373   18.9904 C   0  0  0  0  0  0  0  0  0  0  0  0
   18.5483   19.6683   19.0260 H   0  0  0  0  0  0  0  0  0  0  0  0
   20.0912   19.9552   18.0265 H   0  0  0  0  0  0  0  0  0  0  0  0
   20.3807   19.5597   20.0836 C   0  0  0  0  0  0  0  0  0  0  0  0
   21.4666   19.6323   20.0266 H   0  0  0  0  0  0  0  0  0  0  0  0
   19.8180   19.2557   21.4543 C   0  0  0  0  0  0  0  0  0  0  0  0
   18.7384   19.4573   21.4762 H   0  0  0  0  0  0  0  0  0  0  0  0
   20.2817   19.9267   22.1876 H   0  0  0  0  0  0  0  0  0  0  0  0
   20.0770   17.7842   21.8464 C   0  0  0  0  0  0  0  0  0  0  0  0
   19.7332   17.1394   21.0257 H   0  0  0  0  0  0  0  0  0  0  0  0
   21.1580   17.6123   21.9406 H   0  0  0  0  0  0  0  0  0  0  0  0
   19.3603   17.3384   23.1452 C   0  0  0  0  0  0  0  0  0  0  0  0
   19.4962   16.2532   23.2469 H   0  0  0  0  0  0  0  0  0  0  0  0
   18.2773   17.4996   23.0522 H   0  0  0  0  0  0  0  0  0  0  0  0
   19.8867   18.0118   24.4438 C   0  0  0  0  0  0  0  0  0  0  0  0
   19.5818   17.4092   25.3071 H   0  0  0  0  0  0  0  0  0  0  0  0
   20.9833   18.0295   24.4449 H   0  0  0  0  0  0  0  0  0  0  0  0
   19.3671   19.4249   24.7011 C   0  0  0  0  0  0  0  0  0  0  0  0
   20.1804   20.3155   24.8515 O   0  5  0  0  0  0  0  0  0  0  0  0
   18.1664   19.5905   24.7918 O   0  0  0  0  0  0  0  0  0  0  0  0
  1  2  1  0  0  0  0
  1  3  1  0  0  0  0
  1  4  2  0  0  0  0
  4  5  1  0  0  0  0
  4  6  1  0  0  0  0
  6  7  1  0  0  0  0
  6  8  1  0  0  0  0
  6  9  1  0  0  0  0
  9 10  1  0  0  0  0
  9 11  1  0  0  0  0
  9 12  1  0  0  0  0
 12 13  1  0  0  0  0
 12 14  1  0  0  0  0
 12 15  1  0  0  0  0
 15 16  1  0  0  0  0
 15 17  1  0  0  0  0
 15 18  1  0  0  0  0
 18 19  1  0  0  0  0
 18 20  2  0  0  0  0
M  END
> <VM2 Rank>
59

> <Conf_Id>
100

> <Probability>
0.03

> <Sum Probability>
99.91

> <Delta G>
3.751

> <G>
-18.138

> <E>
-33.662

> <-TS>
15.524

> <U+W>
-49.759

> <U>
11.755

> <W>
-61.514

> <W(PB)>
-63.715

> <W(SA)>
2.201

> <Valence>
10.982

> <Coulomb>
0.361

> <VdW>
0.411

> <VdW6>
-8.036

> <VdW12>
8.447

> <Bond>
0.168

> <Angle>
3.178

> <Pdih>
7.632

> <Idih>
0.005

> <Tether>
0.000

$$$$
VeraChem MOL file


 20 19  0  0  0  0  0  0  0  0999 V2000     
   20.2126   17.5708   19.4795 C   0  0  0  0  0  0  0  0  0  0  0  0
   20.4161   17.3785   18.4275 H   0  0  0  0  0  0  0  0  0  0  0  0
   19.7545   16.7688   20.0562 H   0  0  0  0  0  0  0  0  0  0  0  0
   20.5126   18.7468   20.0370 C   0  0  0  0  0  0  0  0  0  0  0  0
   20.9707   19.5368   19.4424 H   0  0  0  0  0  0  0  0  0  0  0  0
   20.2609   19.0852   21.4898 C   0  0  0  0  0  0  0  0  0  0  0  0
   21.1623   19.5385   21.9236 H   0  0  0  0  0  0  0  0  0  0  0  0
   20.0640   18.1660   22.0554 H   0  0  0  0  0  0  0  0  0  0  0  0
   19.0684   20.0562   21.6351 C   0  0  0  0  0  0  0  0  0  0  0  0
   19.2223   20.9049   20.9546 H   0  0  0  0  0  0  0  0  0  0  0  0
   18.1473   19.5583   21.3023 H   0  0  0  0  0  0  0  0  0  0  0  0
   18.8751   20.6137   23.0674 C   0  0  0  0  0  0  0  0  0  0  0  0
   18.0998   21.3905   23.0222 H   0  0  0  0  0  0  0  0  0  0  0  0
   19.7912   21.1206   23.4014 H   0  0  0  0  0  0  0  0  0  0  0  0
   18.4374   19.5599   24.1233 C   0  0  0  0  0  0  0  0  0  0  0  0
   18.0009   20.0781   24.9850 H   0  0  0  0  0  0  0  0  0  0  0  0
   17.6505   18.9154   23.7131 H   0  0  0  0  0  0  0  0  0  0  0  0
   19.5606   18.6830   24.6733 C   0  0  0  0  0  0  0  0  0  0  0  0
   20.5044   19.2258   25.2139 O   0  5  0  0  0  0  0  0  0  0  0  0
   19.4390   17.4767   24.5886 O   0  0  0  0  0  0  0  0  0  0  0  0
  1  2  1  0  0  0  0
  1  3  1  0  0  0  0
  1  4  2  0  0  0  0
  4  5  1  0  0  0  0
  4  6  1  0  0  0  0
  6  7  1  0  0  0  0
  6  8  1  0  0  0  0
  6  9  1  0  0  0  0
  9 10  1  0  0  0  0
  9 11  1  0  0  0  0
  9 12  1  0  0  0  0
 12 13  1  0  0  0  0
 12 14  1  0  0  0  0
 12 15  1  0  0  0  0
 15 16  1  0  0  0  0
 15 17  1  0  0  0  0
 15 18  1  0  0  0  0
 18 19  1  0  0  0  0
 18 20  2  0  0  0  0
M  END
> <VM2 Rank>
60

> <Conf_Id>
1140

> <Probability>
0.02

> <Sum Probability>
99.93

> <Delta G>
3.755

> <G>
-18.134

> <E>
-33.648

> <-TS>
15.514

> <U+W>
-49.745

> <U>
12.064

> <W>
-61.809

> <W(PB)>
-63.985

> <W(SA)>
2.176

> <Valence>
10.980

> <Coulomb>
0.682

> <VdW>
0.402

> <VdW6>
-8.075

> <VdW12>
8.477

> <Bond>
0.169

> <Angle>
3.169

> <Pdih>
7.637

> <Idih>
0.005

> <Tether>
0.000

$$$$
VeraChem MOL file


 20 19  0  0  0  0  0  0  0  0999 V2000     
   20.7106   18.9466   19.4061 C   0  0  0  0  0  0  0  0  0  0  0  0
   21.2908   19.4281   18.6209 H   0  0  0  0  0  0  0  0  0  0  0  0
   21.0132   17.9437   19.6993 H   0  0  0  0  0  0  0  0  0  0  0  0
   19.6711   19.5704   19.9707 C   0  0  0  0  0  0  0  0  0  0  0  0
   19.4081   20.5741   19.6378 H   0  0  0  0  0  0  0  0  0  0  0  0
   18.7819   19.0229   21.0750 C   0  0  0  0  0  0  0  0  0  0  0  0
   17.8640   18.6249   20.6228 H   0  0  0  0  0  0  0  0  0  0  0  0
   18.4440   19.8543   21.7067 H   0  0  0  0  0  0  0  0  0  0  0  0
   19.4176   17.9351   21.9796 C   0  0  0  0  0  0  0  0  0  0  0  0
   18.6537   17.5746   22.6820 H   0  0  0  0  0  0  0  0  0  0  0  0
   19.6893   17.0647   21.3680 H   0  0  0  0  0  0  0  0  0  0  0  0
   20.6582   18.4030   22.7850 C   0  0  0  0  0  0  0  0  0  0  0  0
   21.4580   18.6976   22.0935 H   0  0  0  0  0  0  0  0  0  0  0  0
   21.0488   17.5497   23.3562 H   0  0  0  0  0  0  0  0  0  0  0  0
   20.3845   19.5748   23.7670 C   0  0  0  0  0  0  0  0  0  0  0  0
   21.3140   19.8384   24.2848 H   0  0  0  0  0  0  0  0  0  0  0  0
   20.0705   20.4710   23.2199 H   0  0  0  0  0  0  0  0  0  0  0  0
   19.3416   19.2626   24.8362 C   0  0  0  0  0  0  0  0  0  0  0  0
   19.6513   18.5033   25.7335 O   0  5  0  0  0  0  0  0  0  0  0  0
   18.2541   19.7992   24.7549 O   0  0  0  0  0  0  0  0  0  0  0  0
  1  2  1  0  0  0  0
  1  3  1  0  0  0  0
  1  4  2  0  0  0  0
  4  5  1  0  0  0  0
  4  6  1  0  0  0  0
  6  7  1  0  0  0  0
  6  8  1  0  0  0  0
  6  9  1  0  0  0  0
  9 10  1  0  0  0  0
  9 11  1  0  0  0  0
  9 12  1  0  0  0  0
 12 13  1  0  0  0  0
 12 14  1  0  0  0  0
 12 15  1  0  0  0  0
 15 16  1  0  0  0  0
 15 17  1  0  0  0  0
 15 18  1  0  0  0  0
 18 19  1  0  0  0  0
 18 20  2  0  0  0  0
M  END
> <VM2 Rank>
61

> <Conf_Id>
768

> <Probability>
0.02

> <Sum Probability>
99.96

> <Delta G>
3.788

> <G>
-18.101

> <E>
-33.959

> <-TS>
15.857

> <U+W>
-50.055

> <U>
11.092

> <W>
-61.147

> <W(PB)>
-63.273

> <W(SA)>
2.126

> <Valence>
9.664

> <Coulomb>
0.659

> <VdW>
0.769

> <VdW6>
-9.171

> <VdW12>
9.940

> <Bond>
0.244

> <Angle>
3.658

> <Pdih>
5.762

> <Idih>
0.001

> <Tether>
0.000

$$$$
VeraChem MOL file


 20 19  0  0  0  0  0  0  0  0999 V2000     
   20.4844   18.4011   19.3954 C   0  0  0  0  0  0  0  0  0  0  0  0
   20.5644   17.6765   18.5870 H   0  0  0  0  0  0  0  0  0  0  0  0
   21.4038   18.8851   19.7176 H   0  0  0  0  0  0  0  0  0  0  0  0
   19.3008   18.6778   19.9533 C   0  0  0  0  0  0  0  0  0  0  0  0
   18.4094   18.1663   19.5911 H   0  0  0  0  0  0  0  0  0  0  0  0
   19.0449   19.6570   21.0871 C   0  0  0  0  0  0  0  0  0  0  0  0
   18.2091   19.2884   21.6955 H   0  0  0  0  0  0  0  0  0  0  0  0
   18.6843   20.6023   20.6609 H   0  0  0  0  0  0  0  0  0  0  0  0
   20.2514   19.9449   22.0185 C   0  0  0  0  0  0  0  0  0  0  0  0
   21.0676   20.3872   21.4323 H   0  0  0  0  0  0  0  0  0  0  0  0
   19.9572   20.7167   22.7428 H   0  0  0  0  0  0  0  0  0  0  0  0
   20.7855   18.7101   22.7909 C   0  0  0  0  0  0  0  0  0  0  0  0
   21.6575   19.0170   23.3846 H   0  0  0  0  0  0  0  0  0  0  0  0
   21.1514   17.9590   22.0791 H   0  0  0  0  0  0  0  0  0  0  0  0
   19.7494   18.0444   23.7373 C   0  0  0  0  0  0  0  0  0  0  0  0
   18.9007   17.6524   23.1654 H   0  0  0  0  0  0  0  0  0  0  0  0
   20.2123   17.1834   24.2333 H   0  0  0  0  0  0  0  0  0  0  0  0
   19.2192   18.9675   24.8306 C   0  0  0  0  0  0  0  0  0  0  0  0
   19.9629   19.2539   25.7483 O   0  5  0  0  0  0  0  0  0  0  0  0
   18.0725   19.3614   24.7465 O   0  0  0  0  0  0  0  0  0  0  0  0
  1  2  1  0  0  0  0
  1  3  1  0  0  0  0
  1  4  2  0  0  0  0
  4  5  1  0  0  0  0
  4  6  1  0  0  0  0
  6  7  1  0  0  0  0
  6  8  1  0  0  0  0
  6  9  1  0  0  0  0
  9 10  1  0  0  0  0
  9 11  1  0  0  0  0
  9 12  1  0  0  0  0
 12 13  1  0  0  0  0
 12 14  1  0  0  0  0
 12 15  1  0  0  0  0
 15 16  1  0  0  0  0
 15 17  1  0  0  0  0
 15 18  1  0  0  0  0
 18 19  1  0  0  0  0
 18 20  2  0  0  0  0
M  END
> <VM2 Rank>
62

> <Conf_Id>
535

> <Probability>
0.02

> <Sum Probability>
99.98

> <Delta G>
3.790

> <G>
-18.100

> <E>
-33.957

> <-TS>
15.857

> <U+W>
-50.053

> <U>
11.091

> <W>
-61.144

> <W(PB)>
-63.247

> <W(SA)>
2.103

> <Valence>
9.664

> <Coulomb>
0.658

> <VdW>
0.769

> <VdW6>
-9.171

> <VdW12>
9.940

> <Bond>
0.244

> <Angle>
3.658

> <Pdih>
5.762

> <Idih>
0.001

> <Tether>
0.000

$$$$
VeraChem MOL file


 20 19  0  0  0  0  0  0  0  0999 V2000     
   21.2283   17.9094   20.2954 C   0  0  0  0  0  0  0  0  0  0  0  0
   20.6614   17.0235   20.0140 H   0  0  0  0  0  0  0  0  0  0  0  0
   22.3085   17.8067   20.3835 H   0  0  0  0  0  0  0  0  0  0  0  0
   20.6243   19.0769   20.5310 C   0  0  0  0  0  0  0  0  0  0  0  0
   21.2096   19.9539   20.8056 H   0  0  0  0  0  0  0  0  0  0  0  0
   19.1321   19.2963   20.4179 C   0  0  0  0  0  0  0  0  0  0  0  0
   18.7151   18.5774   19.6997 H   0  0  0  0  0  0  0  0  0  0  0  0
   18.9330   20.2911   19.9976 H   0  0  0  0  0  0  0  0  0  0  0  0
   18.3791   19.1357   21.7613 C   0  0  0  0  0  0  0  0  0  0  0  0
   17.3030   19.1702   21.5434 H   0  0  0  0  0  0  0  0  0  0  0  0
   18.5686   18.1390   22.1829 H   0  0  0  0  0  0  0  0  0  0  0  0
   18.6904   20.2385   22.8065 C   0  0  0  0  0  0  0  0  0  0  0  0
   17.8094   20.3737   23.4493 H   0  0  0  0  0  0  0  0  0  0  0  0
   18.8419   21.1989   22.2959 H   0  0  0  0  0  0  0  0  0  0  0  0
   19.9092   19.9328   23.7203 C   0  0  0  0  0  0  0  0  0  0  0  0
   20.8063   19.7298   23.1271 H   0  0  0  0  0  0  0  0  0  0  0  0
   20.1322   20.8142   24.3325 H   0  0  0  0  0  0  0  0  0  0  0  0
   19.6870   18.7659   24.6792 C   0  0  0  0  0  0  0  0  0  0  0  0
   20.2972   17.7330   24.4856 O   0  5  0  0  0  0  0  0  0  0  0  0
   18.9234   18.9294   25.6108 O   0  0  0  0  0  0  0  0  0  0  0  0
  1  2  1  0  0  0  0
  1  3  1  0  0  0  0
  1  4  2  0  0  0  0
  4  5  1  0  0  0  0
  4  6  1  0  0  0  0
  6  7  1  0  0  0  0
  6  8  1  0  0  0  0
  6  9  1  0  0  0  0
  9 10  1  0  0  0  0
  9 11  1  0  0  0  0
  9 12  1  0  0  0  0
 12 13  1  0  0  0  0
 12 14  1  0  0  0  0
 12 15  1  0  0  0  0
 15 16  1  0  0  0  0
 15 17  1  0  0  0  0
 15 18  1  0  0  0  0
 18 19  1  0  0  0  0
 18 20  2  0  0  0  0
M  END
> <VM2 Rank>
63

> <Conf_Id>
121

> <Probability>
0.00

> <Sum Probability>
99.98

> <Delta G>
4.990

> <G>
-16.900

> <E>
-32.119

> <-TS>
15.219

> <U+W>
-48.215

> <U>
14.182

> <W>
-62.397

> <W(PB)>
-64.547

> <W(SA)>
2.150

> <Valence>
11.820

> <Coulomb>
2.077

> <VdW>
0.285

> <VdW6>
-8.249

> <VdW12>
8.533

> <Bond>
0.194

> <Angle>
3.123

> <Pdih>
8.501

> <Idih>
0.002

> <Tether>
0.000

$$$$
VeraChem MOL file


 20 19  0  0  0  0  0  0  0  0999 V2000     
   21.5025   18.3175   20.3399 C   0  0  0  0  0  0  0  0  0  0  0  0
   22.1274   19.2049   20.2537 H   0  0  0  0  0  0  0  0  0  0  0  0
   22.0014   17.3500   20.3325 H   0  0  0  0  0  0  0  0  0  0  0  0
   20.1754   18.4090   20.4571 C   0  0  0  0  0  0  0  0  0  0  0  0
   19.5665   17.5091   20.5361 H   0  0  0  0  0  0  0  0  0  0  0  0
   19.4141   19.7160   20.4640 C   0  0  0  0  0  0  0  0  0  0  0  0
   18.4669   19.5978   19.9211 H   0  0  0  0  0  0  0  0  0  0  0  0
   19.9872   20.4705   19.9085 H   0  0  0  0  0  0  0  0  0  0  0  0
   19.1372   20.2635   21.8857 C   0  0  0  0  0  0  0  0  0  0  0  0
   20.0823   20.3912   22.4312 H   0  0  0  0  0  0  0  0  0  0  0  0
   18.7154   21.2718   21.7753 H   0  0  0  0  0  0  0  0  0  0  0  0
   18.1381   19.4161   22.7157 C   0  0  0  0  0  0  0  0  0  0  0  0
   17.3661   19.0018   22.0535 H   0  0  0  0  0  0  0  0  0  0  0  0
   17.6112   20.0785   23.4166 H   0  0  0  0  0  0  0  0  0  0  0  0
   18.7932   18.2715   23.5371 C   0  0  0  0  0  0  0  0  0  0  0  0
   18.0073   17.6513   23.9836 H   0  0  0  0  0  0  0  0  0  0  0  0
   19.3836   17.6117   22.8937 H   0  0  0  0  0  0  0  0  0  0  0  0
   19.6820   18.7588   24.6786 C   0  0  0  0  0  0  0  0  0  0  0  0
   20.8837   18.6063   24.5824 O   0  5  0  0  0  0  0  0  0  0  0  0
   19.1448   19.2593   25.6474 O   0  0  0  0  0  0  0  0  0  0  0  0
  1  2  1  0  0  0  0
  1  3  1  0  0  0  0
  1  4  2  0  0  0  0
  4  5  1  0  0  0  0
  4  6  1  0  0  0  0
  6  7  1  0  0  0  0
  6  8  1  0  0  0  0
  6  9  1  0  0  0  0
  9 10  1  0  0  0  0
  9 11  1  0  0  0  0
  9 12  1  0  0  0  0
 12 13  1  0  0  0  0
 12 14  1  0  0  0  0
 12 15  1  0  0  0  0
 15 16  1  0  0  0  0
 15 17  1  0  0  0  0
 15 18  1  0  0  0  0
 18 19  1  0  0  0  0
 18 20  2  0  0  0  0
M  END
> <VM2 Rank>
64

> <Conf_Id>
466

> <Probability>
0.00

> <Sum Probability>
99.99

> <Delta G>
5.000

> <G>
-16.890

> <E>
-32.109

> <-TS>
15.219

> <U+W>
-48.205

> <U>
14.180

> <W>
-62.385

> <W(PB)>
-64.531

> <W(SA)>
2.146

> <Valence>
11.821

> <Coulomb>
2.074

> <VdW>
0.285

> <VdW6>
-8.248

> <VdW12>
8.533

> <Bond>
0.194

> <Angle>
3.122

> <Pdih>
8.503

> <Idih>
0.002

> <Tether>
0.000

$$$$
VeraChem MOL file


 20 19  0  0  0  0  0  0  0  0999 V2000     
   18.9854   19.3930   19.4493 C   0  0  0  0  0  0  0  0  0  0  0  0
   19.8144   19.4468   18.7456 H   0  0  0  0  0  0  0  0  0  0  0  0
   17.9812   19.3161   19.0362 H   0  0  0  0  0  0  0  0  0  0  0  0
   19.1885   19.4171   20.7692 C   0  0  0  0  0  0  0  0  0  0  0  0
   18.3446   19.3652   21.4572 H   0  0  0  0  0  0  0  0  0  0  0  0
   20.5528   19.5286   21.4155 C   0  0  0  0  0  0  0  0  0  0  0  0
   20.5206   20.2489   22.2419 H   0  0  0  0  0  0  0  0  0  0  0  0
   21.2703   19.9382   20.6920 H   0  0  0  0  0  0  0  0  0  0  0  0
   21.0845   18.1638   21.9129 C   0  0  0  0  0  0  0  0  0  0  0  0
   21.1874   17.4965   21.0462 H   0  0  0  0  0  0  0  0  0  0  0  0
   22.0983   18.2985   22.3138 H   0  0  0  0  0  0  0  0  0  0  0  0
   20.2059   17.4565   22.9775 C   0  0  0  0  0  0  0  0  0  0  0  0
   20.6263   16.4552   23.1416 H   0  0  0  0  0  0  0  0  0  0  0  0
   19.1906   17.2935   22.5911 H   0  0  0  0  0  0  0  0  0  0  0  0
   20.1423   18.1780   24.3531 C   0  0  0  0  0  0  0  0  0  0  0  0
   19.8332   17.4575   25.1191 H   0  0  0  0  0  0  0  0  0  0  0  0
   21.1380   18.5353   24.6424 H   0  0  0  0  0  0  0  0  0  0  0  0
   19.1544   19.3399   24.4335 C   0  0  0  0  0  0  0  0  0  0  0  0
   19.5831   20.4370   24.7337 O   0  5  0  0  0  0  0  0  0  0  0  0
   17.9741   19.1041   24.2633 O   0  0  0  0  0  0  0  0  0  0  0  0
  1  2  1  0  0  0  0
  1  3  1  0  0  0  0
  1  4  2  0  0  0  0
  4  5  1  0  0  0  0
  4  6  1  0  0  0  0
  6  7  1  0  0  0  0
  6  8  1  0  0  0  0
  6  9  1  0  0  0  0
  9 10  1  0  0  0  0
  9 11  1  0  0  0  0
  9 12  1  0  0  0  0
 12 13  1  0  0  0  0
 12 14  1  0  0  0  0
 12 15  1  0  0  0  0
 15 16  1  0  0  0  0
 15 17  1  0  0  0  0
 15 18  1  0  0  0  0
 18 19  1  0  0  0  0
 18 20  2  0  0  0  0
M  END
> <VM2 Rank>
65

> <Conf_Id>
724

> <Probability>
0.00

> <Sum Probability>
99.99

> <Delta G>
5.037

> <G>
-16.853

> <E>
-33.005

> <-TS>
16.153

> <U+W>
-49.102

> <U>
13.082

> <W>
-62.184

> <W(PB)>
-64.301

> <W(SA)>
2.117

> <Valence>
11.308

> <Coulomb>
1.655

> <VdW>
0.119

> <VdW6>
-9.163

> <VdW12>
9.282

> <Bond>
0.195

> <Angle>
3.447

> <Pdih>
7.656

> <Idih>
0.011

> <Tether>
0.000

$$$$
VeraChem MOL file


 20 19  0  0  0  0  0  0  0  0999 V2000     
   20.2524   17.7582   19.6573 C   0  0  0  0  0  0  0  0  0  0  0  0
   20.6029   18.4294   18.8750 H   0  0  0  0  0  0  0  0  0  0  0  0
   19.9710   16.7486   19.3629 H   0  0  0  0  0  0  0  0  0  0  0  0
   20.1666   18.1549   20.9298 C   0  0  0  0  0  0  0  0  0  0  0  0
   19.8162   17.4665   21.6988 H   0  0  0  0  0  0  0  0  0  0  0  0
   20.5454   19.5380   21.4144 C   0  0  0  0  0  0  0  0  0  0  0  0
   21.2109   20.0150   20.6823 H   0  0  0  0  0  0  0  0  0  0  0  0
   21.1268   19.4666   22.3414 H   0  0  0  0  0  0  0  0  0  0  0  0
   19.3130   20.4496   21.6220 C   0  0  0  0  0  0  0  0  0  0  0  0
   19.6538   21.4526   21.9124 H   0  0  0  0  0  0  0  0  0  0  0  0
   18.8055   20.5700   20.6551 H   0  0  0  0  0  0  0  0  0  0  0  0
   18.2793   19.9425   22.6611 C   0  0  0  0  0  0  0  0  0  0  0  0
   17.9092   18.9469   22.3807 H   0  0  0  0  0  0  0  0  0  0  0  0
   17.4074   20.6086   22.6130 H   0  0  0  0  0  0  0  0  0  0  0  0
   18.7868   19.9271   24.1305 C   0  0  0  0  0  0  0  0  0  0  0  0
   19.3498   20.8425   24.3489 H   0  0  0  0  0  0  0  0  0  0  0  0
   17.9231   19.9220   24.8055 H   0  0  0  0  0  0  0  0  0  0  0  0
   19.6369   18.7173   24.5129 C   0  0  0  0  0  0  0  0  0  0  0  0
   20.7622   18.9156   24.9273 O   0  5  0  0  0  0  0  0  0  0  0  0
   19.1284   17.6148   24.4527 O   0  0  0  0  0  0  0  0  0  0  0  0
  1  2  1  0  0  0  0
  1  3  1  0  0  0  0
  1  4  2  0  0  0  0
  4  5  1  0  0  0  0
  4  6  1  0  0  0  0
  6  7  1  0  0  0  0
  6  8  1  0  0  0  0
  6  9  1  0  0  0  0
  9 10  1  0  0  0  0
  9 11  1  0  0  0  0
  9 12  1  0  0  0  0
 12 13  1  0  0  0  0
 12 14  1  0  0  0  0
 12 15  1  0  0  0  0
 15 16  1  0  0  0  0
 15 17  1  0  0  0  0
 15 18  1  0  0  0  0
 18 19  1  0  0  0  0
 18 20  2  0  0  0  0
M  END
> <VM2 Rank>
66

> <Conf_Id>
925

> <Probability>
0.00

> <Sum Probability>
99.99

> <Delta G>
5.105

> <G>
-16.785

> <E>
-32.937

> <-TS>
16.152

> <U+W>
-49.033

> <U>
13.083

> <W>
-62.117

> <W(PB)>
-64.210

> <W(SA)>
2.094

> <Valence>
11.308

> <Coulomb>
1.656

> <VdW>
0.119

> <VdW6>
-9.164

> <VdW12>
9.283

> <Bond>
0.195

> <Angle>
3.447

> <Pdih>
7.656

> <Idih>
0.011

> <Tether>
0.000

$$$$
VeraChem MOL file


 20 19  0  0  0  0  0  0  0  0999 V2000     
   21.1396   17.9355   20.3282 C   0  0  0  0  0  0  0  0  0  0  0  0
   22.1211   17.5167   20.5433 H   0  0  0  0  0  0  0  0  0  0  0  0
   20.4717   17.3502   19.6985 H   0  0  0  0  0  0  0  0  0  0  0  0
   20.7721   19.1204   20.8237 C   0  0  0  0  0  0  0  0  0  0  0  0
   21.4537   19.6862   21.4588 H   0  0  0  0  0  0  0  0  0  0  0  0
   19.4234   19.7613   20.5778 C   0  0  0  0  0  0  0  0  0  0  0  0
   18.7958   19.1214   19.9431 H   0  0  0  0  0  0  0  0  0  0  0  0
   19.5831   20.6904   20.0149 H   0  0  0  0  0  0  0  0  0  0  0  0
   18.6623   20.1173   21.8789 C   0  0  0  0  0  0  0  0  0  0  0  0
   19.3099   20.6999   22.5482 H   0  0  0  0  0  0  0  0  0  0  0  0
   17.8358   20.7874   21.6056 H   0  0  0  0  0  0  0  0  0  0  0  0
   18.0540   18.9050   22.6312 C   0  0  0  0  0  0  0  0  0  0  0  0
   17.5386   18.2511   21.9150 H   0  0  0  0  0  0  0  0  0  0  0  0
   17.2793   19.2749   23.3171 H   0  0  0  0  0  0  0  0  0  0  0  0
   19.0677   18.0686   23.4594 C   0  0  0  0  0  0  0  0  0  0  0  0
   18.5447   17.2235   23.9216 H   0  0  0  0  0  0  0  0  0  0  0  0
   19.8391   17.6363   22.8149 H   0  0  0  0  0  0  0  0  0  0  0  0
   19.7467   18.8467   24.5835 C   0  0  0  0  0  0  0  0  0  0  0  0
   20.9247   19.1223   24.4684 O   0  5  0  0  0  0  0  0  0  0  0  0
   19.0806   19.1409   25.5570 O   0  0  0  0  0  0  0  0  0  0  0  0
  1  2  1  0  0  0  0
  1  3  1  0  0  0  0
  1  4  2  0  0  0  0
  4  5  1  0  0  0  0
  4  6  1  0  0  0  0
  6  7  1  0  0  0  0
  6  8  1  0  0  0  0
  6  9  1  0  0  0  0
  9 10  1  0  0  0  0
  9 11  1  0  0  0  0
  9 12  1  0  0  0  0
 12 13  1  0  0  0  0
 12 14  1  0  0  0  0
 12 15  1  0  0  0  0
 15 16  1  0  0  0  0
 15 17  1  0  0  0  0
 15 18  1  0  0  0  0
 18 19  1  0  0  0  0
 18 20  2  0  0  0  0
M  END
> <VM2 Rank>
67

> <Conf_Id>
860

> <Probability>
0.00

> <Sum Probability>
99.99

> <Delta G>
5.331

> <G>
-16.559

> <E>
-32.231

> <-TS>
15.672

> <U+W>
-48.327

> <U>
13.663

> <W>
-61.990

> <W(PB)>
-64.088

> <W(SA)>
2.098

> <Valence>
11.349

> <Coulomb>
2.220

> <VdW>
0.093

> <VdW6>
-8.851

> <VdW12>
8.944

> <Bond>
0.196

> <Angle>
3.358

> <Pdih>
7.794

> <Idih>
0.001

> <Tether>
0.000

$$$$
VeraChem MOL file


 20 19  0  0  0  0  0  0  0  0999 V2000     
   19.5879   17.4675   20.1277 C   0  0  0  0  0  0  0  0  0  0  0  0
   20.5914   17.3865   19.7135 H   0  0  0  0  0  0  0  0  0  0  0  0
   18.9753   16.5677   20.1371 H   0  0  0  0  0  0  0  0  0  0  0  0
   19.1230   18.6230   20.6107 C   0  0  0  0  0  0  0  0  0  0  0  0
   18.1178   18.6798   21.0284 H   0  0  0  0  0  0  0  0  0  0  0  0
   19.9176   19.9105   20.6415 C   0  0  0  0  0  0  0  0  0  0  0  0
   19.4139   20.6396   19.9932 H   0  0  0  0  0  0  0  0  0  0  0  0
   20.9196   19.7624   20.2169 H   0  0  0  0  0  0  0  0  0  0  0  0
   20.0340   20.5310   22.0558 C   0  0  0  0  0  0  0  0  0  0  0  0
   20.3985   21.5603   21.9363 H   0  0  0  0  0  0  0  0  0  0  0  0
   19.0390   20.6180   22.5133 H   0  0  0  0  0  0  0  0  0  0  0  0
   21.0091   19.7961   23.0122 C   0  0  0  0  0  0  0  0  0  0  0  0
   21.2722   20.4789   23.8320 H   0  0  0  0  0  0  0  0  0  0  0  0
   21.9472   19.5805   22.4835 H   0  0  0  0  0  0  0  0  0  0  0  0
   20.4548   18.4869   23.6383 C   0  0  0  0  0  0  0  0  0  0  0  0
   20.2187   17.7508   22.8639 H   0  0  0  0  0  0  0  0  0  0  0  0
   21.2288   18.0328   24.2677 H   0  0  0  0  0  0  0  0  0  0  0  0
   19.2225   18.6886   24.5160 C   0  0  0  0  0  0  0  0  0  0  0  0
   19.3725   19.2284   25.5949 O   0  5  0  0  0  0  0  0  0  0  0  0
   18.1498   18.2860   24.1107 O   0  0  0  0  0  0  0  0  0  0  0  0
  1  2  1  0  0  0  0
  1  3  1  0  0  0  0
  1  4  2  0  0  0  0
  4  5  1  0  0  0  0
  4  6  1  0  0  0  0
  6  7  1  0  0  0  0
  6  8  1  0  0  0  0
  6  9  1  0  0  0  0
  9 10  1  0  0  0  0
  9 11  1  0  0  0  0
  9 12  1  0  0  0  0
 12 13  1  0  0  0  0
 12 14  1  0  0  0  0
 12 15  1  0  0  0  0
 15 16  1  0  0  0  0
 15 17  1  0  0  0  0
 15 18  1  0  0  0  0
 18 19  1  0  0  0  0
 18 20  2  0  0  0  0
M  END
> <VM2 Rank>
68

> <Conf_Id>
1135

> <Probability>
0.00

> <Sum Probability>
100.00

> <Delta G>
5.360

> <G>
-16.530

> <E>
-32.201

> <-TS>
15.671

> <U+W>
-48.298

> <U>
13.662

> <W>
-61.959

> <W(PB)>
-64.071

> <W(SA)>
2.112

> <Valence>
11.349

> <Coulomb>
2.219

> <VdW>
0.094

> <VdW6>
-8.850

> <VdW12>
8.944

> <Bond>
0.196

> <Angle>
3.357

> <Pdih>
7.795

> <Idih>
0.001

> <Tether>
0.000

$$$$
VeraChem MOL file


 20 19  0  0  0  0  0  0  0  0999 V2000     
   21.1800   19.3472   20.2372 C   0  0  0  0  0  0  0  0  0  0  0  0
   22.1138   19.8683   20.0338 H   0  0  0  0  0  0  0  0  0  0  0  0
   21.1166   18.3061   19.9283 H   0  0  0  0  0  0  0  0  0  0  0  0
   20.1621   19.9728   20.8379 C   0  0  0  0  0  0  0  0  0  0  0  0
   20.2739   21.0163   21.1311 H   0  0  0  0  0  0  0  0  0  0  0  0
   18.8168   19.3603   21.1881 C   0  0  0  0  0  0  0  0  0  0  0  0
   18.1163   19.5494   20.3642 H   0  0  0  0  0  0  0  0  0  0  0  0
   18.3919   19.8974   22.0443 H   0  0  0  0  0  0  0  0  0  0  0  0
   18.8375   17.8439   21.5081 C   0  0  0  0  0  0  0  0  0  0  0  0
   17.8086   17.5077   21.6951 H   0  0  0  0  0  0  0  0  0  0  0  0
   19.1691   17.2950   20.6170 H   0  0  0  0  0  0  0  0  0  0  0  0
   19.7261   17.4351   22.7124 C   0  0  0  0  0  0  0  0  0  0  0  0
   20.7597   17.7751   22.5621 H   0  0  0  0  0  0  0  0  0  0  0  0
   19.7717   16.3381   22.7335 H   0  0  0  0  0  0  0  0  0  0  0  0
   19.2079   17.9175   24.0964 C   0  0  0  0  0  0  0  0  0  0  0  0
   18.1212   17.7874   24.1643 H   0  0  0  0  0  0  0  0  0  0  0  0
   19.6479   17.2892   24.8795 H   0  0  0  0  0  0  0  0  0  0  0  0
   19.5598   19.3597   24.4557 C   0  0  0  0  0  0  0  0  0  0  0  0
   20.7318   19.6438   24.6088 O   0  5  0  0  0  0  0  0  0  0  0  0
   18.6490   20.1376   24.6634 O   0  0  0  0  0  0  0  0  0  0  0  0
  1  2  1  0  0  0  0
  1  3  1  0  0  0  0
  1  4  2  0  0  0  0
  4  5  1  0  0  0  0
  4  6  1  0  0  0  0
  6  7  1  0  0  0  0
  6  8  1  0  0  0  0
  6  9  1  0  0  0  0
  9 10  1  0  0  0  0
  9 11  1  0  0  0  0
  9 12  1  0  0  0  0
 12 13  1  0  0  0  0
 12 14  1  0  0  0  0
 12 15  1  0  0  0  0
 15 16  1  0  0  0  0
 15 17  1  0  0  0  0
 15 18  1  0  0  0  0
 18 19  1  0  0  0  0
 18 20  2  0  0  0  0
M  END
> <VM2 Rank>
69

> <Conf_Id>
343

> <Probability>
0.00

> <Sum Probability>
100.00

> <Delta G>
5.388

> <G>
-16.502

> <E>
-32.129

> <-TS>
15.627

> <U+W>
-48.225

> <U>
14.666

> <W>
-62.891

> <W(PB)>
-64.994

> <W(SA)>
2.103

> <Valence>
11.117

> <Coulomb>
3.067

> <VdW>
0.482

> <VdW6>
-9.661

> <VdW12>
10.143

> <Bond>
0.245

> <Angle>
3.969

> <Pdih>
6.884

> <Idih>
0.019

> <Tether>
0.000

$$$$
VeraChem MOL file


 20 19  0  0  0  0  0  0  0  0999 V2000     
   21.6284   19.3129   20.2881 C   0  0  0  0  0  0  0  0  0  0  0  0
   21.4004   20.0595   19.5292 H   0  0  0  0  0  0  0  0  0  0  0  0
   22.6776   19.1372   20.5194 H   0  0  0  0  0  0  0  0  0  0  0  0
   20.6619   18.6391   20.9175 C   0  0  0  0  0  0  0  0  0  0  0  0
   20.9188   17.8964   21.6707 H   0  0  0  0  0  0  0  0  0  0  0  0
   19.1844   18.8291   20.6439 C   0  0  0  0  0  0  0  0  0  0  0  0
   18.6819   17.8568   20.5559 H   0  0  0  0  0  0  0  0  0  0  0  0
   19.0645   19.3196   19.6684 H   0  0  0  0  0  0  0  0  0  0  0  0
   18.4848   19.7014   21.7155 C   0  0  0  0  0  0  0  0  0  0  0  0
   19.1893   20.4427   22.1179 H   0  0  0  0  0  0  0  0  0  0  0  0
   17.6939   20.2803   21.2196 H   0  0  0  0  0  0  0  0  0  0  0  0
   17.8240   18.9036   22.8687 C   0  0  0  0  0  0  0  0  0  0  0  0
   17.0843   18.2091   22.4482 H   0  0  0  0  0  0  0  0  0  0  0  0
   17.2586   19.6038   23.4991 H   0  0  0  0  0  0  0  0  0  0  0  0
   18.8066   18.1100   23.7719 C   0  0  0  0  0  0  0  0  0  0  0  0
   18.2363   17.5742   24.5392 H   0  0  0  0  0  0  0  0  0  0  0  0
   19.3304   17.3457   23.1883 H   0  0  0  0  0  0  0  0  0  0  0  0
   19.8360   18.9698   24.5026 C   0  0  0  0  0  0  0  0  0  0  0  0
   21.0108   18.6821   24.3853 O   0  5  0  0  0  0  0  0  0  0  0  0
   19.4342   19.8699   25.2144 O   0  0  0  0  0  0  0  0  0  0  0  0
  1  2  1  0  0  0  0
  1  3  1  0  0  0  0
  1  4  2  0  0  0  0
  4  5  1  0  0  0  0
  4  6  1  0  0  0  0
  6  7  1  0  0  0  0
  6  8  1  0  0  0  0
  6  9  1  0  0  0  0
  9 10  1  0  0  0  0
  9 11  1  0  0  0  0
  9 12  1  0  0  0  0
 12 13  1  0  0  0  0
 12 14  1  0  0  0  0
 12 15  1  0  0  0  0
 15 16  1  0  0  0  0
 15 17  1  0  0  0  0
 15 18  1  0  0  0  0
 18 19  1  0  0  0  0
 18 20  2  0  0  0  0
M  END
> <VM2 Rank>
70

> <Conf_Id>
684

> <Probability>
0.00

> <Sum Probability>
100.00

> <Delta G>
5.590

> <G>
-16.300

> <E>
-31.903

> <-TS>
15.603

> <U+W>
-47.999

> <U>
14.800

> <W>
-62.799

> <W(PB)>
-64.942

> <W(SA)>
2.143

> <Valence>
11.950

> <Coulomb>
2.728

> <VdW>
0.122

> <VdW6>
-8.855

> <VdW12>
8.977

> <Bond>
0.186

> <Angle>
3.316

> <Pdih>
8.441

> <Idih>
0.007

> <Tether>
0.000

$$$$
VeraChem MOL file


 20 19  0  0  0  0  0  0  0  0999 V2000     
   20.2049   17.3116   20.8236 C   0  0  0  0  0  0  0  0  0  0  0  0
   20.5556   17.0508   21.8213 H   0  0  0  0  0  0  0  0  0  0  0  0
   19.9104   16.4954   20.1664 H   0  0  0  0  0  0  0  0  0  0  0  0
   20.1296   18.5832   20.4228 C   0  0  0  0  0  0  0  0  0  0  0  0
   19.7716   18.8236   19.4222 H   0  0  0  0  0  0  0  0  0  0  0  0
   20.5205   19.7694   21.2786 C   0  0  0  0  0  0  0  0  0  0  0  0
   21.2195   20.3986   20.7120 H   0  0  0  0  0  0  0  0  0  0  0  0
   21.0667   19.4430   22.1716 H   0  0  0  0  0  0  0  0  0  0  0  0
   19.2996   20.6303   21.6797 C   0  0  0  0  0  0  0  0  0  0  0  0
   19.6486   21.5514   22.1659 H   0  0  0  0  0  0  0  0  0  0  0  0
   18.7867   20.9494   20.7621 H   0  0  0  0  0  0  0  0  0  0  0  0
   18.2725   19.9220   22.6007 C   0  0  0  0  0  0  0  0  0  0  0  0
   18.0016   18.9380   22.1938 H   0  0  0  0  0  0  0  0  0  0  0  0
   17.3495   20.5172   22.5868 H   0  0  0  0  0  0  0  0  0  0  0  0
   18.7205   19.7824   24.0828 C   0  0  0  0  0  0  0  0  0  0  0  0
   19.1746   20.7165   24.4344 H   0  0  0  0  0  0  0  0  0  0  0  0
   17.8352   19.6121   24.7066 H   0  0  0  0  0  0  0  0  0  0  0  0
   19.6777   18.6283   24.3697 C   0  0  0  0  0  0  0  0  0  0  0  0
   20.8032   18.8957   24.7434 O   0  5  0  0  0  0  0  0  0  0  0  0
   19.2426   17.4952   24.3069 O   0  0  0  0  0  0  0  0  0  0  0  0
  1  2  1  0  0  0  0
  1  3  1  0  0  0  0
  1  4  2  0  0  0  0
  4  5  1  0  0  0  0
  4  6  1  0  0  0  0
  6  7  1  0  0  0  0
  6  8  1  0  0  0  0
  6  9  1  0  0  0  0
  9 10  1  0  0  0  0
  9 11  1  0  0  0  0
  9 12  1  0  0  0  0
 12 13  1  0  0  0  0
 12 14  1  0  0  0  0
 12 15  1  0  0  0  0
 15 16  1  0  0  0  0
 15 17  1  0  0  0  0
 15 18  1  0  0  0  0
 18 19  1  0  0  0  0
 18 20  2  0  0  0  0
M  END
> <VM2 Rank>
71

> <Conf_Id>
688

> <Probability>
0.00

> <Sum Probability>
100.00

> <Delta G>
5.853

> <G>
-16.036

> <E>
-32.089

> <-TS>
16.052

> <U+W>
-48.185

> <U>
14.642

> <W>
-62.827

> <W(PB)>
-64.920

> <W(SA)>
2.093

> <Valence>
11.577

> <Coulomb>
3.284

> <VdW>
-0.219

> <VdW6>
-9.345

> <VdW12>
9.126

> <Bond>
0.192

> <Angle>
3.435

> <Pdih>
7.929

> <Idih>
0.022

> <Tether>
0.000

$$$$
VeraChem MOL file


 20 19  0  0  0  0  0  0  0  0999 V2000     
   18.1596   19.0862   20.5908 C   0  0  0  0  0  0  0  0  0  0  0  0
   17.4813   18.6032   19.8898 H   0  0  0  0  0  0  0  0  0  0  0  0
   17.7282   19.5036   21.4996 H   0  0  0  0  0  0  0  0  0  0  0  0
   19.4710   19.1549   20.3478 C   0  0  0  0  0  0  0  0  0  0  0  0
   19.8837   18.7270   19.4346 H   0  0  0  0  0  0  0  0  0  0  0  0
   20.4744   19.8094   21.2734 C   0  0  0  0  0  0  0  0  0  0  0  0
   19.9662   20.3978   22.0465 H   0  0  0  0  0  0  0  0  0  0  0  0
   21.0731   20.5257   20.6956 H   0  0  0  0  0  0  0  0  0  0  0  0
   21.4308   18.7812   21.9221 C   0  0  0  0  0  0  0  0  0  0  0  0
   21.9308   18.2216   21.1197 H   0  0  0  0  0  0  0  0  0  0  0  0
   22.2270   19.3141   22.4594 H   0  0  0  0  0  0  0  0  0  0  0  0
   20.7523   17.7701   22.8826 C   0  0  0  0  0  0  0  0  0  0  0  0
   21.4614   16.9492   23.0542 H   0  0  0  0  0  0  0  0  0  0  0  0
   19.8735   17.3137   22.4065 H   0  0  0  0  0  0  0  0  0  0  0  0
   20.3647   18.3553   24.2697 C   0  0  0  0  0  0  0  0  0  0  0  0
   20.2342   17.5298   24.9792 H   0  0  0  0  0  0  0  0  0  0  0  0
   21.1773   18.9782   24.6624 H   0  0  0  0  0  0  0  0  0  0  0  0
   19.0669   19.1584   24.3002 C   0  0  0  0  0  0  0  0  0  0  0  0
   19.1324   20.3455   24.5537 O   0  5  0  0  0  0  0  0  0  0  0  0
   18.0189   18.5572   24.1678 O   0  0  0  0  0  0  0  0  0  0  0  0
  1  2  1  0  0  0  0
  1  3  1  0  0  0  0
  1  4  2  0  0  0  0
  4  5  1  0  0  0  0
  4  6  1  0  0  0  0
  6  7  1  0  0  0  0
  6  8  1  0  0  0  0
  6  9  1  0  0  0  0
  9 10  1  0  0  0  0
  9 11  1  0  0  0  0
  9 12  1  0  0  0  0
 12 13  1  0  0  0  0
 12 14  1  0  0  0  0
 12 15  1  0  0  0  0
 15 16  1  0  0  0  0
 15 17  1  0  0  0  0
 15 18  1  0  0  0  0
 18 19  1  0  0  0  0
 18 20  2  0  0  0  0
M  END
> <VM2 Rank>
72

> <Conf_Id>
81

> <Probability>
0.00

> <Sum Probability>
100.00

> <Delta G>
5.863

> <G>
-16.027

> <E>
-32.079

> <-TS>
16.052

> <U+W>
-48.176

> <U>
14.641

> <W>
-62.816

> <W(PB)>
-64.896

> <W(SA)>
2.079

> <Valence>
11.577

> <Coulomb>
3.283

> <VdW>
-0.219

> <VdW6>
-9.345

> <VdW12>
9.126

> <Bond>
0.192

> <Angle>
3.435

> <Pdih>
7.929

> <Idih>
0.021

> <Tether>
0.000

$$$$
VeraChem MOL file


 20 19  0  0  0  0  0  0  0  0999 V2000     
   21.3448   19.2891   19.9187 C   0  0  0  0  0  0  0  0  0  0  0  0
   22.4303   19.2064   19.9152 H   0  0  0  0  0  0  0  0  0  0  0  0
   20.8380   19.2770   18.9552 H   0  0  0  0  0  0  0  0  0  0  0  0
   20.6650   19.3981   21.0633 C   0  0  0  0  0  0  0  0  0  0  0  0
   21.1962   19.4113   22.0128 H   0  0  0  0  0  0  0  0  0  0  0  0
   19.1579   19.5240   21.1422 C   0  0  0  0  0  0  0  0  0  0  0  0
   18.7810   19.8833   20.1750 H   0  0  0  0  0  0  0  0  0  0  0  0
   18.8707   20.2868   21.8784 H   0  0  0  0  0  0  0  0  0  0  0  0
   18.4701   18.1750   21.4626 C   0  0  0  0  0  0  0  0  0  0  0  0
   17.5356   18.1237   20.8873 H   0  0  0  0  0  0  0  0  0  0  0  0
   19.0891   17.3435   21.0979 H   0  0  0  0  0  0  0  0  0  0  0  0
   18.1113   17.9551   22.9545 C   0  0  0  0  0  0  0  0  0  0  0  0
   17.5809   16.9960   23.0276 H   0  0  0  0  0  0  0  0  0  0  0  0
   17.3909   18.7173   23.2820 H   0  0  0  0  0  0  0  0  0  0  0  0
   19.3209   17.9084   23.9313 C   0  0  0  0  0  0  0  0  0  0  0  0
   19.0394   17.3267   24.8165 H   0  0  0  0  0  0  0  0  0  0  0  0
   20.1632   17.3823   23.4660 H   0  0  0  0  0  0  0  0  0  0  0  0
   19.8083   19.2608   24.4538 C   0  0  0  0  0  0  0  0  0  0  0  0
   21.0059   19.4163   24.5906 O   0  5  0  0  0  0  0  0  0  0  0  0
   18.9867   20.0912   24.7910 O   0  0  0  0  0  0  0  0  0  0  0  0
  1  2  1  0  0  0  0
  1  3  1  0  0  0  0
  1  4  2  0  0  0  0
  4  5  1  0  0  0  0
  4  6  1  0  0  0  0
  6  7  1  0  0  0  0
  6  8  1  0  0  0  0
  6  9  1  0  0  0  0
  9 10  1  0  0  0  0
  9 11  1  0  0  0  0
  9 12  1  0  0  0  0
 12 13  1  0  0  0  0
 12 14  1  0  0  0  0
 12 15  1  0  0  0  0
 15 16  1  0  0  0  0
 15 17  1  0  0  0  0
 15 18  1  0  0  0  0
 18 19  1  0  0  0  0
 18 20  2  0  0  0  0
M  END
> <VM2 Rank>
73

> <Conf_Id>
1054

> <Probability>
0.00

> <Sum Probability>
100.00

> <Delta G>
6.783

> <G>
-15.106

> <E>
-30.712

> <-TS>
15.606

> <U+W>
-46.809

> <U>
15.456

> <W>
-62.264

> <W(PB)>
-64.357

> <W(SA)>
2.093

> <Valence>
13.616

> <Coulomb>
1.409

> <VdW>
0.431

> <VdW6>
-9.299

> <VdW12>
9.729

> <Bond>
0.212

> <Angle>
3.797

> <Pdih>
9.591

> <Idih>
0.016

> <Tether>
0.000

$$$$
VeraChem MOL file


 20 19  0  0  0  0  0  0  0  0999 V2000     
   18.7803   18.5160   19.5877 C   0  0  0  0  0  0  0  0  0  0  0  0
   17.9517   17.8559   19.3372 H   0  0  0  0  0  0  0  0  0  0  0  0
   19.4196   18.8498   18.7721 H   0  0  0  0  0  0  0  0  0  0  0  0
   19.0022   18.8965   20.8487 C   0  0  0  0  0  0  0  0  0  0  0  0
   18.3461   18.5512   21.6450 H   0  0  0  0  0  0  0  0  0  0  0  0
   20.1295   19.8169   21.2676 C   0  0  0  0  0  0  0  0  0  0  0  0
   19.7740   20.5590   21.9950 H   0  0  0  0  0  0  0  0  0  0  0  0
   20.4628   20.3905   20.3921 H   0  0  0  0  0  0  0  0  0  0  0  0
   21.3436   19.0414   21.8333 C   0  0  0  0  0  0  0  0  0  0  0  0
   21.3826   18.0350   21.3938 H   0  0  0  0  0  0  0  0  0  0  0  0
   22.2586   19.5478   21.4966 H   0  0  0  0  0  0  0  0  0  0  0  0
   21.4050   18.9482   23.3794 C   0  0  0  0  0  0  0  0  0  0  0  0
   21.4941   19.9546   23.8113 H   0  0  0  0  0  0  0  0  0  0  0  0
   22.3376   18.4304   23.6412 H   0  0  0  0  0  0  0  0  0  0  0  0
   20.2282   18.1820   24.0485 C   0  0  0  0  0  0  0  0  0  0  0  0
   19.9444   17.3163   23.4379 H   0  0  0  0  0  0  0  0  0  0  0  0
   20.5657   17.7869   25.0134 H   0  0  0  0  0  0  0  0  0  0  0  0
   18.9774   19.0102   24.3468 C   0  0  0  0  0  0  0  0  0  0  0  0
   19.1088   20.1279   24.8069 O   0  5  0  0  0  0  0  0  0  0  0  0
   17.8959   18.4788   24.1892 O   0  0  0  0  0  0  0  0  0  0  0  0
  1  2  1  0  0  0  0
  1  3  1  0  0  0  0
  1  4  2  0  0  0  0
  4  5  1  0  0  0  0
  4  6  1  0  0  0  0
  6  7  1  0  0  0  0
  6  8  1  0  0  0  0
  6  9  1  0  0  0  0
  9 10  1  0  0  0  0
  9 11  1  0  0  0  0
  9 12  1  0  0  0  0
 12 13  1  0  0  0  0
 12 14  1  0  0  0  0
 12 15  1  0  0  0  0
 15 16  1  0  0  0  0
 15 17  1  0  0  0  0
 15 18  1  0  0  0  0
 18 19  1  0  0  0  0
 18 20  2  0  0  0  0
M  END
> <VM2 Rank>
74

> <Conf_Id>
337

> <Probability>
0.00

> <Sum Probability>
100.00

> <Delta G>
6.793

> <G>
-15.097

> <E>
-30.705

> <-TS>
15.608

> <U+W>
-46.801

> <U>
15.456

> <W>
-62.258

> <W(PB)>
-64.378

> <W(SA)>
2.121

> <Valence>
13.615

> <Coulomb>
1.410

> <VdW>
0.431

> <VdW6>
-9.299

> <VdW12>
9.730

> <Bond>
0.212

> <Angle>
3.796

> <Pdih>
9.592

> <Idih>
0.016

> <Tether>
0.000

$$$$
VeraChem MOL file


 20 19  0  0  0  0  0  0  0  0999 V2000     
   20.4210   17.2612   21.2353 C   0  0  0  0  0  0  0  0  0  0  0  0
   21.3518   16.7074   21.1275 H   0  0  0  0  0  0  0  0  0  0  0  0
   19.5964   16.7611   21.7411 H   0  0  0  0  0  0  0  0  0  0  0  0
   20.3022   18.5089   20.7752 C   0  0  0  0  0  0  0  0  0  0  0  0
   21.1427   18.9886   20.2747 H   0  0  0  0  0  0  0  0  0  0  0  0
   19.0441   19.3447   20.8872 C   0  0  0  0  0  0  0  0  0  0  0  0
   18.2565   18.8132   21.4388 H   0  0  0  0  0  0  0  0  0  0  0  0
   18.6555   19.5038   19.8726 H   0  0  0  0  0  0  0  0  0  0  0  0
   19.3004   20.7340   21.5204 C   0  0  0  0  0  0  0  0  0  0  0  0
   20.3004   21.0948   21.2433 H   0  0  0  0  0  0  0  0  0  0  0  0
   18.5937   21.4461   21.0727 H   0  0  0  0  0  0  0  0  0  0  0  0
   19.1188   20.8071   23.0578 C   0  0  0  0  0  0  0  0  0  0  0  0
   18.0778   20.5787   23.3242 H   0  0  0  0  0  0  0  0  0  0  0  0
   19.2749   21.8527   23.3558 H   0  0  0  0  0  0  0  0  0  0  0  0
   20.0971   19.9247   23.8864 C   0  0  0  0  0  0  0  0  0  0  0  0
   21.0740   19.8767   23.3907 H   0  0  0  0  0  0  0  0  0  0  0  0
   20.2650   20.4013   24.8589 H   0  0  0  0  0  0  0  0  0  0  0  0
   19.6391   18.4967   24.1947 C   0  0  0  0  0  0  0  0  0  0  0  0
   20.4984   17.6942   24.5029 O   0  5  0  0  0  0  0  0  0  0  0  0
   18.4500   18.2464   24.2481 O   0  0  0  0  0  0  0  0  0  0  0  0
  1  2  1  0  0  0  0
  1  3  1  0  0  0  0
  1  4  2  0  0  0  0
  4  5  1  0  0  0  0
  4  6  1  0  0  0  0
  6  7  1  0  0  0  0
  6  8  1  0  0  0  0
  6  9  1  0  0  0  0
  9 10  1  0  0  0  0
  9 11  1  0  0  0  0
  9 12  1  0  0  0  0
 12 13  1  0  0  0  0
 12 14  1  0  0  0  0
 12 15  1  0  0  0  0
 15 16  1  0  0  0  0
 15 17  1  0  0  0  0
 15 18  1  0  0  0  0
 18 19  1  0  0  0  0
 18 20  2  0  0  0  0
M  END
> <VM2 Rank>
75

> <Conf_Id>
127

> <Probability>
0.00

> <Sum Probability>
100.00

> <Delta G>
9.340

> <G>
-12.550

> <E>
-28.542

> <-TS>
15.992

> <U+W>
-44.638

> <U>
18.568

> <W>
-63.206

> <W(PB)>
-65.269

> <W(SA)>
2.063

> <Valence>
14.101

> <Coulomb>
4.490

> <VdW>
-0.023

> <VdW6>
-10.118

> <VdW12>
10.095

> <Bond>
0.225

> <Angle>
4.258

> <Pdih>
9.582

> <Idih>
0.036

> <Tether>
0.000

$$$$
