@<TRIPOS>MOLECULE
guest-3_vm2.mol2 : vm2 ligand conformer 1
          29          28           1
SMALL
USER_CHARGES
 
@<TRIPOS>ATOM
       1    C1      19.995035   18.991307   18.812214 C.3        1 MOL1        -0.2427
       2    H1      20.899476   19.613552   18.804959 H          1 MOL1         0.0958
       3    H2      20.303719   17.938698   18.767674 H          1 MOL1         0.0958
       4    H3      19.425122   19.214316   17.900885 H          1 MOL1         0.0958
       5    C2      19.142616   19.266544   20.068983 C.3        1 MOL1        -0.1412
       6    H4      18.229841   18.655538   20.031409 H          1 MOL1         0.0947
       7    H5      18.821028   20.317487   20.068421 H          1 MOL1         0.0947
       8    C3      19.922046   18.960373   21.366942 C.3        1 MOL1        -0.1437
       9    H6      20.243326   17.909581   21.361971 H          1 MOL1         0.0947
      10    H7      20.834582   19.571650   21.398984 H          1 MOL1         0.0947
      11    C4      19.071662   19.234809   22.627722 C.3        1 MOL1        -0.1437
      12    H8      18.159170   18.623482   22.594764 H          1 MOL1         0.0947
      13    H9      18.750586   20.285686   22.631854 H          1 MOL1         0.0947
      14    C5      19.851760   18.928270   23.925986 C.3        1 MOL1        -0.1437
      15    H10     20.172874   17.877380   23.921412 H          1 MOL1         0.0947
      16    H11     20.764332   19.539548   23.958490 H          1 MOL1         0.0947
      17    C6      19.001250   19.202790   25.186707 C.3        1 MOL1        -0.1437
      18    H12     18.088471   18.591582   25.154664 H          1 MOL1         0.0947
      19    H13     18.680037   20.253773   25.191808 H          1 MOL1         0.0947
      20    C7      19.780248   18.896539   26.484678 C.3        1 MOL1        -0.1477
      21    H14     20.098576   17.845453   26.485816 H          1 MOL1         0.0947
      22    H15     20.690773   19.509391   26.523009 H          1 MOL1         0.0947
      23    C8      18.924476   19.173200   27.733186 C.3        1 MOL1         0.0145
      24    H16     18.024464   18.552887   27.707636 H          1 MOL1         0.0921
      25    H17     18.618952   20.222951   27.745045 H          1 MOL1         0.0921
      26    N1      19.654908   18.884167   29.028582 N.4        1 MOL1        -0.5969
      27    H18     19.946397   17.903059   29.091985 H          1 MOL1         0.3603
      28    H19     19.067443   19.074944   29.847882 H          1 MOL1         0.3603
      29    H20     20.499637   19.457182   29.126793 H          1 MOL1         0.3603
@<TRIPOS>BOND
    1     1     2    1
    2     1     3    1
    3     1     4    1
    4     1     5    1
    5     5     6    1
    6     5     7    1
    7     5     8    1
    8     8     9    1
    9     8    10    1
   10     8    11    1
   11    11    12    1
   12    11    13    1
   13    11    14    1
   14    14    15    1
   15    14    16    1
   16    14    17    1
   17    17    18    1
   18    17    19    1
   19    17    20    1
   20    20    21    1
   21    20    22    1
   22    20    23    1
   23    23    24    1
   24    23    25    1
   25    23    26    1
   26    26    27    1
   27    26    28    1
   28    26    29    1
@<TRIPOS>SUBSTRUCTURE
       1 MOL1            1 RESIDUE      1      MOL     
@<SCITEGIC>MOL_PROPERTY
VM2 Rank
SciTegic.value.IntegerValue
1

@<SCITEGIC>MOL_PROPERTY
Conf_Id
SciTegic.value.IntegerValue
1411

@<SCITEGIC>MOL_PROPERTY
Probability
SciTegic.value.DoubleValue
5.37

@<SCITEGIC>MOL_PROPERTY
Sum Probability
SciTegic.value.DoubleValue
5.37

@<SCITEGIC>MOL_PROPERTY
Delta G
SciTegic.value.DoubleValue
0.000

@<SCITEGIC>MOL_PROPERTY
G
SciTegic.value.DoubleValue
58.148

@<SCITEGIC>MOL_PROPERTY
E
SciTegic.value.DoubleValue
20.963

@<SCITEGIC>MOL_PROPERTY
-TS
SciTegic.value.DoubleValue
37.185

@<SCITEGIC>MOL_PROPERTY
U+W
SciTegic.value.DoubleValue
-3.181

@<SCITEGIC>MOL_PROPERTY
U
SciTegic.value.DoubleValue
47.674

@<SCITEGIC>MOL_PROPERTY
W
SciTegic.value.DoubleValue
-50.848

@<SCITEGIC>MOL_PROPERTY
W(PB)
SciTegic.value.DoubleValue
-53.430

@<SCITEGIC>MOL_PROPERTY
W(SA)
SciTegic.value.DoubleValue
2.581

@<SCITEGIC>MOL_PROPERTY
Valence
SciTegic.value.DoubleValue
2.587

@<SCITEGIC>MOL_PROPERTY
Coulomb
SciTegic.value.DoubleValue
44.357

@<SCITEGIC>MOL_PROPERTY
VdW
SciTegic.value.DoubleValue
0.730

@<SCITEGIC>MOL_PROPERTY
VdW6
SciTegic.value.DoubleValue
-6.901

@<SCITEGIC>MOL_PROPERTY
VdW12
SciTegic.value.DoubleValue
7.631

@<SCITEGIC>MOL_PROPERTY
Bond
SciTegic.value.DoubleValue
0.145

@<SCITEGIC>MOL_PROPERTY
Angle
SciTegic.value.DoubleValue
0.402

@<SCITEGIC>MOL_PROPERTY
Pdih
SciTegic.value.DoubleValue
2.040

@<SCITEGIC>MOL_PROPERTY
Idih
SciTegic.value.DoubleValue
0.000

@<SCITEGIC>MOL_PROPERTY
Tether
SciTegic.value.DoubleValue
0.000

@<TRIPOS>MOLECULE
guest-3_vm2.mol2 : vm2 ligand conformer 2
          29          28           1
SMALL
USER_CHARGES
 
@<TRIPOS>ATOM
       1    C1      19.861869   19.163932   18.895478 C.3        1 MOL1        -0.2427
       2    H1      20.942788   19.355829   18.888785 H          1 MOL1         0.0958
       3    H2      19.704007   18.090663   18.726867 H          1 MOL1         0.0958
       4    H3      19.417895   19.706735   18.050904 H          1 MOL1         0.0958
       5    C2      19.226756   19.615300   20.227669 C.3        1 MOL1        -0.1412
       6    H4      18.142015   19.442302   20.191518 H          1 MOL1         0.0947
       7    H5      19.371341   20.697643   20.352263 H          1 MOL1         0.0947
       8    C3      19.834451   18.865725   21.433809 C.3        1 MOL1        -0.1437
       9    H6      19.689420   17.784301   21.303821 H          1 MOL1         0.0947
      10    H7      20.918996   19.039590   21.464473 H          1 MOL1         0.0947
      11    C4      19.201081   19.315165   22.769792 C.3        1 MOL1        -0.1437
      12    H8      18.116541   19.141319   22.738265 H          1 MOL1         0.0947
      13    H9      19.346350   20.396672   22.898872 H          1 MOL1         0.0947
      14    C5      19.809252   18.564847   23.976105 C.3        1 MOL1        -0.1437
      15    H10     19.664408   17.483390   23.845935 H          1 MOL1         0.0947
      16    H11     20.893772   18.738988   24.007579 H          1 MOL1         0.0947
      17    C6      19.175604   19.013923   25.312084 C.3        1 MOL1        -0.1437
      18    H12     18.091442   18.836949   25.281699 H          1 MOL1         0.0947
      19    H13     19.318965   20.095804   25.434606 H          1 MOL1         0.0947
      20    C7      19.786395   18.262342   26.518354 C.3        1 MOL1        -0.1477
      21    H14     19.671285   17.180492   26.368934 H          1 MOL1         0.0947
      22    H15     20.865497   18.457683   26.576485 H          1 MOL1         0.0947
      23    C8      19.121938   18.643218   27.855297 C.3        1 MOL1         0.0145
      24    H16     19.534705   18.022728   28.655398 H          1 MOL1         0.0921
      25    H17     18.046292   18.455723   27.798462 H          1 MOL1         0.0921
      26    N1      19.326655   20.093548   28.246412 N.4        1 MOL1        -0.5969
      27    H18     20.321035   20.326056   28.338431 H          1 MOL1         0.3603
      28    H19     18.883085   20.311704   29.145453 H          1 MOL1         0.3603
      29    H20     18.928496   20.733368   27.551892 H          1 MOL1         0.3603
@<TRIPOS>BOND
    1     1     2    1
    2     1     3    1
    3     1     4    1
    4     1     5    1
    5     5     6    1
    6     5     7    1
    7     5     8    1
    8     8     9    1
    9     8    10    1
   10     8    11    1
   11    11    12    1
   12    11    13    1
   13    11    14    1
   14    14    15    1
   15    14    16    1
   16    14    17    1
   17    17    18    1
   18    17    19    1
   19    17    20    1
   20    20    21    1
   21    20    22    1
   22    20    23    1
   23    23    24    1
   24    23    25    1
   25    23    26    1
   26    26    27    1
   27    26    28    1
   28    26    29    1
@<TRIPOS>SUBSTRUCTURE
       1 MOL1            1 RESIDUE      1      MOL     
@<SCITEGIC>MOL_PROPERTY
VM2 Rank
SciTegic.value.IntegerValue
2

@<SCITEGIC>MOL_PROPERTY
Conf_Id
SciTegic.value.IntegerValue
1570

@<SCITEGIC>MOL_PROPERTY
Probability
SciTegic.value.DoubleValue
3.61

@<SCITEGIC>MOL_PROPERTY
Sum Probability
SciTegic.value.DoubleValue
8.98

@<SCITEGIC>MOL_PROPERTY
Delta G
SciTegic.value.DoubleValue
0.237

@<SCITEGIC>MOL_PROPERTY
G
SciTegic.value.DoubleValue
58.385

@<SCITEGIC>MOL_PROPERTY
E
SciTegic.value.DoubleValue
21.097

@<SCITEGIC>MOL_PROPERTY
-TS
SciTegic.value.DoubleValue
37.288

@<SCITEGIC>MOL_PROPERTY
U+W
SciTegic.value.DoubleValue
-3.048

@<SCITEGIC>MOL_PROPERTY
U
SciTegic.value.DoubleValue
48.292

@<SCITEGIC>MOL_PROPERTY
W
SciTegic.value.DoubleValue
-51.340

@<SCITEGIC>MOL_PROPERTY
W(PB)
SciTegic.value.DoubleValue
-53.879

@<SCITEGIC>MOL_PROPERTY
W(SA)
SciTegic.value.DoubleValue
2.539

@<SCITEGIC>MOL_PROPERTY
Valence
SciTegic.value.DoubleValue
2.685

@<SCITEGIC>MOL_PROPERTY
Coulomb
SciTegic.value.DoubleValue
44.768

@<SCITEGIC>MOL_PROPERTY
VdW
SciTegic.value.DoubleValue
0.839

@<SCITEGIC>MOL_PROPERTY
VdW6
SciTegic.value.DoubleValue
-7.428

@<SCITEGIC>MOL_PROPERTY
VdW12
SciTegic.value.DoubleValue
8.268

@<SCITEGIC>MOL_PROPERTY
Bond
SciTegic.value.DoubleValue
0.165

@<SCITEGIC>MOL_PROPERTY
Angle
SciTegic.value.DoubleValue
0.440

@<SCITEGIC>MOL_PROPERTY
Pdih
SciTegic.value.DoubleValue
2.080

@<SCITEGIC>MOL_PROPERTY
Idih
SciTegic.value.DoubleValue
0.000

@<SCITEGIC>MOL_PROPERTY
Tether
SciTegic.value.DoubleValue
0.000

@<TRIPOS>MOLECULE
guest-3_vm2.mol2 : vm2 ligand conformer 3
          29          28           1
SMALL
USER_CHARGES
 
@<TRIPOS>ATOM
       1    C1      19.781697   18.938610   18.890431 C.3        1 MOL1        -0.2427
       2    H1      19.106677   18.831877   18.031358 H          1 MOL1         0.0958
       3    H2      20.339134   19.876274   18.766712 H          1 MOL1         0.0958
       4    H3      20.498881   18.107929   18.860899 H          1 MOL1         0.0958
       5    C2      18.985499   18.937103   20.212515 C.3        1 MOL1        -0.1412
       6    H4      18.412630   18.002550   20.292056 H          1 MOL1         0.0947
       7    H5      18.254054   19.757282   20.198554 H          1 MOL1         0.0947
       8    C3      19.912907   19.086265   21.438729 C.3        1 MOL1        -0.1437
       9    H6      20.643700   18.265729   21.447191 H          1 MOL1         0.0947
      10    H7      20.484966   20.020574   21.353752 H          1 MOL1         0.0947
      11    C4      19.119222   19.085058   22.764651 C.3        1 MOL1        -0.1437
      12    H8      18.547296   18.150576   22.848712 H          1 MOL1         0.0947
      13    H9      18.388444   19.905619   22.755334 H          1 MOL1         0.0947
      14    C5      20.047479   19.234461   23.991055 C.3        1 MOL1        -0.1437
      15    H10     20.778052   18.413683   24.000308 H          1 MOL1         0.0947
      16    H11     20.619720   20.168677   23.905885 H          1 MOL1         0.0947
      17    C6      19.253822   19.233723   25.317000 C.3        1 MOL1        -0.1437
      18    H12     18.680365   18.300364   25.394581 H          1 MOL1         0.0947
      19    H13     18.525220   20.056356   25.308901 H          1 MOL1         0.0947
      20    C7      20.184898   19.382616   26.543359 C.3        1 MOL1        -0.1477
      21    H14     20.897588   18.547848   26.578534 H          1 MOL1         0.0947
      22    H15     20.780632   20.299175   26.438503 H          1 MOL1         0.0947
      23    C8      19.410380   19.454126   27.873395 C.3        1 MOL1         0.0145
      24    H16     18.695425   20.280605   27.839168 H          1 MOL1         0.0921
      25    H17     20.110873   19.642511   28.691545 H          1 MOL1         0.0921
      26    N1      18.648095   18.186038   28.203865 N.4        1 MOL1        -0.5969
      27    H18     17.945190   17.969328   27.490269 H          1 MOL1         0.3603
      28    H19     18.153807   18.261454   29.099752 H          1 MOL1         0.3603
      29    H20     19.271109   17.374585   28.272534 H          1 MOL1         0.3603
@<TRIPOS>BOND
    1     1     2    1
    2     1     3    1
    3     1     4    1
    4     1     5    1
    5     5     6    1
    6     5     7    1
    7     5     8    1
    8     8     9    1
    9     8    10    1
   10     8    11    1
   11    11    12    1
   12    11    13    1
   13    11    14    1
   14    14    15    1
   15    14    16    1
   16    14    17    1
   17    17    18    1
   18    17    19    1
   19    17    20    1
   20    20    21    1
   21    20    22    1
   22    20    23    1
   23    23    24    1
   24    23    25    1
   25    23    26    1
   26    26    27    1
   27    26    28    1
   28    26    29    1
@<TRIPOS>SUBSTRUCTURE
       1 MOL1            1 RESIDUE      1      MOL     
@<SCITEGIC>MOL_PROPERTY
VM2 Rank
SciTegic.value.IntegerValue
3

@<SCITEGIC>MOL_PROPERTY
Conf_Id
SciTegic.value.IntegerValue
2521

@<SCITEGIC>MOL_PROPERTY
Probability
SciTegic.value.DoubleValue
3.41

@<SCITEGIC>MOL_PROPERTY
Sum Probability
SciTegic.value.DoubleValue
12.39

@<SCITEGIC>MOL_PROPERTY
Delta G
SciTegic.value.DoubleValue
0.271

@<SCITEGIC>MOL_PROPERTY
G
SciTegic.value.DoubleValue
58.419

@<SCITEGIC>MOL_PROPERTY
E
SciTegic.value.DoubleValue
21.131

@<SCITEGIC>MOL_PROPERTY
-TS
SciTegic.value.DoubleValue
37.288

@<SCITEGIC>MOL_PROPERTY
U+W
SciTegic.value.DoubleValue
-3.014

@<SCITEGIC>MOL_PROPERTY
U
SciTegic.value.DoubleValue
48.292

@<SCITEGIC>MOL_PROPERTY
W
SciTegic.value.DoubleValue
-51.306

@<SCITEGIC>MOL_PROPERTY
W(PB)
SciTegic.value.DoubleValue
-53.856

@<SCITEGIC>MOL_PROPERTY
W(SA)
SciTegic.value.DoubleValue
2.551

@<SCITEGIC>MOL_PROPERTY
Valence
SciTegic.value.DoubleValue
2.685

@<SCITEGIC>MOL_PROPERTY
Coulomb
SciTegic.value.DoubleValue
44.768

@<SCITEGIC>MOL_PROPERTY
VdW
SciTegic.value.DoubleValue
0.839

@<SCITEGIC>MOL_PROPERTY
VdW6
SciTegic.value.DoubleValue
-7.428

@<SCITEGIC>MOL_PROPERTY
VdW12
SciTegic.value.DoubleValue
8.268

@<SCITEGIC>MOL_PROPERTY
Bond
SciTegic.value.DoubleValue
0.165

@<SCITEGIC>MOL_PROPERTY
Angle
SciTegic.value.DoubleValue
0.440

@<SCITEGIC>MOL_PROPERTY
Pdih
SciTegic.value.DoubleValue
2.080

@<SCITEGIC>MOL_PROPERTY
Idih
SciTegic.value.DoubleValue
0.000

@<SCITEGIC>MOL_PROPERTY
Tether
SciTegic.value.DoubleValue
0.000

@<TRIPOS>MOLECULE
guest-3_vm2.mol2 : vm2 ligand conformer 4
          29          28           1
SMALL
USER_CHARGES
 
@<TRIPOS>ATOM
       1    C1      20.202486   18.471442   19.113903 C.3        1 MOL1        -0.2427
       2    H1      20.337610   17.393057   19.269080 H          1 MOL1         0.0958
       3    H2      19.762763   18.616297   18.118557 H          1 MOL1         0.0958
       4    H3      21.193319   18.944197   19.116783 H          1 MOL1         0.0958
       5    C2      19.294912   19.079174   20.204226 C.3        1 MOL1        -0.1412
       6    H4      18.301869   18.610864   20.154732 H          1 MOL1         0.0947
       7    H5      19.150893   20.150094   20.003503 H          1 MOL1         0.0947
       8    C3      19.891435   18.888869   21.616267 C.3        1 MOL1        -0.1437
       9    H6      20.035814   17.817194   21.811382 H          1 MOL1         0.0947
      10    H7      20.884728   19.356667   21.660322 H          1 MOL1         0.0947
      11    C4      18.985254   19.496103   22.710884 C.3        1 MOL1        -0.1437
      12    H8      17.992183   19.027832   22.666323 H          1 MOL1         0.0947
      13    H9      18.840910   20.567529   22.514302 H          1 MOL1         0.0947
      14    C5      19.582453   19.305771   24.123373 C.3        1 MOL1        -0.1437
      15    H10     19.729886   18.233774   24.310853 H          1 MOL1         0.0947
      16    H11     20.574235   19.776711   24.167959 H          1 MOL1         0.0947
      17    C6      18.672465   19.913425   25.217587 C.3        1 MOL1        -0.1437
      18    H12     17.689930   19.421631   25.198133 H          1 MOL1         0.0947
      19    H13     18.493780   20.973686   24.991043 H          1 MOL1         0.0947
      20    C7      19.275410   19.804690   26.637761 C.3        1 MOL1        -0.1477
      21    H14     20.246381   20.316928   26.666687 H          1 MOL1         0.0947
      22    H15     18.620484   20.331858   27.344241 H          1 MOL1         0.0947
      23    C8      19.445385   18.346000   27.101774 C.3        1 MOL1         0.0145
      24    H16     20.131114   17.821532   26.431422 H          1 MOL1         0.0921
      25    H17     18.478629   17.836099   27.074292 H          1 MOL1         0.0921
      26    N1      19.994200   18.232527   28.509226 N.4        1 MOL1        -0.5969
      27    H18     20.917002   18.671220   28.595741 H          1 MOL1         0.3603
      28    H19     20.099823   17.254066   28.799305 H          1 MOL1         0.3603
      29    H20     19.380144   18.682977   29.195918 H          1 MOL1         0.3603
@<TRIPOS>BOND
    1     1     2    1
    2     1     3    1
    3     1     4    1
    4     1     5    1
    5     5     6    1
    6     5     7    1
    7     5     8    1
    8     8     9    1
    9     8    10    1
   10     8    11    1
   11    11    12    1
   12    11    13    1
   13    11    14    1
   14    14    15    1
   15    14    16    1
   16    14    17    1
   17    17    18    1
   18    17    19    1
   19    17    20    1
   20    20    21    1
   21    20    22    1
   22    20    23    1
   23    23    24    1
   24    23    25    1
   25    23    26    1
   26    26    27    1
   27    26    28    1
   28    26    29    1
@<TRIPOS>SUBSTRUCTURE
       1 MOL1            1 RESIDUE      1      MOL     
@<SCITEGIC>MOL_PROPERTY
VM2 Rank
SciTegic.value.IntegerValue
4

@<SCITEGIC>MOL_PROPERTY
Conf_Id
SciTegic.value.IntegerValue
228

@<SCITEGIC>MOL_PROPERTY
Probability
SciTegic.value.DoubleValue
2.30

@<SCITEGIC>MOL_PROPERTY
Sum Probability
SciTegic.value.DoubleValue
14.70

@<SCITEGIC>MOL_PROPERTY
Delta G
SciTegic.value.DoubleValue
0.505

@<SCITEGIC>MOL_PROPERTY
G
SciTegic.value.DoubleValue
58.653

@<SCITEGIC>MOL_PROPERTY
E
SciTegic.value.DoubleValue
21.369

@<SCITEGIC>MOL_PROPERTY
-TS
SciTegic.value.DoubleValue
37.284

@<SCITEGIC>MOL_PROPERTY
U+W
SciTegic.value.DoubleValue
-2.775

@<SCITEGIC>MOL_PROPERTY
U
SciTegic.value.DoubleValue
48.481

@<SCITEGIC>MOL_PROPERTY
W
SciTegic.value.DoubleValue
-51.256

@<SCITEGIC>MOL_PROPERTY
W(PB)
SciTegic.value.DoubleValue
-53.824

@<SCITEGIC>MOL_PROPERTY
W(SA)
SciTegic.value.DoubleValue
2.568

@<SCITEGIC>MOL_PROPERTY
Valence
SciTegic.value.DoubleValue
2.887

@<SCITEGIC>MOL_PROPERTY
Coulomb
SciTegic.value.DoubleValue
44.809

@<SCITEGIC>MOL_PROPERTY
VdW
SciTegic.value.DoubleValue
0.785

@<SCITEGIC>MOL_PROPERTY
VdW6
SciTegic.value.DoubleValue
-7.506

@<SCITEGIC>MOL_PROPERTY
VdW12
SciTegic.value.DoubleValue
8.292

@<SCITEGIC>MOL_PROPERTY
Bond
SciTegic.value.DoubleValue
0.167

@<SCITEGIC>MOL_PROPERTY
Angle
SciTegic.value.DoubleValue
0.525

@<SCITEGIC>MOL_PROPERTY
Pdih
SciTegic.value.DoubleValue
2.195

@<SCITEGIC>MOL_PROPERTY
Idih
SciTegic.value.DoubleValue
0.000

@<SCITEGIC>MOL_PROPERTY
Tether
SciTegic.value.DoubleValue
0.000

@<TRIPOS>MOLECULE
guest-3_vm2.mol2 : vm2 ligand conformer 5
          29          28           1
SMALL
USER_CHARGES
 
@<TRIPOS>ATOM
       1    C1      20.479907   19.250566   19.131225 C.3        1 MOL1        -0.2427
       2    H1      21.263627   19.994013   19.326980 H          1 MOL1         0.0958
       3    H2      20.949268   18.258564   19.101457 H          1 MOL1         0.0958
       4    H3      20.061565   19.455516   18.137224 H          1 MOL1         0.0958
       5    C2      19.377211   19.310198   20.209346 C.3        1 MOL1        -0.1412
       6    H4      18.592003   18.579884   19.968537 H          1 MOL1         0.0947
       7    H5      18.903920   20.301965   20.192322 H          1 MOL1         0.0947
       8    C3      19.939930   19.025057   21.619299 C.3        1 MOL1        -0.1437
       9    H6      20.413852   18.033759   21.630904 H          1 MOL1         0.0947
      10    H7      20.725941   19.755974   21.854558 H          1 MOL1         0.0947
      11    C4      18.838523   19.083975   22.701667 C.3        1 MOL1        -0.1437
      12    H8      18.052694   18.353325   22.464911 H          1 MOL1         0.0947
      13    H9      18.365115   20.075537   22.689603 H          1 MOL1         0.0947
      14    C5      19.401722   18.798322   24.112062 C.3        1 MOL1        -0.1437
      15    H10     19.872459   17.805516   24.124055 H          1 MOL1         0.0947
      16    H11     20.190413   19.527842   24.339732 H          1 MOL1         0.0947
      17    C6      18.297072   18.859301   25.194032 C.3        1 MOL1        -0.1437
      18    H12     17.491989   18.160345   24.928116 H          1 MOL1         0.0947
      19    H13     17.846497   19.861499   25.207995 H          1 MOL1         0.0947
      20    C7      18.812966   18.506208   26.608754 C.3        1 MOL1        -0.1477
      21    H14     17.962345   18.483987   27.302942 H          1 MOL1         0.0947
      22    H15     19.241328   17.495026   26.603659 H          1 MOL1         0.0947
      23    C8      19.859847   19.509510   27.127792 C.3        1 MOL1         0.0145
      24    H16     19.433304   20.516185   27.134064 H          1 MOL1         0.0921
      25    H17     20.732173   19.508648   26.469226 H          1 MOL1         0.0921
      26    N1      20.336822   19.194862   28.530824 N.4        1 MOL1        -0.5969
      27    H18     21.032873   19.873973   28.857945 H          1 MOL1         0.3603
      28    H19     20.773430   18.268729   28.586973 H          1 MOL1         0.3603
      29    H20     19.566580   19.207108   29.207649 H          1 MOL1         0.3603
@<TRIPOS>BOND
    1     1     2    1
    2     1     3    1
    3     1     4    1
    4     1     5    1
    5     5     6    1
    6     5     7    1
    7     5     8    1
    8     8     9    1
    9     8    10    1
   10     8    11    1
   11    11    12    1
   12    11    13    1
   13    11    14    1
   14    14    15    1
   15    14    16    1
   16    14    17    1
   17    17    18    1
   18    17    19    1
   19    17    20    1
   20    20    21    1
   21    20    22    1
   22    20    23    1
   23    23    24    1
   24    23    25    1
   25    23    26    1
   26    26    27    1
   27    26    28    1
   28    26    29    1
@<TRIPOS>SUBSTRUCTURE
       1 MOL1            1 RESIDUE      1      MOL     
@<SCITEGIC>MOL_PROPERTY
VM2 Rank
SciTegic.value.IntegerValue
5

@<SCITEGIC>MOL_PROPERTY
Conf_Id
SciTegic.value.IntegerValue
1293

@<SCITEGIC>MOL_PROPERTY
Probability
SciTegic.value.DoubleValue
2.27

@<SCITEGIC>MOL_PROPERTY
Sum Probability
SciTegic.value.DoubleValue
16.97

@<SCITEGIC>MOL_PROPERTY
Delta G
SciTegic.value.DoubleValue
0.513

@<SCITEGIC>MOL_PROPERTY
G
SciTegic.value.DoubleValue
58.661

@<SCITEGIC>MOL_PROPERTY
E
SciTegic.value.DoubleValue
21.378

@<SCITEGIC>MOL_PROPERTY
-TS
SciTegic.value.DoubleValue
37.284

@<SCITEGIC>MOL_PROPERTY
U+W
SciTegic.value.DoubleValue
-2.767

@<SCITEGIC>MOL_PROPERTY
U
SciTegic.value.DoubleValue
48.481

@<SCITEGIC>MOL_PROPERTY
W
SciTegic.value.DoubleValue
-51.248

@<SCITEGIC>MOL_PROPERTY
W(PB)
SciTegic.value.DoubleValue
-53.780

@<SCITEGIC>MOL_PROPERTY
W(SA)
SciTegic.value.DoubleValue
2.532

@<SCITEGIC>MOL_PROPERTY
Valence
SciTegic.value.DoubleValue
2.887

@<SCITEGIC>MOL_PROPERTY
Coulomb
SciTegic.value.DoubleValue
44.808

@<SCITEGIC>MOL_PROPERTY
VdW
SciTegic.value.DoubleValue
0.785

@<SCITEGIC>MOL_PROPERTY
VdW6
SciTegic.value.DoubleValue
-7.506

@<SCITEGIC>MOL_PROPERTY
VdW12
SciTegic.value.DoubleValue
8.291

@<SCITEGIC>MOL_PROPERTY
Bond
SciTegic.value.DoubleValue
0.167

@<SCITEGIC>MOL_PROPERTY
Angle
SciTegic.value.DoubleValue
0.525

@<SCITEGIC>MOL_PROPERTY
Pdih
SciTegic.value.DoubleValue
2.195

@<SCITEGIC>MOL_PROPERTY
Idih
SciTegic.value.DoubleValue
0.000

@<SCITEGIC>MOL_PROPERTY
Tether
SciTegic.value.DoubleValue
0.000

@<TRIPOS>MOLECULE
guest-3_vm2.mol2 : vm2 ligand conformer 6
          29          28           1
SMALL
USER_CHARGES
 
@<TRIPOS>ATOM
       1    C1      19.645004   20.199103   19.576662 C.3        1 MOL1        -0.2427
       2    H1      20.723865   20.397660   19.617469 H          1 MOL1         0.0958
       3    H2      19.301369   20.419170   18.557633 H          1 MOL1         0.0958
       4    H3      19.140122   20.899686   20.253226 H          1 MOL1         0.0958
       5    C2      19.335975   18.730599   19.946121 C.3        1 MOL1        -0.1412
       6    H4      19.760116   18.074409   19.173282 H          1 MOL1         0.0947
       7    H5      18.249641   18.565505   19.927416 H          1 MOL1         0.0947
       8    C3      19.905730   18.309566   21.322174 C.3        1 MOL1        -0.1437
       9    H6      19.739134   17.231447   21.453301 H          1 MOL1         0.0947
      10    H7      20.994473   18.457281   21.329116 H          1 MOL1         0.0947
      11    C4      19.268516   19.067489   22.511356 C.3        1 MOL1        -0.1437
      12    H8      18.175767   18.960470   22.471230 H          1 MOL1         0.0947
      13    H9      19.487735   20.140288   22.431301 H          1 MOL1         0.0947
      14    C5      19.788848   18.544734   23.869365 C.3        1 MOL1        -0.1437
      15    H10     19.567541   17.472160   23.959171 H          1 MOL1         0.0947
      16    H11     20.882167   18.648281   23.907171 H          1 MOL1         0.0947
      17    C6      19.156767   19.303175   25.058248 C.3        1 MOL1        -0.1437
      18    H12     18.063278   19.200169   25.020396 H          1 MOL1         0.0947
      19    H13     19.378254   20.375946   24.969564 H          1 MOL1         0.0947
      20    C7      19.676151   18.781125   26.415830 C.3        1 MOL1        -0.1477
      21    H14     19.451806   17.710249   26.510712 H          1 MOL1         0.0947
      22    H15     20.768394   18.887001   26.459503 H          1 MOL1         0.0947
      23    C8      19.040892   19.543066   27.592069 C.3        1 MOL1         0.0145
      24    H16     17.954138   19.426690   27.562301 H          1 MOL1         0.0921
      25    H17     19.275544   20.607866   27.510817 H          1 MOL1         0.0921
      26    N1      19.526117   19.059141   28.943176 N.4        1 MOL1        -0.5969
      27    H18     20.540717   19.167010   29.045676 H          1 MOL1         0.3603
      28    H19     19.311033   18.067846   29.093607 H          1 MOL1         0.3603
      29    H20     19.090952   19.579547   29.712962 H          1 MOL1         0.3603
@<TRIPOS>BOND
    1     1     2    1
    2     1     3    1
    3     1     4    1
    4     1     5    1
    5     5     6    1
    6     5     7    1
    7     5     8    1
    8     8     9    1
    9     8    10    1
   10     8    11    1
   11    11    12    1
   12    11    13    1
   13    11    14    1
   14    14    15    1
   15    14    16    1
   16    14    17    1
   17    17    18    1
   18    17    19    1
   19    17    20    1
   20    20    21    1
   21    20    22    1
   22    20    23    1
   23    23    24    1
   24    23    25    1
   25    23    26    1
   26    26    27    1
   27    26    28    1
   28    26    29    1
@<TRIPOS>SUBSTRUCTURE
       1 MOL1            1 RESIDUE      1      MOL     
@<SCITEGIC>MOL_PROPERTY
VM2 Rank
SciTegic.value.IntegerValue
6

@<SCITEGIC>MOL_PROPERTY
Conf_Id
SciTegic.value.IntegerValue
1223

@<SCITEGIC>MOL_PROPERTY
Probability
SciTegic.value.DoubleValue
1.83

@<SCITEGIC>MOL_PROPERTY
Sum Probability
SciTegic.value.DoubleValue
18.80

@<SCITEGIC>MOL_PROPERTY
Delta G
SciTegic.value.DoubleValue
0.642

@<SCITEGIC>MOL_PROPERTY
G
SciTegic.value.DoubleValue
58.790

@<SCITEGIC>MOL_PROPERTY
E
SciTegic.value.DoubleValue
21.495

@<SCITEGIC>MOL_PROPERTY
-TS
SciTegic.value.DoubleValue
37.295

@<SCITEGIC>MOL_PROPERTY
U+W
SciTegic.value.DoubleValue
-2.650

@<SCITEGIC>MOL_PROPERTY
U
SciTegic.value.DoubleValue
48.301

@<SCITEGIC>MOL_PROPERTY
W
SciTegic.value.DoubleValue
-50.950

@<SCITEGIC>MOL_PROPERTY
W(PB)
SciTegic.value.DoubleValue
-53.515

@<SCITEGIC>MOL_PROPERTY
W(SA)
SciTegic.value.DoubleValue
2.565

@<SCITEGIC>MOL_PROPERTY
Valence
SciTegic.value.DoubleValue
3.090

@<SCITEGIC>MOL_PROPERTY
Coulomb
SciTegic.value.DoubleValue
44.344

@<SCITEGIC>MOL_PROPERTY
VdW
SciTegic.value.DoubleValue
0.866

@<SCITEGIC>MOL_PROPERTY
VdW6
SciTegic.value.DoubleValue
-7.521

@<SCITEGIC>MOL_PROPERTY
VdW12
SciTegic.value.DoubleValue
8.387

@<SCITEGIC>MOL_PROPERTY
Bond
SciTegic.value.DoubleValue
0.180

@<SCITEGIC>MOL_PROPERTY
Angle
SciTegic.value.DoubleValue
0.641

@<SCITEGIC>MOL_PROPERTY
Pdih
SciTegic.value.DoubleValue
2.270

@<SCITEGIC>MOL_PROPERTY
Idih
SciTegic.value.DoubleValue
0.000

@<SCITEGIC>MOL_PROPERTY
Tether
SciTegic.value.DoubleValue
0.000

@<TRIPOS>MOLECULE
guest-3_vm2.mol2 : vm2 ligand conformer 7
          29          28           1
SMALL
USER_CHARGES
 
@<TRIPOS>ATOM
       1    C1      18.950118   18.247273   19.532871 C.3        1 MOL1        -0.2427
       2    H1      18.106734   17.996723   20.188150 H          1 MOL1         0.0958
       3    H2      18.559121   18.334483   18.510888 H          1 MOL1         0.0958
       4    H3      19.660479   17.410546   19.550390 H          1 MOL1         0.0958
       5    C2      19.632789   19.564803   19.964814 C.3        1 MOL1        -0.1412
       6    H4      18.895181   20.379451   19.968190 H          1 MOL1         0.0947
       7    H5      20.386881   19.835831   19.212718 H          1 MOL1         0.0947
       8    C3      20.320995   19.476162   21.348258 C.3        1 MOL1        -0.1437
       9    H6      21.071583   18.673891   21.333814 H          1 MOL1         0.0947
      10    H7      20.870923   20.410938   21.524505 H          1 MOL1         0.0947
      11    C4      19.331602   19.244409   22.515318 C.3        1 MOL1        -0.1437
      12    H8      18.825176   18.278439   22.389618 H          1 MOL1         0.0947
      13    H9      18.552624   20.018970   22.494979 H          1 MOL1         0.0947
      14    C5      20.045976   19.266643   23.885492 C.3        1 MOL1        -0.1437
      15    H10     20.827572   18.494454   23.903690 H          1 MOL1         0.0947
      16    H11     20.550566   20.233345   24.020884 H          1 MOL1         0.0947
      17    C6      19.060231   19.031430   25.052188 C.3        1 MOL1        -0.1437
      18    H12     18.555786   18.064323   24.918035 H          1 MOL1         0.0947
      19    H13     18.278050   19.803190   25.033787 H          1 MOL1         0.0947
      20    C7      19.773393   19.054093   26.421934 C.3        1 MOL1        -0.1477
      21    H14     20.552607   18.280560   26.446134 H          1 MOL1         0.0947
      22    H15     20.274473   20.021238   26.562152 H          1 MOL1         0.0947
      23    C8      18.783118   18.818959   27.575930 C.3        1 MOL1         0.0145
      24    H16     18.293805   17.849391   27.449543 H          1 MOL1         0.0921
      25    H17     18.014492   19.596503   27.565838 H          1 MOL1         0.0921
      26    N1      19.445779   18.834229   28.938194 N.4        1 MOL1        -0.5969
      27    H18     18.768923   18.675688   29.692839 H          1 MOL1         0.3603
      28    H19     19.902787   19.731837   29.130549 H          1 MOL1         0.3603
      29    H20     20.162879   18.106044   29.022264 H          1 MOL1         0.3603
@<TRIPOS>BOND
    1     1     2    1
    2     1     3    1
    3     1     4    1
    4     1     5    1
    5     5     6    1
    6     5     7    1
    7     5     8    1
    8     8     9    1
    9     8    10    1
   10     8    11    1
   11    11    12    1
   12    11    13    1
   13    11    14    1
   14    14    15    1
   15    14    16    1
   16    14    17    1
   17    17    18    1
   18    17    19    1
   19    17    20    1
   20    20    21    1
   21    20    22    1
   22    20    23    1
   23    23    24    1
   24    23    25    1
   25    23    26    1
   26    26    27    1
   27    26    28    1
   28    26    29    1
@<TRIPOS>SUBSTRUCTURE
       1 MOL1            1 RESIDUE      1      MOL     
@<SCITEGIC>MOL_PROPERTY
VM2 Rank
SciTegic.value.IntegerValue
7

@<SCITEGIC>MOL_PROPERTY
Conf_Id
SciTegic.value.IntegerValue
1623

@<SCITEGIC>MOL_PROPERTY
Probability
SciTegic.value.DoubleValue
1.83

@<SCITEGIC>MOL_PROPERTY
Sum Probability
SciTegic.value.DoubleValue
20.62

@<SCITEGIC>MOL_PROPERTY
Delta G
SciTegic.value.DoubleValue
0.643

@<SCITEGIC>MOL_PROPERTY
G
SciTegic.value.DoubleValue
58.791

@<SCITEGIC>MOL_PROPERTY
E
SciTegic.value.DoubleValue
21.496

@<SCITEGIC>MOL_PROPERTY
-TS
SciTegic.value.DoubleValue
37.295

@<SCITEGIC>MOL_PROPERTY
U+W
SciTegic.value.DoubleValue
-2.648

@<SCITEGIC>MOL_PROPERTY
U
SciTegic.value.DoubleValue
48.301

@<SCITEGIC>MOL_PROPERTY
W
SciTegic.value.DoubleValue
-50.949

@<SCITEGIC>MOL_PROPERTY
W(PB)
SciTegic.value.DoubleValue
-53.521

@<SCITEGIC>MOL_PROPERTY
W(SA)
SciTegic.value.DoubleValue
2.572

@<SCITEGIC>MOL_PROPERTY
Valence
SciTegic.value.DoubleValue
3.090

@<SCITEGIC>MOL_PROPERTY
Coulomb
SciTegic.value.DoubleValue
44.344

@<SCITEGIC>MOL_PROPERTY
VdW
SciTegic.value.DoubleValue
0.866

@<SCITEGIC>MOL_PROPERTY
VdW6
SciTegic.value.DoubleValue
-7.521

@<SCITEGIC>MOL_PROPERTY
VdW12
SciTegic.value.DoubleValue
8.387

@<SCITEGIC>MOL_PROPERTY
Bond
SciTegic.value.DoubleValue
0.180

@<SCITEGIC>MOL_PROPERTY
Angle
SciTegic.value.DoubleValue
0.640

@<SCITEGIC>MOL_PROPERTY
Pdih
SciTegic.value.DoubleValue
2.270

@<SCITEGIC>MOL_PROPERTY
Idih
SciTegic.value.DoubleValue
0.000

@<SCITEGIC>MOL_PROPERTY
Tether
SciTegic.value.DoubleValue
0.000

@<TRIPOS>MOLECULE
guest-3_vm2.mol2 : vm2 ligand conformer 8
          29          28           1
SMALL
USER_CHARGES
 
@<TRIPOS>ATOM
       1    C1      20.230651   18.403740   19.251053 C.3        1 MOL1        -0.2427
       2    H1      21.215321   18.888671   19.228264 H          1 MOL1         0.0958
       3    H2      20.352525   17.375707   18.885901 H          1 MOL1         0.0958
       4    H3      19.571946   18.933964   18.550906 H          1 MOL1         0.0958
       5    C2      19.643295   18.408975   20.678285 C.3        1 MOL1        -0.1412
       6    H4      20.307657   17.836040   21.338583 H          1 MOL1         0.0947
       7    H5      18.673412   17.892266   20.674868 H          1 MOL1         0.0947
       8    C3      19.466442   19.848503   21.216298 C.3        1 MOL1        -0.1437
       9    H6      20.444220   20.346829   21.269589 H          1 MOL1         0.0947
      10    H7      18.865252   20.425485   20.500077 H          1 MOL1         0.0947
      11    C4      18.774978   19.912717   22.600278 C.3        1 MOL1        -0.1437
      12    H8      17.790880   19.427472   22.542355 H          1 MOL1         0.0947
      13    H9      18.585110   20.966955   22.844910 H          1 MOL1         0.0947
      14    C5      19.606774   19.273597   23.738092 C.3        1 MOL1        -0.1437
      15    H10     19.740999   18.200866   23.547213 H          1 MOL1         0.0947
      16    H11     20.609146   19.723245   23.756847 H          1 MOL1         0.0947
      17    C6      18.931637   19.460598   25.115608 C.3        1 MOL1        -0.1437
      18    H12     17.927386   19.014654   25.096012 H          1 MOL1         0.0947
      19    H13     18.799580   20.532594   25.318397 H          1 MOL1         0.0947
      20    C7      19.757119   18.820213   26.253112 C.3        1 MOL1        -0.1477
      21    H14     19.886556   17.747311   26.057590 H          1 MOL1         0.0947
      22    H15     20.760144   19.266747   26.278830 H          1 MOL1         0.0947
      23    C8      19.076279   19.012595   27.619519 C.3        1 MOL1         0.0145
      24    H16     18.083374   18.555044   27.603910 H          1 MOL1         0.0921
      25    H17     18.960350   20.079979   27.826190 H          1 MOL1         0.0921
      26    N1      19.856824   18.397061   28.762754 N.4        1 MOL1        -0.5969
      27    H18     19.386208   18.536333   29.663798 H          1 MOL1         0.3603
      28    H19     20.793672   18.805041   28.848880 H          1 MOL1         0.3603
      29    H20     19.977612   17.385936   28.641989 H          1 MOL1         0.3603
@<TRIPOS>BOND
    1     1     2    1
    2     1     3    1
    3     1     4    1
    4     1     5    1
    5     5     6    1
    6     5     7    1
    7     5     8    1
    8     8     9    1
    9     8    10    1
   10     8    11    1
   11    11    12    1
   12    11    13    1
   13    11    14    1
   14    14    15    1
   15    14    16    1
   16    14    17    1
   17    17    18    1
   18    17    19    1
   19    17    20    1
   20    20    21    1
   21    20    22    1
   22    20    23    1
   23    23    24    1
   24    23    25    1
   25    23    26    1
   26    26    27    1
   27    26    28    1
   28    26    29    1
@<TRIPOS>SUBSTRUCTURE
       1 MOL1            1 RESIDUE      1      MOL     
@<SCITEGIC>MOL_PROPERTY
VM2 Rank
SciTegic.value.IntegerValue
8

@<SCITEGIC>MOL_PROPERTY
Conf_Id
SciTegic.value.IntegerValue
1544

@<SCITEGIC>MOL_PROPERTY
Probability
SciTegic.value.DoubleValue
1.74

@<SCITEGIC>MOL_PROPERTY
Sum Probability
SciTegic.value.DoubleValue
22.36

@<SCITEGIC>MOL_PROPERTY
Delta G
SciTegic.value.DoubleValue
0.672

@<SCITEGIC>MOL_PROPERTY
G
SciTegic.value.DoubleValue
58.820

@<SCITEGIC>MOL_PROPERTY
E
SciTegic.value.DoubleValue
21.536

@<SCITEGIC>MOL_PROPERTY
-TS
SciTegic.value.DoubleValue
37.284

@<SCITEGIC>MOL_PROPERTY
U+W
SciTegic.value.DoubleValue
-2.609

@<SCITEGIC>MOL_PROPERTY
U
SciTegic.value.DoubleValue
48.495

@<SCITEGIC>MOL_PROPERTY
W
SciTegic.value.DoubleValue
-51.103

@<SCITEGIC>MOL_PROPERTY
W(PB)
SciTegic.value.DoubleValue
-53.638

@<SCITEGIC>MOL_PROPERTY
W(SA)
SciTegic.value.DoubleValue
2.534

@<SCITEGIC>MOL_PROPERTY
Valence
SciTegic.value.DoubleValue
3.129

@<SCITEGIC>MOL_PROPERTY
Coulomb
SciTegic.value.DoubleValue
44.512

@<SCITEGIC>MOL_PROPERTY
VdW
SciTegic.value.DoubleValue
0.854

@<SCITEGIC>MOL_PROPERTY
VdW6
SciTegic.value.DoubleValue
-7.566

@<SCITEGIC>MOL_PROPERTY
VdW12
SciTegic.value.DoubleValue
8.420

@<SCITEGIC>MOL_PROPERTY
Bond
SciTegic.value.DoubleValue
0.184

@<SCITEGIC>MOL_PROPERTY
Angle
SciTegic.value.DoubleValue
0.664

@<SCITEGIC>MOL_PROPERTY
Pdih
SciTegic.value.DoubleValue
2.281

@<SCITEGIC>MOL_PROPERTY
Idih
SciTegic.value.DoubleValue
0.000

@<SCITEGIC>MOL_PROPERTY
Tether
SciTegic.value.DoubleValue
0.000

@<TRIPOS>MOLECULE
guest-3_vm2.mol2 : vm2 ligand conformer 9
          29          28           1
SMALL
USER_CHARGES
 
@<TRIPOS>ATOM
       1    C1      20.584911   19.982408   19.549355 C.3        1 MOL1        -0.2427
       2    H1      20.326132   20.198073   18.504574 H          1 MOL1         0.0958
       3    H2      20.870117   20.928278   20.028131 H          1 MOL1         0.0958
       4    H3      21.461070   19.320900   19.550008 H          1 MOL1         0.0958
       5    C2      19.394721   19.326938   20.281293 C.3        1 MOL1        -0.1412
       6    H4      19.110854   18.402274   19.759479 H          1 MOL1         0.0947
       7    H5      18.524665   19.996872   20.235570 H          1 MOL1         0.0947
       8    C3      19.732956   19.012025   21.755248 C.3        1 MOL1        -0.1437
       9    H6      20.601711   18.340604   21.795794 H          1 MOL1         0.0947
      10    H7      20.023352   19.941606   22.261831 H          1 MOL1         0.0947
      11    C4      18.538664   18.358491   22.491215 C.3        1 MOL1        -0.1437
      12    H8      18.212200   17.473914   21.927054 H          1 MOL1         0.0947
      13    H9      17.685215   19.050445   22.500548 H          1 MOL1         0.0947
      14    C5      18.867556   17.921162   23.939729 C.3        1 MOL1        -0.1437
      15    H10     18.007373   17.365719   24.338404 H          1 MOL1         0.0947
      16    H11     19.710944   17.216965   23.928564 H          1 MOL1         0.0947
      17    C6      19.186199   19.103506   24.886146 C.3        1 MOL1        -0.1437
      18    H12     18.365171   19.833110   24.852475 H          1 MOL1         0.0947
      19    H13     20.090813   19.624265   24.545589 H          1 MOL1         0.0947
      20    C7      19.395460   18.631819   26.341904 C.3        1 MOL1        -0.1477
      21    H14     18.492154   18.119165   26.698707 H          1 MOL1         0.0947
      22    H15     20.216277   17.903165   26.379906 H          1 MOL1         0.0947
      23    C8      19.715473   19.812344   27.275517 C.3        1 MOL1         0.0145
      24    H16     18.893206   20.532658   27.253486 H          1 MOL1         0.0921
      25    H17     20.623858   20.316120   26.934195 H          1 MOL1         0.0921
      26    N1      19.928059   19.389307   28.714592 N.4        1 MOL1        -0.5969
      27    H18     19.097515   18.931550   29.104725 H          1 MOL1         0.3603
      28    H19     20.139889   20.190310   29.319791 H          1 MOL1         0.3603
      29    H20     20.708001   18.730083   28.807629 H          1 MOL1         0.3603
@<TRIPOS>BOND
    1     1     2    1
    2     1     3    1
    3     1     4    1
    4     1     5    1
    5     5     6    1
    6     5     7    1
    7     5     8    1
    8     8     9    1
    9     8    10    1
   10     8    11    1
   11    11    12    1
   12    11    13    1
   13    11    14    1
   14    14    15    1
   15    14    16    1
   16    14    17    1
   17    17    18    1
   18    17    19    1
   19    17    20    1
   20    20    21    1
   21    20    22    1
   22    20    23    1
   23    23    24    1
   24    23    25    1
   25    23    26    1
   26    26    27    1
   27    26    28    1
   28    26    29    1
@<TRIPOS>SUBSTRUCTURE
       1 MOL1            1 RESIDUE      1      MOL     
@<SCITEGIC>MOL_PROPERTY
VM2 Rank
SciTegic.value.IntegerValue
9

@<SCITEGIC>MOL_PROPERTY
Conf_Id
SciTegic.value.IntegerValue
2219

@<SCITEGIC>MOL_PROPERTY
Probability
SciTegic.value.DoubleValue
1.74

@<SCITEGIC>MOL_PROPERTY
Sum Probability
SciTegic.value.DoubleValue
24.10

@<SCITEGIC>MOL_PROPERTY
Delta G
SciTegic.value.DoubleValue
0.674

@<SCITEGIC>MOL_PROPERTY
G
SciTegic.value.DoubleValue
58.822

@<SCITEGIC>MOL_PROPERTY
E
SciTegic.value.DoubleValue
21.537

@<SCITEGIC>MOL_PROPERTY
-TS
SciTegic.value.DoubleValue
37.285

@<SCITEGIC>MOL_PROPERTY
U+W
SciTegic.value.DoubleValue
-2.608

@<SCITEGIC>MOL_PROPERTY
U
SciTegic.value.DoubleValue
48.554

@<SCITEGIC>MOL_PROPERTY
W
SciTegic.value.DoubleValue
-51.162

@<SCITEGIC>MOL_PROPERTY
W(PB)
SciTegic.value.DoubleValue
-53.697

@<SCITEGIC>MOL_PROPERTY
W(SA)
SciTegic.value.DoubleValue
2.536

@<SCITEGIC>MOL_PROPERTY
Valence
SciTegic.value.DoubleValue
3.127

@<SCITEGIC>MOL_PROPERTY
Coulomb
SciTegic.value.DoubleValue
44.585

@<SCITEGIC>MOL_PROPERTY
VdW
SciTegic.value.DoubleValue
0.842

@<SCITEGIC>MOL_PROPERTY
VdW6
SciTegic.value.DoubleValue
-7.592

@<SCITEGIC>MOL_PROPERTY
VdW12
SciTegic.value.DoubleValue
8.434

@<SCITEGIC>MOL_PROPERTY
Bond
SciTegic.value.DoubleValue
0.185

@<SCITEGIC>MOL_PROPERTY
Angle
SciTegic.value.DoubleValue
0.660

@<SCITEGIC>MOL_PROPERTY
Pdih
SciTegic.value.DoubleValue
2.281

@<SCITEGIC>MOL_PROPERTY
Idih
SciTegic.value.DoubleValue
0.000

@<SCITEGIC>MOL_PROPERTY
Tether
SciTegic.value.DoubleValue
0.000

@<TRIPOS>MOLECULE
guest-3_vm2.mol2 : vm2 ligand conformer 10
          29          28           1
SMALL
USER_CHARGES
 
@<TRIPOS>ATOM
       1    C1      19.815890   17.822024   19.501282 C.3        1 MOL1        -0.2427
       2    H1      20.912848   17.780579   19.515965 H          1 MOL1         0.0958
       3    H2      19.432540   16.890648   19.938114 H          1 MOL1         0.0958
       4    H3      19.493991   17.859899   18.452477 H          1 MOL1         0.0958
       5    C2      19.297092   19.052410   20.275192 C.3        1 MOL1        -0.1412
       6    H4      18.200179   19.085197   20.215124 H          1 MOL1         0.0947
       7    H5      19.668616   19.968230   19.794448 H          1 MOL1         0.0947
       8    C3      19.737247   19.024258   21.755595 C.3        1 MOL1        -0.1437
       9    H6      19.367966   18.101065   22.220810 H          1 MOL1         0.0947
      10    H7      20.834166   18.993735   21.810568 H          1 MOL1         0.0947
      11    C4      19.213873   20.255502   22.533549 C.3        1 MOL1        -0.1437
      12    H8      18.115138   20.258426   22.527436 H          1 MOL1         0.0947
      13    H9      19.527510   21.168920   22.009495 H          1 MOL1         0.0947
      14    C5      19.724515   20.329093   23.993503 C.3        1 MOL1        -0.1437
      15    H10     20.823205   20.342430   23.998407 H          1 MOL1         0.0947
      16    H11     19.402617   21.286547   24.425984 H          1 MOL1         0.0947
      17    C6      19.211721   19.174677   24.887672 C.3        1 MOL1        -0.1437
      18    H12     19.589312   18.213760   24.514094 H          1 MOL1         0.0947
      19    H13     18.114974   19.129192   24.836515 H          1 MOL1         0.0947
      20    C7      19.650980   19.350213   26.357962 C.3        1 MOL1        -0.1477
      21    H14     20.746897   19.395068   26.413419 H          1 MOL1         0.0947
      22    H15     19.268925   20.303305   26.747495 H          1 MOL1         0.0947
      23    C8      19.140744   18.196688   27.239280 C.3        1 MOL1         0.0145
      24    H16     19.532227   17.246677   26.865550 H          1 MOL1         0.0921
      25    H17     18.048746   18.158487   27.200024 H          1 MOL1         0.0921
      26    N1      19.551938   18.333134   28.690964 N.4        1 MOL1        -0.5969
      27    H18     20.571537   18.347947   28.799318 H          1 MOL1         0.3603
      28    H19     19.202065   17.554885   29.260753 H          1 MOL1         0.3603
      29    H20     19.191041   19.196406   29.110564 H          1 MOL1         0.3603
@<TRIPOS>BOND
    1     1     2    1
    2     1     3    1
    3     1     4    1
    4     1     5    1
    5     5     6    1
    6     5     7    1
    7     5     8    1
    8     8     9    1
    9     8    10    1
   10     8    11    1
   11    11    12    1
   12    11    13    1
   13    11    14    1
   14    14    15    1
   15    14    16    1
   16    14    17    1
   17    17    18    1
   18    17    19    1
   19    17    20    1
   20    20    21    1
   21    20    22    1
   22    20    23    1
   23    23    24    1
   24    23    25    1
   25    23    26    1
   26    26    27    1
   27    26    28    1
   28    26    29    1
@<TRIPOS>SUBSTRUCTURE
       1 MOL1            1 RESIDUE      1      MOL     
@<SCITEGIC>MOL_PROPERTY
VM2 Rank
SciTegic.value.IntegerValue
10

@<SCITEGIC>MOL_PROPERTY
Conf_Id
SciTegic.value.IntegerValue
1678

@<SCITEGIC>MOL_PROPERTY
Probability
SciTegic.value.DoubleValue
1.73

@<SCITEGIC>MOL_PROPERTY
Sum Probability
SciTegic.value.DoubleValue
25.83

@<SCITEGIC>MOL_PROPERTY
Delta G
SciTegic.value.DoubleValue
0.675

@<SCITEGIC>MOL_PROPERTY
G
SciTegic.value.DoubleValue
58.823

@<SCITEGIC>MOL_PROPERTY
E
SciTegic.value.DoubleValue
21.538

@<SCITEGIC>MOL_PROPERTY
-TS
SciTegic.value.DoubleValue
37.285

@<SCITEGIC>MOL_PROPERTY
U+W
SciTegic.value.DoubleValue
-2.607

@<SCITEGIC>MOL_PROPERTY
U
SciTegic.value.DoubleValue
48.554

@<SCITEGIC>MOL_PROPERTY
W
SciTegic.value.DoubleValue
-51.161

@<SCITEGIC>MOL_PROPERTY
W(PB)
SciTegic.value.DoubleValue
-53.730

@<SCITEGIC>MOL_PROPERTY
W(SA)
SciTegic.value.DoubleValue
2.569

@<SCITEGIC>MOL_PROPERTY
Valence
SciTegic.value.DoubleValue
3.127

@<SCITEGIC>MOL_PROPERTY
Coulomb
SciTegic.value.DoubleValue
44.585

@<SCITEGIC>MOL_PROPERTY
VdW
SciTegic.value.DoubleValue
0.842

@<SCITEGIC>MOL_PROPERTY
VdW6
SciTegic.value.DoubleValue
-7.592

@<SCITEGIC>MOL_PROPERTY
VdW12
SciTegic.value.DoubleValue
8.435

@<SCITEGIC>MOL_PROPERTY
Bond
SciTegic.value.DoubleValue
0.185

@<SCITEGIC>MOL_PROPERTY
Angle
SciTegic.value.DoubleValue
0.660

@<SCITEGIC>MOL_PROPERTY
Pdih
SciTegic.value.DoubleValue
2.281

@<SCITEGIC>MOL_PROPERTY
Idih
SciTegic.value.DoubleValue
0.000

@<SCITEGIC>MOL_PROPERTY
Tether
SciTegic.value.DoubleValue
0.000

@<TRIPOS>MOLECULE
guest-3_vm2.mol2 : vm2 ligand conformer 11
          29          28           1
SMALL
USER_CHARGES
 
@<TRIPOS>ATOM
       1    C1      20.542625   19.279772   19.270599 C.3        1 MOL1        -0.2427
       2    H1      20.999608   18.283131   19.214683 H          1 MOL1         0.0958
       3    H2      19.706988   19.313312   18.559388 H          1 MOL1         0.0958
       4    H3      21.291788   20.013008   18.944778 H          1 MOL1         0.0958
       5    C2      20.064049   19.590260   20.704672 C.3        1 MOL1        -0.1412
       6    H4      19.638977   20.603197   20.735461 H          1 MOL1         0.0947
       7    H5      20.931617   19.587777   21.377683 H          1 MOL1         0.0947
       8    C3      19.009831   18.566392   21.187672 C.3        1 MOL1        -0.1437
       9    H6      18.189472   18.527998   20.457707 H          1 MOL1         0.0947
      10    H7      19.451949   17.560728   21.207382 H          1 MOL1         0.0947
      11    C4      18.413865   18.898765   22.577635 C.3        1 MOL1        -0.1437
      12    H8      17.597232   18.192901   22.783012 H          1 MOL1         0.0947
      13    H9      17.958537   19.898428   22.552828 H          1 MOL1         0.0947
      14    C5      19.446278   18.823022   23.728012 C.3        1 MOL1        -0.1437
      15    H10     19.938877   17.840956   23.714774 H          1 MOL1         0.0947
      16    H11     20.230659   19.576294   23.577907 H          1 MOL1         0.0947
      17    C6      18.785450   19.050141   25.106437 C.3        1 MOL1        -0.1437
      18    H12     18.003050   18.295589   25.268423 H          1 MOL1         0.0947
      19    H13     18.289060   20.030557   25.118724 H          1 MOL1         0.0947
      20    C7      19.813761   18.979359   26.256653 C.3        1 MOL1        -0.1477
      21    H14     20.308834   17.999065   26.250390 H          1 MOL1         0.0947
      22    H15     20.594532   19.736066   26.102075 H          1 MOL1         0.0947
      23    C8      19.145229   19.206134   27.623861 C.3        1 MOL1         0.0145
      24    H16     18.378220   18.444754   27.789566 H          1 MOL1         0.0921
      25    H17     18.664859   20.188186   27.640553 H          1 MOL1         0.0921
      26    N1      20.122913   19.144155   28.779461 N.4        1 MOL1        -0.5969
      27    H18     20.590175   18.233098   28.835952 H          1 MOL1         0.3603
      28    H19     19.657433   19.297705   29.680853 H          1 MOL1         0.3603
      29    H20     20.856918   19.855517   28.697314 H          1 MOL1         0.3603
@<TRIPOS>BOND
    1     1     2    1
    2     1     3    1
    3     1     4    1
    4     1     5    1
    5     5     6    1
    6     5     7    1
    7     5     8    1
    8     8     9    1
    9     8    10    1
   10     8    11    1
   11    11    12    1
   12    11    13    1
   13    11    14    1
   14    14    15    1
   15    14    16    1
   16    14    17    1
   17    17    18    1
   18    17    19    1
   19    17    20    1
   20    20    21    1
   21    20    22    1
   22    20    23    1
   23    23    24    1
   24    23    25    1
   25    23    26    1
   26    26    27    1
   27    26    28    1
   28    26    29    1
@<TRIPOS>SUBSTRUCTURE
       1 MOL1            1 RESIDUE      1      MOL     
@<SCITEGIC>MOL_PROPERTY
VM2 Rank
SciTegic.value.IntegerValue
11

@<SCITEGIC>MOL_PROPERTY
Conf_Id
SciTegic.value.IntegerValue
1077

@<SCITEGIC>MOL_PROPERTY
Probability
SciTegic.value.DoubleValue
1.65

@<SCITEGIC>MOL_PROPERTY
Sum Probability
SciTegic.value.DoubleValue
27.48

@<SCITEGIC>MOL_PROPERTY
Delta G
SciTegic.value.DoubleValue
0.703

@<SCITEGIC>MOL_PROPERTY
G
SciTegic.value.DoubleValue
58.851

@<SCITEGIC>MOL_PROPERTY
E
SciTegic.value.DoubleValue
21.568

@<SCITEGIC>MOL_PROPERTY
-TS
SciTegic.value.DoubleValue
37.284

@<SCITEGIC>MOL_PROPERTY
U+W
SciTegic.value.DoubleValue
-2.577

@<SCITEGIC>MOL_PROPERTY
U
SciTegic.value.DoubleValue
48.495

@<SCITEGIC>MOL_PROPERTY
W
SciTegic.value.DoubleValue
-51.072

@<SCITEGIC>MOL_PROPERTY
W(PB)
SciTegic.value.DoubleValue
-53.644

@<SCITEGIC>MOL_PROPERTY
W(SA)
SciTegic.value.DoubleValue
2.572

@<SCITEGIC>MOL_PROPERTY
Valence
SciTegic.value.DoubleValue
3.129

@<SCITEGIC>MOL_PROPERTY
Coulomb
SciTegic.value.DoubleValue
44.512

@<SCITEGIC>MOL_PROPERTY
VdW
SciTegic.value.DoubleValue
0.854

@<SCITEGIC>MOL_PROPERTY
VdW6
SciTegic.value.DoubleValue
-7.566

@<SCITEGIC>MOL_PROPERTY
VdW12
SciTegic.value.DoubleValue
8.420

@<SCITEGIC>MOL_PROPERTY
Bond
SciTegic.value.DoubleValue
0.184

@<SCITEGIC>MOL_PROPERTY
Angle
SciTegic.value.DoubleValue
0.664

@<SCITEGIC>MOL_PROPERTY
Pdih
SciTegic.value.DoubleValue
2.281

@<SCITEGIC>MOL_PROPERTY
Idih
SciTegic.value.DoubleValue
0.000

@<SCITEGIC>MOL_PROPERTY
Tether
SciTegic.value.DoubleValue
0.000

@<TRIPOS>MOLECULE
guest-3_vm2.mol2 : vm2 ligand conformer 12
          29          28           1
SMALL
USER_CHARGES
 
@<TRIPOS>ATOM
       1    C1      19.822824   18.468484   19.110215 C.3        1 MOL1        -0.2427
       2    H1      20.919537   18.423058   19.089966 H          1 MOL1         0.0958
       3    H2      19.440490   17.679783   18.449292 H          1 MOL1         0.0958
       4    H3      19.512886   19.436205   18.694633 H          1 MOL1         0.0958
       5    C2      19.286578   18.284041   20.545568 C.3        1 MOL1        -0.1412
       6    H4      19.583573   17.294863   20.921335 H          1 MOL1         0.0947
       7    H5      18.187778   18.300329   20.529173 H          1 MOL1         0.0947
       8    C3      19.810194   19.382371   21.497162 C.3        1 MOL1        -0.1437
       9    H6      20.908793   19.363573   21.509091 H          1 MOL1         0.0947
      10    H7      19.513227   20.369055   21.115517 H          1 MOL1         0.0947
      11    C4      19.275035   19.201353   22.935579 C.3        1 MOL1        -0.1437
      12    H8      19.570358   18.210825   23.305419 H          1 MOL1         0.0947
      13    H9      18.176603   19.224261   22.923266 H          1 MOL1         0.0947
      14    C5      19.804669   20.300885   23.887173 C.3        1 MOL1        -0.1437
      15    H10     20.900559   20.245435   23.944386 H          1 MOL1         0.0947
      16    H11     19.567650   21.286010   23.462038 H          1 MOL1         0.0947
      17    C6      19.206457   20.226422   25.313445 C.3        1 MOL1        -0.1437
      18    H12     18.111380   20.299094   25.257919 H          1 MOL1         0.0947
      19    H13     19.545316   21.105291   25.879534 H          1 MOL1         0.0947
      20    C7      19.605628   18.947571   26.086403 C.3        1 MOL1        -0.1477
      21    H14     19.204613   18.059712   25.581633 H          1 MOL1         0.0947
      22    H15     20.699225   18.848484   26.097772 H          1 MOL1         0.0947
      23    C8      19.080516   18.980996   27.532362 C.3        1 MOL1         0.0145
      24    H16     17.990253   19.063104   27.526314 H          1 MOL1         0.0921
      25    H17     19.488539   19.851980   28.052312 H          1 MOL1         0.0921
      26    N1      19.452099   17.745876   28.327092 N.4        1 MOL1        -0.5969
      27    H18     19.073744   16.891597   27.904549 H          1 MOL1         0.3603
      28    H19     19.093120   17.788688   29.287322 H          1 MOL1         0.3603
      29    H20     20.468341   17.625843   28.393235 H          1 MOL1         0.3603
@<TRIPOS>BOND
    1     1     2    1
    2     1     3    1
    3     1     4    1
    4     1     5    1
    5     5     6    1
    6     5     7    1
    7     5     8    1
    8     8     9    1
    9     8    10    1
   10     8    11    1
   11    11    12    1
   12    11    13    1
   13    11    14    1
   14    14    15    1
   15    14    16    1
   16    14    17    1
   17    17    18    1
   18    17    19    1
   19    17    20    1
   20    20    21    1
   21    20    22    1
   22    20    23    1
   23    23    24    1
   24    23    25    1
   25    23    26    1
   26    26    27    1
   27    26    28    1
   28    26    29    1
@<TRIPOS>SUBSTRUCTURE
       1 MOL1            1 RESIDUE      1      MOL     
@<SCITEGIC>MOL_PROPERTY
VM2 Rank
SciTegic.value.IntegerValue
12

@<SCITEGIC>MOL_PROPERTY
Conf_Id
SciTegic.value.IntegerValue
2405

@<SCITEGIC>MOL_PROPERTY
Probability
SciTegic.value.DoubleValue
1.64

@<SCITEGIC>MOL_PROPERTY
Sum Probability
SciTegic.value.DoubleValue
29.12

@<SCITEGIC>MOL_PROPERTY
Delta G
SciTegic.value.DoubleValue
0.709

@<SCITEGIC>MOL_PROPERTY
G
SciTegic.value.DoubleValue
58.857

@<SCITEGIC>MOL_PROPERTY
E
SciTegic.value.DoubleValue
21.572

@<SCITEGIC>MOL_PROPERTY
-TS
SciTegic.value.DoubleValue
37.285

@<SCITEGIC>MOL_PROPERTY
U+W
SciTegic.value.DoubleValue
-2.572

@<SCITEGIC>MOL_PROPERTY
U
SciTegic.value.DoubleValue
48.759

@<SCITEGIC>MOL_PROPERTY
W
SciTegic.value.DoubleValue
-51.331

@<SCITEGIC>MOL_PROPERTY
W(PB)
SciTegic.value.DoubleValue
-53.903

@<SCITEGIC>MOL_PROPERTY
W(SA)
SciTegic.value.DoubleValue
2.571

@<SCITEGIC>MOL_PROPERTY
Valence
SciTegic.value.DoubleValue
3.125

@<SCITEGIC>MOL_PROPERTY
Coulomb
SciTegic.value.DoubleValue
44.794

@<SCITEGIC>MOL_PROPERTY
VdW
SciTegic.value.DoubleValue
0.839

@<SCITEGIC>MOL_PROPERTY
VdW6
SciTegic.value.DoubleValue
-7.584

@<SCITEGIC>MOL_PROPERTY
VdW12
SciTegic.value.DoubleValue
8.423

@<SCITEGIC>MOL_PROPERTY
Bond
SciTegic.value.DoubleValue
0.184

@<SCITEGIC>MOL_PROPERTY
Angle
SciTegic.value.DoubleValue
0.663

@<SCITEGIC>MOL_PROPERTY
Pdih
SciTegic.value.DoubleValue
2.279

@<SCITEGIC>MOL_PROPERTY
Idih
SciTegic.value.DoubleValue
0.000

@<SCITEGIC>MOL_PROPERTY
Tether
SciTegic.value.DoubleValue
0.000

@<TRIPOS>MOLECULE
guest-3_vm2.mol2 : vm2 ligand conformer 13
          29          28           1
SMALL
USER_CHARGES
 
@<TRIPOS>ATOM
       1    C1      20.187770   19.493045   19.133174 C.3        1 MOL1        -0.2427
       2    H1      21.066547   18.835889   19.099264 H          1 MOL1         0.0958
       3    H2      19.341918   18.956454   18.683887 H          1 MOL1         0.0958
       4    H3      20.399352   20.371342   18.509576 H          1 MOL1         0.0958
       5    C2      19.868468   19.917702   20.582148 C.3        1 MOL1        -0.1412
       6    H4      19.006960   20.600122   20.580649 H          1 MOL1         0.0947
       7    H5      20.718390   20.480724   20.992661 H          1 MOL1         0.0947
       8    C3      19.566675   18.698926   21.481892 C.3        1 MOL1        -0.1437
       9    H6      18.718449   18.138024   21.065610 H          1 MOL1         0.0947
      10    H7      20.429694   18.018774   21.479043 H          1 MOL1         0.0947
      11    C4      19.246008   19.120135   22.933773 C.3        1 MOL1        -0.1437
      12    H8      18.380403   19.796857   22.936092 H          1 MOL1         0.0947
      13    H9      20.095475   19.685692   23.338363 H          1 MOL1         0.0947
      14    C5      18.948422   17.896614   23.833468 C.3        1 MOL1        -0.1437
      15    H10     18.148319   17.300600   23.373044 H          1 MOL1         0.0947
      16    H11     19.831980   17.244905   23.877306 H          1 MOL1         0.0947
      17    C6      18.511792   18.275648   25.269903 C.3        1 MOL1        -0.1437
      18    H12     18.211348   17.358735   25.795924 H          1 MOL1         0.0947
      19    H13     17.617867   18.913313   25.227068 H          1 MOL1         0.0947
      20    C7      19.618172   18.983007   26.087115 C.3        1 MOL1        -0.1477
      21    H14     20.528291   18.368526   26.086828 H          1 MOL1         0.0947
      22    H15     19.875190   19.943756   25.623646 H          1 MOL1         0.0947
      23    C8      19.169812   19.231435   27.537947 C.3        1 MOL1         0.0145
      24    H16     18.928668   18.278725   28.017148 H          1 MOL1         0.0921
      25    H17     18.272933   19.856754   27.544176 H          1 MOL1         0.0921
      26    N1      20.226881   19.921488   28.375578 N.4        1 MOL1        -0.5969
      27    H18     21.089496   19.369903   28.431950 H          1 MOL1         0.3603
      28    H19     19.908156   20.076986   29.338373 H          1 MOL1         0.3603
      29    H20     20.479116   20.838659   27.992615 H          1 MOL1         0.3603
@<TRIPOS>BOND
    1     1     2    1
    2     1     3    1
    3     1     4    1
    4     1     5    1
    5     5     6    1
    6     5     7    1
    7     5     8    1
    8     8     9    1
    9     8    10    1
   10     8    11    1
   11    11    12    1
   12    11    13    1
   13    11    14    1
   14    14    15    1
   15    14    16    1
   16    14    17    1
   17    17    18    1
   18    17    19    1
   19    17    20    1
   20    20    21    1
   21    20    22    1
   22    20    23    1
   23    23    24    1
   24    23    25    1
   25    23    26    1
   26    26    27    1
   27    26    28    1
   28    26    29    1
@<TRIPOS>SUBSTRUCTURE
       1 MOL1            1 RESIDUE      1      MOL     
@<SCITEGIC>MOL_PROPERTY
VM2 Rank
SciTegic.value.IntegerValue
13

@<SCITEGIC>MOL_PROPERTY
Conf_Id
SciTegic.value.IntegerValue
1676

@<SCITEGIC>MOL_PROPERTY
Probability
SciTegic.value.DoubleValue
1.50

@<SCITEGIC>MOL_PROPERTY
Sum Probability
SciTegic.value.DoubleValue
30.62

@<SCITEGIC>MOL_PROPERTY
Delta G
SciTegic.value.DoubleValue
0.759

@<SCITEGIC>MOL_PROPERTY
G
SciTegic.value.DoubleValue
58.907

@<SCITEGIC>MOL_PROPERTY
E
SciTegic.value.DoubleValue
21.622

@<SCITEGIC>MOL_PROPERTY
-TS
SciTegic.value.DoubleValue
37.285

@<SCITEGIC>MOL_PROPERTY
U+W
SciTegic.value.DoubleValue
-2.523

@<SCITEGIC>MOL_PROPERTY
U
SciTegic.value.DoubleValue
48.759

@<SCITEGIC>MOL_PROPERTY
W
SciTegic.value.DoubleValue
-51.282

@<SCITEGIC>MOL_PROPERTY
W(PB)
SciTegic.value.DoubleValue
-53.848

@<SCITEGIC>MOL_PROPERTY
W(SA)
SciTegic.value.DoubleValue
2.566

@<SCITEGIC>MOL_PROPERTY
Valence
SciTegic.value.DoubleValue
3.125

@<SCITEGIC>MOL_PROPERTY
Coulomb
SciTegic.value.DoubleValue
44.794

@<SCITEGIC>MOL_PROPERTY
VdW
SciTegic.value.DoubleValue
0.839

@<SCITEGIC>MOL_PROPERTY
VdW6
SciTegic.value.DoubleValue
-7.584

@<SCITEGIC>MOL_PROPERTY
VdW12
SciTegic.value.DoubleValue
8.424

@<SCITEGIC>MOL_PROPERTY
Bond
SciTegic.value.DoubleValue
0.184

@<SCITEGIC>MOL_PROPERTY
Angle
SciTegic.value.DoubleValue
0.663

@<SCITEGIC>MOL_PROPERTY
Pdih
SciTegic.value.DoubleValue
2.279

@<SCITEGIC>MOL_PROPERTY
Idih
SciTegic.value.DoubleValue
0.000

@<SCITEGIC>MOL_PROPERTY
Tether
SciTegic.value.DoubleValue
0.000

@<TRIPOS>MOLECULE
guest-3_vm2.mol2 : vm2 ligand conformer 14
          29          28           1
SMALL
USER_CHARGES
 
@<TRIPOS>ATOM
       1    C1      20.466164   19.110447   19.252564 C.3        1 MOL1        -0.2427
       2    H1      21.512340   19.346758   19.486919 H          1 MOL1         0.0958
       3    H2      20.388599   18.027718   19.088434 H          1 MOL1         0.0958
       4    H3      20.209716   19.613336   18.311083 H          1 MOL1         0.0958
       5    C2      19.526503   19.567887   20.388178 C.3        1 MOL1        -0.1412
       6    H4      18.485814   19.349143   20.110662 H          1 MOL1         0.0947
       7    H5      19.600872   20.658051   20.506094 H          1 MOL1         0.0947
       8    C3      19.866283   18.874292   21.725858 C.3        1 MOL1        -0.1437
       9    H6      19.792820   17.784886   21.602572 H          1 MOL1         0.0947
      10    H7      20.907982   19.093891   21.997949 H          1 MOL1         0.0947
      11    C4      18.927295   19.329784   22.865527 C.3        1 MOL1        -0.1437
      12    H8      17.885909   19.110353   22.592056 H          1 MOL1         0.0947
      13    H9      19.001208   20.419221   22.988209 H          1 MOL1         0.0947
      14    C5      19.267395   18.635344   24.203404 C.3        1 MOL1        -0.1437
      15    H10     19.189752   17.546175   24.080789 H          1 MOL1         0.0947
      16    H11     20.311100   18.852602   24.466797 H          1 MOL1         0.0947
      17    C6      18.327186   19.094548   25.343386 C.3        1 MOL1        -0.1437
      18    H12     17.285177   18.913553   25.045425 H          1 MOL1         0.0947
      19    H13     18.419122   20.179508   25.486537 H          1 MOL1         0.0947
      20    C7      18.590404   18.361856   26.682833 C.3        1 MOL1        -0.1477
      21    H14     17.863593   18.702983   27.431957 H          1 MOL1         0.0947
      22    H15     18.410091   17.286975   26.548743 H          1 MOL1         0.0947
      23    C8      20.015999   18.558789   27.236947 C.3        1 MOL1         0.0145
      24    H16     20.747819   18.179776   26.519019 H          1 MOL1         0.0921
      25    H17     20.126224   17.991814   28.165317 H          1 MOL1         0.0921
      26    N1      20.356770   20.005054   27.536304 N.4        1 MOL1        -0.5969
      27    H18     20.300487   20.587146   26.694682 H          1 MOL1         0.3603
      28    H19     21.307377   20.103554   27.909253 H          1 MOL1         0.3603
      29    H20     19.718789   20.410187   28.229148 H          1 MOL1         0.3603
@<TRIPOS>BOND
    1     1     2    1
    2     1     3    1
    3     1     4    1
    4     1     5    1
    5     5     6    1
    6     5     7    1
    7     5     8    1
    8     8     9    1
    9     8    10    1
   10     8    11    1
   11    11    12    1
   12    11    13    1
   13    11    14    1
   14    14    15    1
   15    14    16    1
   16    14    17    1
   17    17    18    1
   18    17    19    1
   19    17    20    1
   20    20    21    1
   21    20    22    1
   22    20    23    1
   23    23    24    1
   24    23    25    1
   25    23    26    1
   26    26    27    1
   27    26    28    1
   28    26    29    1
@<TRIPOS>SUBSTRUCTURE
       1 MOL1            1 RESIDUE      1      MOL     
@<SCITEGIC>MOL_PROPERTY
VM2 Rank
SciTegic.value.IntegerValue
14

@<SCITEGIC>MOL_PROPERTY
Conf_Id
SciTegic.value.IntegerValue
937

@<SCITEGIC>MOL_PROPERTY
Probability
SciTegic.value.DoubleValue
1.35

@<SCITEGIC>MOL_PROPERTY
Sum Probability
SciTegic.value.DoubleValue
31.97

@<SCITEGIC>MOL_PROPERTY
Delta G
SciTegic.value.DoubleValue
0.826

@<SCITEGIC>MOL_PROPERTY
G
SciTegic.value.DoubleValue
58.974

@<SCITEGIC>MOL_PROPERTY
E
SciTegic.value.DoubleValue
21.503

@<SCITEGIC>MOL_PROPERTY
-TS
SciTegic.value.DoubleValue
37.470

@<SCITEGIC>MOL_PROPERTY
U+W
SciTegic.value.DoubleValue
-2.641

@<SCITEGIC>MOL_PROPERTY
U
SciTegic.value.DoubleValue
49.111

@<SCITEGIC>MOL_PROPERTY
W
SciTegic.value.DoubleValue
-51.752

@<SCITEGIC>MOL_PROPERTY
W(PB)
SciTegic.value.DoubleValue
-54.272

@<SCITEGIC>MOL_PROPERTY
W(SA)
SciTegic.value.DoubleValue
2.520

@<SCITEGIC>MOL_PROPERTY
Valence
SciTegic.value.DoubleValue
2.969

@<SCITEGIC>MOL_PROPERTY
Coulomb
SciTegic.value.DoubleValue
45.351

@<SCITEGIC>MOL_PROPERTY
VdW
SciTegic.value.DoubleValue
0.791

@<SCITEGIC>MOL_PROPERTY
VdW6
SciTegic.value.DoubleValue
-8.245

@<SCITEGIC>MOL_PROPERTY
VdW12
SciTegic.value.DoubleValue
9.036

@<SCITEGIC>MOL_PROPERTY
Bond
SciTegic.value.DoubleValue
0.191

@<SCITEGIC>MOL_PROPERTY
Angle
SciTegic.value.DoubleValue
0.634

@<SCITEGIC>MOL_PROPERTY
Pdih
SciTegic.value.DoubleValue
2.143

@<SCITEGIC>MOL_PROPERTY
Idih
SciTegic.value.DoubleValue
0.000

@<SCITEGIC>MOL_PROPERTY
Tether
SciTegic.value.DoubleValue
0.000

@<TRIPOS>MOLECULE
guest-3_vm2.mol2 : vm2 ligand conformer 15
          29          28           1
SMALL
USER_CHARGES
 
@<TRIPOS>ATOM
       1    C1      18.524132   18.732985   19.666738 C.3        1 MOL1        -0.2427
       2    H1      17.696298   18.741233   20.386517 H          1 MOL1         0.0958
       3    H2      18.120431   19.049156   18.696174 H          1 MOL1         0.0958
       4    H3      18.879455   17.699625   19.562119 H          1 MOL1         0.0958
       5    C2      19.669377   19.672317   20.107841 C.3        1 MOL1        -0.1412
       6    H4      19.282256   20.693022   20.234412 H          1 MOL1         0.0947
       7    H5      20.415014   19.723901   19.302158 H          1 MOL1         0.0947
       8    C3      20.373956   19.214845   21.407723 C.3        1 MOL1        -0.1437
       9    H6      20.776636   18.201915   21.269695 H          1 MOL1         0.0947
      10    H7      21.238308   19.869720   21.584704 H          1 MOL1         0.0947
      11    C4      19.453762   19.245786   22.651473 C.3        1 MOL1        -0.1437
      12    H8      18.621837   18.541835   22.518392 H          1 MOL1         0.0947
      13    H9      19.012402   20.246473   22.756194 H          1 MOL1         0.0947
      14    C5      20.222170   18.882678   23.942193 C.3        1 MOL1        -0.1437
      15    H10     20.667029   17.883684   23.834595 H          1 MOL1         0.0947
      16    H11     21.053120   19.587259   24.085513 H          1 MOL1         0.0947
      17    C6      19.304197   18.908608   25.185070 C.3        1 MOL1        -0.1437
      18    H12     18.474958   18.201519   25.043543 H          1 MOL1         0.0947
      19    H13     18.858445   19.907333   25.284435 H          1 MOL1         0.0947
      20    C7      20.075503   18.545799   26.475984 C.3        1 MOL1        -0.1477
      21    H14     20.548089   17.562189   26.352905 H          1 MOL1         0.0947
      22    H15     20.888097   19.265187   26.643818 H          1 MOL1         0.0947
      23    C8      19.166204   18.497667   27.718897 C.3        1 MOL1         0.0145
      24    H16     19.746720   18.156006   28.580184 H          1 MOL1         0.0921
      25    H17     18.352249   17.786938   27.552351 H          1 MOL1         0.0921
      26    N1      18.554697   19.837316   28.079080 N.4        1 MOL1        -0.5969
      27    H18     19.272505   20.544126   28.270095 H          1 MOL1         0.3603
      28    H19     17.965523   19.774064   28.916630 H          1 MOL1         0.3603
      29    H20     17.964965   20.200289   27.323622 H          1 MOL1         0.3603
@<TRIPOS>BOND
    1     1     2    1
    2     1     3    1
    3     1     4    1
    4     1     5    1
    5     5     6    1
    6     5     7    1
    7     5     8    1
    8     8     9    1
    9     8    10    1
   10     8    11    1
   11    11    12    1
   12    11    13    1
   13    11    14    1
   14    14    15    1
   15    14    16    1
   16    14    17    1
   17    17    18    1
   18    17    19    1
   19    17    20    1
   20    20    21    1
   21    20    22    1
   22    20    23    1
   23    23    24    1
   24    23    25    1
   25    23    26    1
   26    26    27    1
   27    26    28    1
   28    26    29    1
@<TRIPOS>SUBSTRUCTURE
       1 MOL1            1 RESIDUE      1      MOL     
@<SCITEGIC>MOL_PROPERTY
VM2 Rank
SciTegic.value.IntegerValue
15

@<SCITEGIC>MOL_PROPERTY
Conf_Id
SciTegic.value.IntegerValue
453

@<SCITEGIC>MOL_PROPERTY
Probability
SciTegic.value.DoubleValue
1.26

@<SCITEGIC>MOL_PROPERTY
Sum Probability
SciTegic.value.DoubleValue
33.23

@<SCITEGIC>MOL_PROPERTY
Delta G
SciTegic.value.DoubleValue
0.866

@<SCITEGIC>MOL_PROPERTY
G
SciTegic.value.DoubleValue
59.014

@<SCITEGIC>MOL_PROPERTY
E
SciTegic.value.DoubleValue
21.615

@<SCITEGIC>MOL_PROPERTY
-TS
SciTegic.value.DoubleValue
37.399

@<SCITEGIC>MOL_PROPERTY
U+W
SciTegic.value.DoubleValue
-2.529

@<SCITEGIC>MOL_PROPERTY
U
SciTegic.value.DoubleValue
48.927

@<SCITEGIC>MOL_PROPERTY
W
SciTegic.value.DoubleValue
-51.456

@<SCITEGIC>MOL_PROPERTY
W(PB)
SciTegic.value.DoubleValue
-53.985

@<SCITEGIC>MOL_PROPERTY
W(SA)
SciTegic.value.DoubleValue
2.528

@<SCITEGIC>MOL_PROPERTY
Valence
SciTegic.value.DoubleValue
3.189

@<SCITEGIC>MOL_PROPERTY
Coulomb
SciTegic.value.DoubleValue
44.764

@<SCITEGIC>MOL_PROPERTY
VdW
SciTegic.value.DoubleValue
0.974

@<SCITEGIC>MOL_PROPERTY
VdW6
SciTegic.value.DoubleValue
-8.049

@<SCITEGIC>MOL_PROPERTY
VdW12
SciTegic.value.DoubleValue
9.023

@<SCITEGIC>MOL_PROPERTY
Bond
SciTegic.value.DoubleValue
0.200

@<SCITEGIC>MOL_PROPERTY
Angle
SciTegic.value.DoubleValue
0.679

@<SCITEGIC>MOL_PROPERTY
Pdih
SciTegic.value.DoubleValue
2.310

@<SCITEGIC>MOL_PROPERTY
Idih
SciTegic.value.DoubleValue
0.000

@<SCITEGIC>MOL_PROPERTY
Tether
SciTegic.value.DoubleValue
0.000

@<TRIPOS>MOLECULE
guest-3_vm2.mol2 : vm2 ligand conformer 16
          29          28           1
SMALL
USER_CHARGES
 
@<TRIPOS>ATOM
       1    C1      20.278832   18.583784   19.240961 C.3        1 MOL1        -0.2427
       2    H1      20.937129   17.730712   19.451112 H          1 MOL1         0.0958
       3    H2      19.775703   18.393622   18.284012 H          1 MOL1         0.0958
       4    H3      20.904976   19.477529   19.120881 H          1 MOL1         0.0958
       5    C2      19.245486   18.778337   20.370642 C.3        1 MOL1        -0.1412
       6    H4      18.612849   17.882662   20.444310 H          1 MOL1         0.0947
       7    H5      18.580924   19.616018   20.116586 H          1 MOL1         0.0947
       8    C3      19.928048   19.047889   21.729818 C.3        1 MOL1        -0.1437
       9    H6      20.592964   18.209141   21.978381 H          1 MOL1         0.0947
      10    H7      20.560943   19.942652   21.650772 H          1 MOL1         0.0947
      11    C4      18.896384   19.243269   22.863623 C.3        1 MOL1        -0.1437
      12    H8      18.263769   18.348257   22.941997 H          1 MOL1         0.0947
      13    H9      18.231680   20.081804   22.613725 H          1 MOL1         0.0947
      14    C5      19.579744   19.513105   24.223045 C.3        1 MOL1        -0.1437
      15    H10     20.247806   18.675208   24.462869 H          1 MOL1         0.0947
      16    H11     20.209260   20.410289   24.144804 H          1 MOL1         0.0947
      17    C6      18.544824   19.706256   25.357088 C.3        1 MOL1        -0.1437
      18    H12     17.928711   18.802512   25.455759 H          1 MOL1         0.0947
      19    H13     17.855703   20.516434   25.081317 H          1 MOL1         0.0947
      20    C7      19.192780   20.054057   26.720697 C.3        1 MOL1        -0.1477
      21    H14     19.733790   21.005528   26.631971 H          1 MOL1         0.0947
      22    H15     18.403384   20.219196   27.465942 H          1 MOL1         0.0947
      23    C8      20.165685   18.979148   27.246228 C.3        1 MOL1         0.0145
      24    H16     20.596091   19.311567   28.194768 H          1 MOL1         0.0921
      25    H17     20.982505   18.839025   26.533626 H          1 MOL1         0.0921
      26    N1      19.512217   17.632155   27.482899 N.4        1 MOL1        -0.5969
      27    H18     18.751995   17.693776   28.168063 H          1 MOL1         0.3603
      28    H19     20.181647   16.940667   27.838083 H          1 MOL1         0.3603
      29    H20     19.112861   17.250514   26.619655 H          1 MOL1         0.3603
@<TRIPOS>BOND
    1     1     2    1
    2     1     3    1
    3     1     4    1
    4     1     5    1
    5     5     6    1
    6     5     7    1
    7     5     8    1
    8     8     9    1
    9     8    10    1
   10     8    11    1
   11    11    12    1
   12    11    13    1
   13    11    14    1
   14    14    15    1
   15    14    16    1
   16    14    17    1
   17    17    18    1
   18    17    19    1
   19    17    20    1
   20    20    21    1
   21    20    22    1
   22    20    23    1
   23    23    24    1
   24    23    25    1
   25    23    26    1
   26    26    27    1
   27    26    28    1
   28    26    29    1
@<TRIPOS>SUBSTRUCTURE
       1 MOL1            1 RESIDUE      1      MOL     
@<SCITEGIC>MOL_PROPERTY
VM2 Rank
SciTegic.value.IntegerValue
16

@<SCITEGIC>MOL_PROPERTY
Conf_Id
SciTegic.value.IntegerValue
197

@<SCITEGIC>MOL_PROPERTY
Probability
SciTegic.value.DoubleValue
1.25

@<SCITEGIC>MOL_PROPERTY
Sum Probability
SciTegic.value.DoubleValue
34.47

@<SCITEGIC>MOL_PROPERTY
Delta G
SciTegic.value.DoubleValue
0.871

@<SCITEGIC>MOL_PROPERTY
G
SciTegic.value.DoubleValue
59.019

@<SCITEGIC>MOL_PROPERTY
E
SciTegic.value.DoubleValue
21.548

@<SCITEGIC>MOL_PROPERTY
-TS
SciTegic.value.DoubleValue
37.471

@<SCITEGIC>MOL_PROPERTY
U+W
SciTegic.value.DoubleValue
-2.597

@<SCITEGIC>MOL_PROPERTY
U
SciTegic.value.DoubleValue
49.111

@<SCITEGIC>MOL_PROPERTY
W
SciTegic.value.DoubleValue
-51.708

@<SCITEGIC>MOL_PROPERTY
W(PB)
SciTegic.value.DoubleValue
-54.236

@<SCITEGIC>MOL_PROPERTY
W(SA)
SciTegic.value.DoubleValue
2.528

@<SCITEGIC>MOL_PROPERTY
Valence
SciTegic.value.DoubleValue
2.968

@<SCITEGIC>MOL_PROPERTY
Coulomb
SciTegic.value.DoubleValue
45.352

@<SCITEGIC>MOL_PROPERTY
VdW
SciTegic.value.DoubleValue
0.791

@<SCITEGIC>MOL_PROPERTY
VdW6
SciTegic.value.DoubleValue
-8.246

@<SCITEGIC>MOL_PROPERTY
VdW12
SciTegic.value.DoubleValue
9.037

@<SCITEGIC>MOL_PROPERTY
Bond
SciTegic.value.DoubleValue
0.191

@<SCITEGIC>MOL_PROPERTY
Angle
SciTegic.value.DoubleValue
0.634

@<SCITEGIC>MOL_PROPERTY
Pdih
SciTegic.value.DoubleValue
2.143

@<SCITEGIC>MOL_PROPERTY
Idih
SciTegic.value.DoubleValue
0.000

@<SCITEGIC>MOL_PROPERTY
Tether
SciTegic.value.DoubleValue
0.000

@<TRIPOS>MOLECULE
guest-3_vm2.mol2 : vm2 ligand conformer 17
          29          28           1
SMALL
USER_CHARGES
 
@<TRIPOS>ATOM
       1    C1      19.642884   17.781312   19.799860 C.3        1 MOL1        -0.2427
       2    H1      19.292227   17.473582   18.806243 H          1 MOL1         0.0958
       3    H2      20.724694   17.600546   19.845063 H          1 MOL1         0.0958
       4    H3      19.154261   17.132578   20.537324 H          1 MOL1         0.0958
       5    C2      19.317604   19.271241   20.050472 C.3        1 MOL1        -0.1412
       6    H4      18.228999   19.420406   20.030139 H          1 MOL1         0.0947
       7    H5      19.725149   19.866778   19.221615 H          1 MOL1         0.0947
       8    C3      19.895133   19.811594   21.380842 C.3        1 MOL1        -0.1437
       9    H6      20.985806   19.678898   21.387995 H          1 MOL1         0.0947
      10    H7      19.715142   20.894636   21.424552 H          1 MOL1         0.0947
      11    C4      19.280124   19.146282   22.635336 C.3        1 MOL1        -0.1437
      12    H8      19.513236   18.073456   22.641455 H          1 MOL1         0.0947
      13    H9      18.185673   19.235619   22.598534 H          1 MOL1         0.0947
      14    C5      19.806623   19.786067   23.939841 C.3        1 MOL1        -0.1437
      15    H10     20.901527   19.699584   23.974442 H          1 MOL1         0.0947
      16    H11     19.571991   20.859548   23.942770 H          1 MOL1         0.0947
      17    C6      19.196436   19.120868   25.194143 C.3        1 MOL1        -0.1437
      18    H12     19.430224   18.047898   25.184319 H          1 MOL1         0.0947
      19    H13     18.101601   19.209395   25.160368 H          1 MOL1         0.0947
      20    C7      19.724960   19.762529   26.498728 C.3        1 MOL1        -0.1477
      21    H14     20.815992   19.652094   26.557459 H          1 MOL1         0.0947
      22    H15     19.519503   20.841184   26.482602 H          1 MOL1         0.0947
      23    C8      19.078377   19.161964   27.761752 C.3        1 MOL1         0.0145
      24    H16     17.991430   19.264546   27.703264 H          1 MOL1         0.0921
      25    H17     19.425893   19.708974   28.642411 H          1 MOL1         0.0921
      26    N1      19.401857   17.696142   27.974026 N.4        1 MOL1        -0.5969
      27    H18     19.069229   17.117945   27.196020 H          1 MOL1         0.3603
      28    H19     18.967013   17.330099   28.828159 H          1 MOL1         0.3603
      29    H20     20.411258   17.537893   28.059931 H          1 MOL1         0.3603
@<TRIPOS>BOND
    1     1     2    1
    2     1     3    1
    3     1     4    1
    4     1     5    1
    5     5     6    1
    6     5     7    1
    7     5     8    1
    8     8     9    1
    9     8    10    1
   10     8    11    1
   11    11    12    1
   12    11    13    1
   13    11    14    1
   14    14    15    1
   15    14    16    1
   16    14    17    1
   17    17    18    1
   18    17    19    1
   19    17    20    1
   20    20    21    1
   21    20    22    1
   22    20    23    1
   23    23    24    1
   24    23    25    1
   25    23    26    1
   26    26    27    1
   27    26    28    1
   28    26    29    1
@<TRIPOS>SUBSTRUCTURE
       1 MOL1            1 RESIDUE      1      MOL     
@<SCITEGIC>MOL_PROPERTY
VM2 Rank
SciTegic.value.IntegerValue
17

@<SCITEGIC>MOL_PROPERTY
Conf_Id
SciTegic.value.IntegerValue
2245

@<SCITEGIC>MOL_PROPERTY
Probability
SciTegic.value.DoubleValue
1.23

@<SCITEGIC>MOL_PROPERTY
Sum Probability
SciTegic.value.DoubleValue
35.70

@<SCITEGIC>MOL_PROPERTY
Delta G
SciTegic.value.DoubleValue
0.878

@<SCITEGIC>MOL_PROPERTY
G
SciTegic.value.DoubleValue
59.026

@<SCITEGIC>MOL_PROPERTY
E
SciTegic.value.DoubleValue
21.627

@<SCITEGIC>MOL_PROPERTY
-TS
SciTegic.value.DoubleValue
37.399

@<SCITEGIC>MOL_PROPERTY
U+W
SciTegic.value.DoubleValue
-2.517

@<SCITEGIC>MOL_PROPERTY
U
SciTegic.value.DoubleValue
48.959

@<SCITEGIC>MOL_PROPERTY
W
SciTegic.value.DoubleValue
-51.476

@<SCITEGIC>MOL_PROPERTY
W(PB)
SciTegic.value.DoubleValue
-53.979

@<SCITEGIC>MOL_PROPERTY
W(SA)
SciTegic.value.DoubleValue
2.503

@<SCITEGIC>MOL_PROPERTY
Valence
SciTegic.value.DoubleValue
3.188

@<SCITEGIC>MOL_PROPERTY
Coulomb
SciTegic.value.DoubleValue
44.796

@<SCITEGIC>MOL_PROPERTY
VdW
SciTegic.value.DoubleValue
0.974

@<SCITEGIC>MOL_PROPERTY
VdW6
SciTegic.value.DoubleValue
-8.050

@<SCITEGIC>MOL_PROPERTY
VdW12
SciTegic.value.DoubleValue
9.023

@<SCITEGIC>MOL_PROPERTY
Bond
SciTegic.value.DoubleValue
0.200

@<SCITEGIC>MOL_PROPERTY
Angle
SciTegic.value.DoubleValue
0.679

@<SCITEGIC>MOL_PROPERTY
Pdih
SciTegic.value.DoubleValue
2.310

@<SCITEGIC>MOL_PROPERTY
Idih
SciTegic.value.DoubleValue
0.000

@<SCITEGIC>MOL_PROPERTY
Tether
SciTegic.value.DoubleValue
0.000

@<TRIPOS>MOLECULE
guest-3_vm2.mol2 : vm2 ligand conformer 18
          29          28           1
SMALL
USER_CHARGES
 
@<TRIPOS>ATOM
       1    C1      21.055256   19.619991   19.868935 C.3        1 MOL1        -0.2427
       2    H1      20.986922   19.971568   18.831259 H          1 MOL1         0.0958
       3    H2      21.640303   20.355603   20.436233 H          1 MOL1         0.0958
       4    H3      21.607542   18.671189   19.867740 H          1 MOL1         0.0958
       5    C2      19.648220   19.441770   20.477555 C.3        1 MOL1        -0.1412
       6    H4      19.076075   18.727427   19.869084 H          1 MOL1         0.0947
       7    H5      19.108574   20.398259   20.435018 H          1 MOL1         0.0947
       8    C3      19.715806   18.946204   21.939043 C.3        1 MOL1        -0.1437
       9    H6      20.253865   17.988969   21.976193 H          1 MOL1         0.0947
      10    H7      20.297328   19.663279   22.532852 H          1 MOL1         0.0947
      11    C4      18.305356   18.771556   22.551648 C.3        1 MOL1        -0.1437
      12    H8      17.712282   18.114283   21.900817 H          1 MOL1         0.0947
      13    H9      17.785695   19.739513   22.568010 H          1 MOL1         0.0947
      14    C5      18.318714   18.165958   23.976715 C.3        1 MOL1        -0.1437
      15    H10     17.281020   17.968351   24.279161 H          1 MOL1         0.0947
      16    H11     18.825106   17.191023   23.957207 H          1 MOL1         0.0947
      17    C6      18.986060   19.080291   25.032067 C.3        1 MOL1        -0.1437
      18    H12     18.511733   20.071259   25.011533 H          1 MOL1         0.0947
      19    H13     20.043685   19.225518   24.779369 H          1 MOL1         0.0947
      20    C7      18.874137   18.485781   26.455916 C.3        1 MOL1        -0.1477
      21    H14     17.816698   18.312000   26.695826 H          1 MOL1         0.0947
      22    H15     19.369398   17.506386   26.494680 H          1 MOL1         0.0947
      23    C8      19.472644   19.408282   27.535231 C.3        1 MOL1         0.0145
      24    H16     19.288000   18.977813   28.523231 H          1 MOL1         0.0921
      25    H17     18.987299   20.387100   27.493430 H          1 MOL1         0.0921
      26    N1      20.967807   19.618166   27.397890 N.4        1 MOL1        -0.5969
      27    H18     21.336431   20.225212   28.138321 H          1 MOL1         0.3603
      28    H19     21.208743   20.055571   26.503034 H          1 MOL1         0.3603
      29    H20     21.482627   18.733089   27.451845 H          1 MOL1         0.3603
@<TRIPOS>BOND
    1     1     2    1
    2     1     3    1
    3     1     4    1
    4     1     5    1
    5     5     6    1
    6     5     7    1
    7     5     8    1
    8     8     9    1
    9     8    10    1
   10     8    11    1
   11    11    12    1
   12    11    13    1
   13    11    14    1
   14    14    15    1
   15    14    16    1
   16    14    17    1
   17    17    18    1
   18    17    19    1
   19    17    20    1
   20    20    21    1
   21    20    22    1
   22    20    23    1
   23    23    24    1
   24    23    25    1
   25    23    26    1
   26    26    27    1
   27    26    28    1
   28    26    29    1
@<TRIPOS>SUBSTRUCTURE
       1 MOL1            1 RESIDUE      1      MOL     
@<SCITEGIC>MOL_PROPERTY
VM2 Rank
SciTegic.value.IntegerValue
18

@<SCITEGIC>MOL_PROPERTY
Conf_Id
SciTegic.value.IntegerValue
2522

@<SCITEGIC>MOL_PROPERTY
Probability
SciTegic.value.DoubleValue
1.15

@<SCITEGIC>MOL_PROPERTY
Sum Probability
SciTegic.value.DoubleValue
36.85

@<SCITEGIC>MOL_PROPERTY
Delta G
SciTegic.value.DoubleValue
0.921

@<SCITEGIC>MOL_PROPERTY
G
SciTegic.value.DoubleValue
59.069

@<SCITEGIC>MOL_PROPERTY
E
SciTegic.value.DoubleValue
21.686

@<SCITEGIC>MOL_PROPERTY
-TS
SciTegic.value.DoubleValue
37.383

@<SCITEGIC>MOL_PROPERTY
U+W
SciTegic.value.DoubleValue
-2.459

@<SCITEGIC>MOL_PROPERTY
U
SciTegic.value.DoubleValue
49.501

@<SCITEGIC>MOL_PROPERTY
W
SciTegic.value.DoubleValue
-51.960

@<SCITEGIC>MOL_PROPERTY
W(PB)
SciTegic.value.DoubleValue
-54.464

@<SCITEGIC>MOL_PROPERTY
W(SA)
SciTegic.value.DoubleValue
2.504

@<SCITEGIC>MOL_PROPERTY
Valence
SciTegic.value.DoubleValue
3.224

@<SCITEGIC>MOL_PROPERTY
Coulomb
SciTegic.value.DoubleValue
45.341

@<SCITEGIC>MOL_PROPERTY
VdW
SciTegic.value.DoubleValue
0.937

@<SCITEGIC>MOL_PROPERTY
VdW6
SciTegic.value.DoubleValue
-8.143

@<SCITEGIC>MOL_PROPERTY
VdW12
SciTegic.value.DoubleValue
9.080

@<SCITEGIC>MOL_PROPERTY
Bond
SciTegic.value.DoubleValue
0.206

@<SCITEGIC>MOL_PROPERTY
Angle
SciTegic.value.DoubleValue
0.695

@<SCITEGIC>MOL_PROPERTY
Pdih
SciTegic.value.DoubleValue
2.322

@<SCITEGIC>MOL_PROPERTY
Idih
SciTegic.value.DoubleValue
0.000

@<SCITEGIC>MOL_PROPERTY
Tether
SciTegic.value.DoubleValue
0.000

@<TRIPOS>MOLECULE
guest-3_vm2.mol2 : vm2 ligand conformer 19
          29          28           1
SMALL
USER_CHARGES
 
@<TRIPOS>ATOM
       1    C1      20.472865   20.111028   19.851829 C.3        1 MOL1        -0.2427
       2    H1      21.424567   19.565193   19.888709 H          1 MOL1         0.0958
       3    H2      20.409665   20.610264   18.876277 H          1 MOL1         0.0958
       4    H3      20.494168   20.892651   20.621290 H          1 MOL1         0.0958
       5    C2      19.275440   19.153826   20.047892 C.3        1 MOL1        -0.1412
       6    H4      19.226232   18.468268   19.190366 H          1 MOL1         0.0947
       7    H5      18.338097   19.727414   20.037249 H          1 MOL1         0.0947
       8    C3      19.362694   18.317771   21.347432 C.3        1 MOL1        -0.1437
       9    H6      18.538137   17.591559   21.350696 H          1 MOL1         0.0947
      10    H7      20.291557   17.730892   21.344347 H          1 MOL1         0.0947
      11    C4      19.288941   19.171543   22.635942 C.3        1 MOL1        -0.1437
      12    H8      18.384744   19.795228   22.611332 H          1 MOL1         0.0947
      13    H9      20.147267   19.854600   22.681137 H          1 MOL1         0.0947
      14    C5      19.274756   18.291833   23.906439 C.3        1 MOL1        -0.1437
      15    H10     18.414866   17.608679   23.870167 H          1 MOL1         0.0947
      16    H11     20.177668   17.665941   23.928846 H          1 MOL1         0.0947
      17    C6      19.204254   19.142459   25.194677 C.3        1 MOL1        -0.1437
      18    H12     18.299940   19.766475   25.173106 H          1 MOL1         0.0947
      19    H13     20.063107   19.826224   25.223948 H          1 MOL1         0.0947
      20    C7      19.190833   18.260020   26.465159 C.3        1 MOL1        -0.1477
      21    H14     18.350927   17.554756   26.409187 H          1 MOL1         0.0947
      22    H15     20.105842   17.654635   26.512730 H          1 MOL1         0.0947
      23    C8      19.050689   19.083160   27.760066 C.3        1 MOL1         0.0145
      24    H16     18.962848   18.405100   28.613332 H          1 MOL1         0.0921
      25    H17     18.143655   19.691828   27.713091 H          1 MOL1         0.0921
      26    N1      20.223529   20.006359   28.025564 N.4        1 MOL1        -0.5969
      27    H18     20.341121   20.695150   27.275907 H          1 MOL1         0.3603
      28    H19     21.105181   19.488697   28.103210 H          1 MOL1         0.3603
      29    H20     20.105301   20.530383   28.899659 H          1 MOL1         0.3603
@<TRIPOS>BOND
    1     1     2    1
    2     1     3    1
    3     1     4    1
    4     1     5    1
    5     5     6    1
    6     5     7    1
    7     5     8    1
    8     8     9    1
    9     8    10    1
   10     8    11    1
   11    11    12    1
   12    11    13    1
   13    11    14    1
   14    14    15    1
   15    14    16    1
   16    14    17    1
   17    17    18    1
   18    17    19    1
   19    17    20    1
   20    20    21    1
   21    20    22    1
   22    20    23    1
   23    23    24    1
   24    23    25    1
   25    23    26    1
   26    26    27    1
   27    26    28    1
   28    26    29    1
@<TRIPOS>SUBSTRUCTURE
       1 MOL1            1 RESIDUE      1      MOL     
@<SCITEGIC>MOL_PROPERTY
VM2 Rank
SciTegic.value.IntegerValue
19

@<SCITEGIC>MOL_PROPERTY
Conf_Id
SciTegic.value.IntegerValue
198

@<SCITEGIC>MOL_PROPERTY
Probability
SciTegic.value.DoubleValue
1.13

@<SCITEGIC>MOL_PROPERTY
Sum Probability
SciTegic.value.DoubleValue
37.99

@<SCITEGIC>MOL_PROPERTY
Delta G
SciTegic.value.DoubleValue
0.927

@<SCITEGIC>MOL_PROPERTY
G
SciTegic.value.DoubleValue
59.075

@<SCITEGIC>MOL_PROPERTY
E
SciTegic.value.DoubleValue
21.677

@<SCITEGIC>MOL_PROPERTY
-TS
SciTegic.value.DoubleValue
37.399

@<SCITEGIC>MOL_PROPERTY
U+W
SciTegic.value.DoubleValue
-2.468

@<SCITEGIC>MOL_PROPERTY
U
SciTegic.value.DoubleValue
48.959

@<SCITEGIC>MOL_PROPERTY
W
SciTegic.value.DoubleValue
-51.426

@<SCITEGIC>MOL_PROPERTY
W(PB)
SciTegic.value.DoubleValue
-53.953

@<SCITEGIC>MOL_PROPERTY
W(SA)
SciTegic.value.DoubleValue
2.526

@<SCITEGIC>MOL_PROPERTY
Valence
SciTegic.value.DoubleValue
3.188

@<SCITEGIC>MOL_PROPERTY
Coulomb
SciTegic.value.DoubleValue
44.796

@<SCITEGIC>MOL_PROPERTY
VdW
SciTegic.value.DoubleValue
0.974

@<SCITEGIC>MOL_PROPERTY
VdW6
SciTegic.value.DoubleValue
-8.049

@<SCITEGIC>MOL_PROPERTY
VdW12
SciTegic.value.DoubleValue
9.023

@<SCITEGIC>MOL_PROPERTY
Bond
SciTegic.value.DoubleValue
0.200

@<SCITEGIC>MOL_PROPERTY
Angle
SciTegic.value.DoubleValue
0.679

@<SCITEGIC>MOL_PROPERTY
Pdih
SciTegic.value.DoubleValue
2.310

@<SCITEGIC>MOL_PROPERTY
Idih
SciTegic.value.DoubleValue
0.000

@<SCITEGIC>MOL_PROPERTY
Tether
SciTegic.value.DoubleValue
0.000

@<TRIPOS>MOLECULE
guest-3_vm2.mol2 : vm2 ligand conformer 20
          29          28           1
SMALL
USER_CHARGES
 
@<TRIPOS>ATOM
       1    C1      19.003864   20.085279   19.696950 C.3        1 MOL1        -0.2427
       2    H1      18.345654   20.571820   20.427358 H          1 MOL1         0.0958
       3    H2      19.932205   20.667111   19.628472 H          1 MOL1         0.0958
       4    H3      18.504946   20.132836   18.720348 H          1 MOL1         0.0958
       5    C2      19.295220   18.617782   20.084332 C.3        1 MOL1        -0.1412
       6    H4      19.853043   18.139988   19.266832 H          1 MOL1         0.0947
       7    H5      18.349842   18.064952   20.175783 H          1 MOL1         0.0947
       8    C3      20.112250   18.477240   21.391281 C.3        1 MOL1        -0.1437
       9    H6      20.368318   17.417778   21.530049 H          1 MOL1         0.0947
      10    H7      21.065010   19.014609   21.287805 H          1 MOL1         0.0947
      11    C4      19.360816   18.983757   22.645641 C.3        1 MOL1        -0.1437
      12    H8      18.386198   18.481576   22.716873 H          1 MOL1         0.0947
      13    H9      19.160241   20.059118   22.552229 H          1 MOL1         0.0947
      14    C5      20.168098   18.730167   23.938794 C.3        1 MOL1        -0.1437
      15    H10     20.367397   17.654531   24.042417 H          1 MOL1         0.0947
      16    H11     21.144398   19.228965   23.864592 H          1 MOL1         0.0947
      17    C6      19.421531   19.239173   25.192442 C.3        1 MOL1        -0.1437
      18    H12     18.444796   18.741518   25.258399 H          1 MOL1         0.0947
      19    H13     19.225170   20.315619   25.090715 H          1 MOL1         0.0947
      20    C7      20.230819   18.983431   26.485753 C.3        1 MOL1        -0.1477
      21    H14     20.406064   17.906884   26.613541 H          1 MOL1         0.0947
      22    H15     21.219229   19.453324   26.395099 H          1 MOL1         0.0947
      23    C8      19.537693   19.544488   27.742240 C.3        1 MOL1         0.0145
      24    H16     19.355975   20.615140   27.615438 H          1 MOL1         0.0921
      25    H17     20.191533   19.409509   28.608162 H          1 MOL1         0.0921
      26    N1      18.213710   18.876682   28.057567 N.4        1 MOL1        -0.5969
      27    H18     18.322942   17.868715   28.210492 H          1 MOL1         0.3603
      28    H19     17.537864   18.996594   27.296578 H          1 MOL1         0.3603
      29    H20     17.784250   19.263926   28.905048 H          1 MOL1         0.3603
@<TRIPOS>BOND
    1     1     2    1
    2     1     3    1
    3     1     4    1
    4     1     5    1
    5     5     6    1
    6     5     7    1
    7     5     8    1
    8     8     9    1
    9     8    10    1
   10     8    11    1
   11    11    12    1
   12    11    13    1
   13    11    14    1
   14    14    15    1
   15    14    16    1
   16    14    17    1
   17    17    18    1
   18    17    19    1
   19    17    20    1
   20    20    21    1
   21    20    22    1
   22    20    23    1
   23    23    24    1
   24    23    25    1
   25    23    26    1
   26    26    27    1
   27    26    28    1
   28    26    29    1
@<TRIPOS>SUBSTRUCTURE
       1 MOL1            1 RESIDUE      1      MOL     
@<SCITEGIC>MOL_PROPERTY
VM2 Rank
SciTegic.value.IntegerValue
20

@<SCITEGIC>MOL_PROPERTY
Conf_Id
SciTegic.value.IntegerValue
232

@<SCITEGIC>MOL_PROPERTY
Probability
SciTegic.value.DoubleValue
1.13

@<SCITEGIC>MOL_PROPERTY
Sum Probability
SciTegic.value.DoubleValue
39.11

@<SCITEGIC>MOL_PROPERTY
Delta G
SciTegic.value.DoubleValue
0.930

@<SCITEGIC>MOL_PROPERTY
G
SciTegic.value.DoubleValue
59.078

@<SCITEGIC>MOL_PROPERTY
E
SciTegic.value.DoubleValue
21.680

@<SCITEGIC>MOL_PROPERTY
-TS
SciTegic.value.DoubleValue
37.399

@<SCITEGIC>MOL_PROPERTY
U+W
SciTegic.value.DoubleValue
-2.465

@<SCITEGIC>MOL_PROPERTY
U
SciTegic.value.DoubleValue
48.927

@<SCITEGIC>MOL_PROPERTY
W
SciTegic.value.DoubleValue
-51.392

@<SCITEGIC>MOL_PROPERTY
W(PB)
SciTegic.value.DoubleValue
-53.929

@<SCITEGIC>MOL_PROPERTY
W(SA)
SciTegic.value.DoubleValue
2.537

@<SCITEGIC>MOL_PROPERTY
Valence
SciTegic.value.DoubleValue
3.189

@<SCITEGIC>MOL_PROPERTY
Coulomb
SciTegic.value.DoubleValue
44.764

@<SCITEGIC>MOL_PROPERTY
VdW
SciTegic.value.DoubleValue
0.974

@<SCITEGIC>MOL_PROPERTY
VdW6
SciTegic.value.DoubleValue
-8.049

@<SCITEGIC>MOL_PROPERTY
VdW12
SciTegic.value.DoubleValue
9.023

@<SCITEGIC>MOL_PROPERTY
Bond
SciTegic.value.DoubleValue
0.200

@<SCITEGIC>MOL_PROPERTY
Angle
SciTegic.value.DoubleValue
0.679

@<SCITEGIC>MOL_PROPERTY
Pdih
SciTegic.value.DoubleValue
2.310

@<SCITEGIC>MOL_PROPERTY
Idih
SciTegic.value.DoubleValue
0.000

@<SCITEGIC>MOL_PROPERTY
Tether
SciTegic.value.DoubleValue
0.000

@<TRIPOS>MOLECULE
guest-3_vm2.mol2 : vm2 ligand conformer 21
          29          28           1
SMALL
USER_CHARGES
 
@<TRIPOS>ATOM
       1    C1      19.337221   19.395087   19.104704 C.3        1 MOL1        -0.2427
       2    H1      18.579342   19.811755   18.428647 H          1 MOL1         0.0958
       3    H2      20.262667   19.969865   18.968933 H          1 MOL1         0.0958
       4    H3      19.529990   18.358908   18.797412 H          1 MOL1         0.0958
       5    C2      18.854869   19.458535   20.569329 C.3        1 MOL1        -0.1412
       6    H4      17.911278   18.903539   20.666833 H          1 MOL1         0.0947
       7    H5      18.638071   20.502249   20.836799 H          1 MOL1         0.0947
       8    C3      19.904347   18.877802   21.542655 C.3        1 MOL1        -0.1437
       9    H6      20.119629   17.835546   21.269272 H          1 MOL1         0.0947
      10    H7      20.846282   19.434342   21.440523 H          1 MOL1         0.0947
      11    C4      19.424857   18.939308   23.010459 C.3        1 MOL1        -0.1437
      12    H8      18.485125   18.379232   23.112557 H          1 MOL1         0.0947
      13    H9      19.205540   19.982639   23.272317 H          1 MOL1         0.0947
      14    C5      20.480146   18.360717   23.983332 C.3        1 MOL1        -0.1437
      15    H10     20.742740   17.343142   23.662470 H          1 MOL1         0.0947
      16    H11     21.404550   18.951479   23.921874 H          1 MOL1         0.0947
      17    C6      19.998604   18.302123   25.453676 C.3        1 MOL1        -0.1437
      18    H12     20.760750   17.780508   26.049171 H          1 MOL1         0.0947
      19    H13     19.087815   17.691315   25.512534 H          1 MOL1         0.0947
      20    C7      19.743644   19.697915   26.075253 C.3        1 MOL1        -0.1477
      21    H14     20.630143   20.329163   25.928907 H          1 MOL1         0.0947
      22    H15     18.911511   20.199421   25.565262 H          1 MOL1         0.0947
      23    C8      19.439378   19.626174   27.583854 C.3        1 MOL1         0.0145
      24    H16     19.344720   20.639306   27.984023 H          1 MOL1         0.0921
      25    H17     20.264013   19.129913   28.102584 H          1 MOL1         0.0921
      26    N1      18.160933   18.880340   27.911739 N.4        1 MOL1        -0.5969
      27    H18     17.981193   18.858406   28.921588 H          1 MOL1         0.3603
      28    H19     18.197387   17.907436   27.591729 H          1 MOL1         0.3603
      29    H20     17.343416   19.314489   27.470831 H          1 MOL1         0.3603
@<TRIPOS>BOND
    1     1     2    1
    2     1     3    1
    3     1     4    1
    4     1     5    1
    5     5     6    1
    6     5     7    1
    7     5     8    1
    8     8     9    1
    9     8    10    1
   10     8    11    1
   11    11    12    1
   12    11    13    1
   13    11    14    1
   14    14    15    1
   15    14    16    1
   16    14    17    1
   17    17    18    1
   18    17    19    1
   19    17    20    1
   20    20    21    1
   21    20    22    1
   22    20    23    1
   23    23    24    1
   24    23    25    1
   25    23    26    1
   26    26    27    1
   27    26    28    1
   28    26    29    1
@<TRIPOS>SUBSTRUCTURE
       1 MOL1            1 RESIDUE      1      MOL     
@<SCITEGIC>MOL_PROPERTY
VM2 Rank
SciTegic.value.IntegerValue
21

@<SCITEGIC>MOL_PROPERTY
Conf_Id
SciTegic.value.IntegerValue
1376

@<SCITEGIC>MOL_PROPERTY
Probability
SciTegic.value.DoubleValue
1.13

@<SCITEGIC>MOL_PROPERTY
Sum Probability
SciTegic.value.DoubleValue
40.24

@<SCITEGIC>MOL_PROPERTY
Delta G
SciTegic.value.DoubleValue
0.931

@<SCITEGIC>MOL_PROPERTY
G
SciTegic.value.DoubleValue
59.079

@<SCITEGIC>MOL_PROPERTY
E
SciTegic.value.DoubleValue
21.678

@<SCITEGIC>MOL_PROPERTY
-TS
SciTegic.value.DoubleValue
37.400

@<SCITEGIC>MOL_PROPERTY
U+W
SciTegic.value.DoubleValue
-2.466

@<SCITEGIC>MOL_PROPERTY
U
SciTegic.value.DoubleValue
49.184

@<SCITEGIC>MOL_PROPERTY
W
SciTegic.value.DoubleValue
-51.651

@<SCITEGIC>MOL_PROPERTY
W(PB)
SciTegic.value.DoubleValue
-54.196

@<SCITEGIC>MOL_PROPERTY
W(SA)
SciTegic.value.DoubleValue
2.546

@<SCITEGIC>MOL_PROPERTY
Valence
SciTegic.value.DoubleValue
3.217

@<SCITEGIC>MOL_PROPERTY
Coulomb
SciTegic.value.DoubleValue
45.039

@<SCITEGIC>MOL_PROPERTY
VdW
SciTegic.value.DoubleValue
0.928

@<SCITEGIC>MOL_PROPERTY
VdW6
SciTegic.value.DoubleValue
-8.123

@<SCITEGIC>MOL_PROPERTY
VdW12
SciTegic.value.DoubleValue
9.051

@<SCITEGIC>MOL_PROPERTY
Bond
SciTegic.value.DoubleValue
0.205

@<SCITEGIC>MOL_PROPERTY
Angle
SciTegic.value.DoubleValue
0.676

@<SCITEGIC>MOL_PROPERTY
Pdih
SciTegic.value.DoubleValue
2.337

@<SCITEGIC>MOL_PROPERTY
Idih
SciTegic.value.DoubleValue
0.000

@<SCITEGIC>MOL_PROPERTY
Tether
SciTegic.value.DoubleValue
0.000

@<TRIPOS>MOLECULE
guest-3_vm2.mol2 : vm2 ligand conformer 22
          29          28           1
SMALL
USER_CHARGES
 
@<TRIPOS>ATOM
       1    C1      20.427785   18.039060   19.669113 C.3        1 MOL1        -0.2427
       2    H1      20.753095   17.125916   20.184456 H          1 MOL1         0.0958
       3    H2      20.100695   17.758042   18.659615 H          1 MOL1         0.0958
       4    H3      21.296125   18.703363   19.569433 H          1 MOL1         0.0958
       5    C2      19.284231   18.733040   20.438923 C.3        1 MOL1        -0.1412
       6    H4      18.419052   18.057515   20.493945 H          1 MOL1         0.0947
       7    H5      18.957437   19.622305   19.881889 H          1 MOL1         0.0947
       8    C3      19.718892   19.140162   21.864205 C.3        1 MOL1        -0.1437
       9    H6      20.051408   18.245110   22.405863 H          1 MOL1         0.0947
      10    H7      20.582289   19.817000   21.804042 H          1 MOL1         0.0947
      11    C4      18.571490   19.832174   22.638579 C.3        1 MOL1        -0.1437
      12    H8      17.726950   19.137990   22.748588 H          1 MOL1         0.0947
      13    H9      18.199434   20.678607   22.044904 H          1 MOL1         0.0947
      14    C5      18.994061   20.359766   24.031688 C.3        1 MOL1        -0.1437
      15    H10     19.826643   21.067913   23.919285 H          1 MOL1         0.0947
      16    H11     18.157104   20.932434   24.454688 H          1 MOL1         0.0947
      17    C6      19.390185   19.240011   25.023758 C.3        1 MOL1        -0.1437
      18    H12     20.277430   18.708853   24.654875 H          1 MOL1         0.0947
      19    H13     18.576867   18.504581   25.082592 H          1 MOL1         0.0947
      20    C7      19.691179   19.804835   26.432122 C.3        1 MOL1        -0.1477
      21    H14     20.476459   20.568818   26.356944 H          1 MOL1         0.0947
      22    H15     18.801797   20.307889   26.834506 H          1 MOL1         0.0947
      23    C8      20.159282   18.719777   27.420817 C.3        1 MOL1         0.0145
      24    H16     20.435312   19.188017   28.369554 H          1 MOL1         0.0921
      25    H17     21.041716   18.213112   27.020830 H          1 MOL1         0.0921
      26    N1      19.106895   17.669176   27.715797 N.4        1 MOL1        -0.5969
      27    H18     18.258737   18.082642   28.117021 H          1 MOL1         0.3603
      28    H19     19.444986   16.969055   28.385220 H          1 MOL1         0.3603
      29    H20     18.827042   17.164656   26.868822 H          1 MOL1         0.3603
@<TRIPOS>BOND
    1     1     2    1
    2     1     3    1
    3     1     4    1
    4     1     5    1
    5     5     6    1
    6     5     7    1
    7     5     8    1
    8     8     9    1
    9     8    10    1
   10     8    11    1
   11    11    12    1
   12    11    13    1
   13    11    14    1
   14    14    15    1
   15    14    16    1
   16    14    17    1
   17    17    18    1
   18    17    19    1
   19    17    20    1
   20    20    21    1
   21    20    22    1
   22    20    23    1
   23    23    24    1
   24    23    25    1
   25    23    26    1
   26    26    27    1
   27    26    28    1
   28    26    29    1
@<TRIPOS>SUBSTRUCTURE
       1 MOL1            1 RESIDUE      1      MOL     
@<SCITEGIC>MOL_PROPERTY
VM2 Rank
SciTegic.value.IntegerValue
22

@<SCITEGIC>MOL_PROPERTY
Conf_Id
SciTegic.value.IntegerValue
1041

@<SCITEGIC>MOL_PROPERTY
Probability
SciTegic.value.DoubleValue
1.12

@<SCITEGIC>MOL_PROPERTY
Sum Probability
SciTegic.value.DoubleValue
41.36

@<SCITEGIC>MOL_PROPERTY
Delta G
SciTegic.value.DoubleValue
0.934

@<SCITEGIC>MOL_PROPERTY
G
SciTegic.value.DoubleValue
59.082

@<SCITEGIC>MOL_PROPERTY
E
SciTegic.value.DoubleValue
21.690

@<SCITEGIC>MOL_PROPERTY
-TS
SciTegic.value.DoubleValue
37.392

@<SCITEGIC>MOL_PROPERTY
U+W
SciTegic.value.DoubleValue
-2.454

@<SCITEGIC>MOL_PROPERTY
U
SciTegic.value.DoubleValue
49.241

@<SCITEGIC>MOL_PROPERTY
W
SciTegic.value.DoubleValue
-51.695

@<SCITEGIC>MOL_PROPERTY
W(PB)
SciTegic.value.DoubleValue
-54.217

@<SCITEGIC>MOL_PROPERTY
W(SA)
SciTegic.value.DoubleValue
2.522

@<SCITEGIC>MOL_PROPERTY
Valence
SciTegic.value.DoubleValue
3.225

@<SCITEGIC>MOL_PROPERTY
Coulomb
SciTegic.value.DoubleValue
45.075

@<SCITEGIC>MOL_PROPERTY
VdW
SciTegic.value.DoubleValue
0.940

@<SCITEGIC>MOL_PROPERTY
VdW6
SciTegic.value.DoubleValue
-8.132

@<SCITEGIC>MOL_PROPERTY
VdW12
SciTegic.value.DoubleValue
9.073

@<SCITEGIC>MOL_PROPERTY
Bond
SciTegic.value.DoubleValue
0.205

@<SCITEGIC>MOL_PROPERTY
Angle
SciTegic.value.DoubleValue
0.698

@<SCITEGIC>MOL_PROPERTY
Pdih
SciTegic.value.DoubleValue
2.323

@<SCITEGIC>MOL_PROPERTY
Idih
SciTegic.value.DoubleValue
0.000

@<SCITEGIC>MOL_PROPERTY
Tether
SciTegic.value.DoubleValue
0.000

@<TRIPOS>MOLECULE
guest-3_vm2.mol2 : vm2 ligand conformer 23
          29          28           1
SMALL
USER_CHARGES
 
@<TRIPOS>ATOM
       1    C1      19.226121   19.080931   19.097689 C.3        1 MOL1        -0.2427
       2    H1      19.586094   18.058039   18.926325 H          1 MOL1         0.0958
       3    H2      18.384411   19.260682   18.416323 H          1 MOL1         0.0958
       4    H3      20.031849   19.776541   18.829017 H          1 MOL1         0.0958
       5    C2      18.790653   19.276976   20.565254 C.3        1 MOL1        -0.1412
       6    H4      17.962142   18.592122   20.794220 H          1 MOL1         0.0947
       7    H5      18.404567   20.297395   20.697822 H          1 MOL1         0.0947
       8    C3      19.958104   19.029687   21.546034 C.3        1 MOL1        -0.1437
       9    H6      20.342010   18.009295   21.408821 H          1 MOL1         0.0947
      10    H7      20.784590   19.714603   21.311109 H          1 MOL1         0.0947
      11    C4      19.526048   19.225351   23.016812 C.3        1 MOL1        -0.1437
      12    H8      18.696012   18.542480   23.240284 H          1 MOL1         0.0947
      13    H9      19.145933   20.247056   23.154062 H          1 MOL1         0.0947
      14    C5      20.696739   18.973004   23.996961 C.3        1 MOL1        -0.1437
      15    H10     21.045073   17.935493   23.899332 H          1 MOL1         0.0947
      16    H11     21.545065   19.610990   23.712911 H          1 MOL1         0.0947
      17    C6      20.338555   19.263149   25.475047 C.3        1 MOL1        -0.1437
      18    H12     20.013509   20.307794   25.570714 H          1 MOL1         0.0947
      19    H13     21.250745   19.165637   26.079998 H          1 MOL1         0.0947
      20    C7      19.254146   18.314774   26.044457 C.3        1 MOL1        -0.1477
      21    H14     18.298953   18.468626   25.526786 H          1 MOL1         0.0947
      22    H15     19.548616   17.272982   25.860802 H          1 MOL1         0.0947
      23    C8      19.041656   18.502052   27.558844 C.3        1 MOL1         0.0145
      24    H16     19.987605   18.348500   28.085134 H          1 MOL1         0.0921
      25    H17     18.325530   17.758877   27.919933 H          1 MOL1         0.0921
      26    N1      18.511977   19.872075   27.933902 N.4        1 MOL1        -0.5969
      27    H18     19.156455   20.617414   27.652133 H          1 MOL1         0.3603
      28    H19     18.371928   19.962140   28.946254 H          1 MOL1         0.3603
      29    H20     17.609545   20.066327   27.487696 H          1 MOL1         0.3603
@<TRIPOS>BOND
    1     1     2    1
    2     1     3    1
    3     1     4    1
    4     1     5    1
    5     5     6    1
    6     5     7    1
    7     5     8    1
    8     8     9    1
    9     8    10    1
   10     8    11    1
   11    11    12    1
   12    11    13    1
   13    11    14    1
   14    14    15    1
   15    14    16    1
   16    14    17    1
   17    17    18    1
   18    17    19    1
   19    17    20    1
   20    20    21    1
   21    20    22    1
   22    20    23    1
   23    23    24    1
   24    23    25    1
   25    23    26    1
   26    26    27    1
   27    26    28    1
   28    26    29    1
@<TRIPOS>SUBSTRUCTURE
       1 MOL1            1 RESIDUE      1      MOL     
@<SCITEGIC>MOL_PROPERTY
VM2 Rank
SciTegic.value.IntegerValue
23

@<SCITEGIC>MOL_PROPERTY
Conf_Id
SciTegic.value.IntegerValue
1227

@<SCITEGIC>MOL_PROPERTY
Probability
SciTegic.value.DoubleValue
1.09

@<SCITEGIC>MOL_PROPERTY
Sum Probability
SciTegic.value.DoubleValue
42.45

@<SCITEGIC>MOL_PROPERTY
Delta G
SciTegic.value.DoubleValue
0.952

@<SCITEGIC>MOL_PROPERTY
G
SciTegic.value.DoubleValue
59.100

@<SCITEGIC>MOL_PROPERTY
E
SciTegic.value.DoubleValue
21.700

@<SCITEGIC>MOL_PROPERTY
-TS
SciTegic.value.DoubleValue
37.400

@<SCITEGIC>MOL_PROPERTY
U+W
SciTegic.value.DoubleValue
-2.444

@<SCITEGIC>MOL_PROPERTY
U
SciTegic.value.DoubleValue
49.184

@<SCITEGIC>MOL_PROPERTY
W
SciTegic.value.DoubleValue
-51.629

@<SCITEGIC>MOL_PROPERTY
W(PB)
SciTegic.value.DoubleValue
-54.168

@<SCITEGIC>MOL_PROPERTY
W(SA)
SciTegic.value.DoubleValue
2.539

@<SCITEGIC>MOL_PROPERTY
Valence
SciTegic.value.DoubleValue
3.217

@<SCITEGIC>MOL_PROPERTY
Coulomb
SciTegic.value.DoubleValue
45.039

@<SCITEGIC>MOL_PROPERTY
VdW
SciTegic.value.DoubleValue
0.928

@<SCITEGIC>MOL_PROPERTY
VdW6
SciTegic.value.DoubleValue
-8.123

@<SCITEGIC>MOL_PROPERTY
VdW12
SciTegic.value.DoubleValue
9.051

@<SCITEGIC>MOL_PROPERTY
Bond
SciTegic.value.DoubleValue
0.205

@<SCITEGIC>MOL_PROPERTY
Angle
SciTegic.value.DoubleValue
0.675

@<SCITEGIC>MOL_PROPERTY
Pdih
SciTegic.value.DoubleValue
2.337

@<SCITEGIC>MOL_PROPERTY
Idih
SciTegic.value.DoubleValue
0.000

@<SCITEGIC>MOL_PROPERTY
Tether
SciTegic.value.DoubleValue
0.000

@<TRIPOS>MOLECULE
guest-3_vm2.mol2 : vm2 ligand conformer 24
          29          28           1
SMALL
USER_CHARGES
 
@<TRIPOS>ATOM
       1    C1      20.084576   19.511945   19.224379 C.3        1 MOL1        -0.2427
       2    H1      19.399720   18.912297   18.610679 H          1 MOL1         0.0958
       3    H2      20.170528   20.503748   18.761796 H          1 MOL1         0.0958
       4    H3      21.074678   19.038642   19.193857 H          1 MOL1         0.0958
       5    C2      19.571331   19.629996   20.675119 C.3        1 MOL1        -0.1412
       6    H4      18.594098   20.132676   20.675943 H          1 MOL1         0.0947
       7    H5      20.259063   20.268657   21.244997 H          1 MOL1         0.0947
       8    C3      19.446250   18.243579   21.349791 C.3        1 MOL1        -0.1437
       9    H6      18.818968   17.596474   20.721239 H          1 MOL1         0.0947
      10    H7      20.433659   17.763951   21.396680 H          1 MOL1         0.0947
      11    C4      18.827560   18.297666   22.768221 C.3        1 MOL1        -0.1437
      12    H8      18.667910   17.267932   23.116711 H          1 MOL1         0.0947
      13    H9      17.833906   18.763946   22.718281 H          1 MOL1         0.0947
      14    C5      19.705717   19.047738   23.798407 C.3        1 MOL1        -0.1437
      15    H10     20.714897   18.613252   23.805751 H          1 MOL1         0.0947
      16    H11     19.812648   20.099874   23.503894 H          1 MOL1         0.0947
      17    C6      19.104867   18.979807   25.220590 C.3        1 MOL1        -0.1437
      18    H12     18.998629   17.928274   25.518885 H          1 MOL1         0.0947
      19    H13     18.095007   19.413141   25.212891 H          1 MOL1         0.0947
      20    C7      19.980438   19.732286   26.250291 C.3        1 MOL1        -0.1477
      21    H14     20.983702   19.287273   26.287958 H          1 MOL1         0.0947
      22    H15     20.111165   20.773019   25.925100 H          1 MOL1         0.0947
      23    C8      19.366243   19.736712   27.663341 C.3        1 MOL1         0.0145
      24    H16     18.364481   20.173313   27.628027 H          1 MOL1         0.0921
      25    H17     19.983029   20.350783   28.325185 H          1 MOL1         0.0921
      26    N1      19.257018   18.358270   28.284861 N.4        1 MOL1        -0.5969
      27    H18     18.659236   17.738259   27.729435 H          1 MOL1         0.3603
      28    H19     18.856036   18.396724   29.228443 H          1 MOL1         0.3603
      29    H20     20.172645   17.904088   28.366422 H          1 MOL1         0.3603
@<TRIPOS>BOND
    1     1     2    1
    2     1     3    1
    3     1     4    1
    4     1     5    1
    5     5     6    1
    6     5     7    1
    7     5     8    1
    8     8     9    1
    9     8    10    1
   10     8    11    1
   11    11    12    1
   12    11    13    1
   13    11    14    1
   14    14    15    1
   15    14    16    1
   16    14    17    1
   17    17    18    1
   18    17    19    1
   19    17    20    1
   20    20    21    1
   21    20    22    1
   22    20    23    1
   23    23    24    1
   24    23    25    1
   25    23    26    1
   26    26    27    1
   27    26    28    1
   28    26    29    1
@<TRIPOS>SUBSTRUCTURE
       1 MOL1            1 RESIDUE      1      MOL     
@<SCITEGIC>MOL_PROPERTY
VM2 Rank
SciTegic.value.IntegerValue
24

@<SCITEGIC>MOL_PROPERTY
Conf_Id
SciTegic.value.IntegerValue
1882

@<SCITEGIC>MOL_PROPERTY
Probability
SciTegic.value.DoubleValue
1.07

@<SCITEGIC>MOL_PROPERTY
Sum Probability
SciTegic.value.DoubleValue
43.52

@<SCITEGIC>MOL_PROPERTY
Delta G
SciTegic.value.DoubleValue
0.963

@<SCITEGIC>MOL_PROPERTY
G
SciTegic.value.DoubleValue
59.111

@<SCITEGIC>MOL_PROPERTY
E
SciTegic.value.DoubleValue
21.724

@<SCITEGIC>MOL_PROPERTY
-TS
SciTegic.value.DoubleValue
37.387

@<SCITEGIC>MOL_PROPERTY
U+W
SciTegic.value.DoubleValue
-2.421

@<SCITEGIC>MOL_PROPERTY
U
SciTegic.value.DoubleValue
49.031

@<SCITEGIC>MOL_PROPERTY
W
SciTegic.value.DoubleValue
-51.452

@<SCITEGIC>MOL_PROPERTY
W(PB)
SciTegic.value.DoubleValue
-53.971

@<SCITEGIC>MOL_PROPERTY
W(SA)
SciTegic.value.DoubleValue
2.520

@<SCITEGIC>MOL_PROPERTY
Valence
SciTegic.value.DoubleValue
3.227

@<SCITEGIC>MOL_PROPERTY
Coulomb
SciTegic.value.DoubleValue
44.840

@<SCITEGIC>MOL_PROPERTY
VdW
SciTegic.value.DoubleValue
0.965

@<SCITEGIC>MOL_PROPERTY
VdW6
SciTegic.value.DoubleValue
-8.093

@<SCITEGIC>MOL_PROPERTY
VdW12
SciTegic.value.DoubleValue
9.058

@<SCITEGIC>MOL_PROPERTY
Bond
SciTegic.value.DoubleValue
0.204

@<SCITEGIC>MOL_PROPERTY
Angle
SciTegic.value.DoubleValue
0.702

@<SCITEGIC>MOL_PROPERTY
Pdih
SciTegic.value.DoubleValue
2.321

@<SCITEGIC>MOL_PROPERTY
Idih
SciTegic.value.DoubleValue
0.000

@<SCITEGIC>MOL_PROPERTY
Tether
SciTegic.value.DoubleValue
0.000

@<TRIPOS>MOLECULE
guest-3_vm2.mol2 : vm2 ligand conformer 25
          29          28           1
SMALL
USER_CHARGES
 
@<TRIPOS>ATOM
       1    C1      20.408703   19.116164   19.295962 C.3        1 MOL1        -0.2427
       2    H1      20.321561   18.038529   19.105271 H          1 MOL1         0.0958
       3    H2      19.665709   19.634458   18.675828 H          1 MOL1         0.0958
       4    H3      21.405355   19.437395   18.966513 H          1 MOL1         0.0958
       5    C2      20.201142   19.432681   20.792204 C.3        1 MOL1        -0.1412
       6    H4      20.323035   20.512430   20.956374 H          1 MOL1         0.0947
       7    H5      20.985500   18.930980   21.374191 H          1 MOL1         0.0947
       8    C3      18.803534   18.984450   21.280830 C.3        1 MOL1        -0.1437
       9    H6      18.038166   19.435276   20.634091 H          1 MOL1         0.0947
      10    H7      18.702170   17.896469   21.165751 H          1 MOL1         0.0947
      11    C4      18.502332   19.381668   22.746821 C.3        1 MOL1        -0.1437
      12    H8      17.455043   19.131802   22.966056 H          1 MOL1         0.0947
      13    H9      18.589158   20.471369   22.857542 H          1 MOL1         0.0947
      14    C5      19.414898   18.676867   23.779052 C.3        1 MOL1        -0.1437
      15    H10     19.367597   17.589565   23.628089 H          1 MOL1         0.0947
      16    H11     20.459371   18.976376   23.622295 H          1 MOL1         0.0947
      17    C6      19.005639   19.014859   25.230420 C.3        1 MOL1        -0.1437
      18    H12     17.963687   18.709021   25.398998 H          1 MOL1         0.0947
      19    H13     19.045866   20.103029   25.372920 H          1 MOL1         0.0947
      20    C7      19.920628   18.314671   26.262718 C.3        1 MOL1        -0.1477
      21    H14     19.903105   17.230655   26.087858 H          1 MOL1         0.0947
      22    H15     20.960998   18.637783   26.124076 H          1 MOL1         0.0947
      23    C8      19.488945   18.580851   27.717622 C.3        1 MOL1         0.0145
      24    H16     20.117316   17.996499   28.395286 H          1 MOL1         0.0921
      25    H17     18.451374   18.265697   27.857339 H          1 MOL1         0.0921
      26    N1      19.598179   20.035790   28.129371 N.4        1 MOL1        -0.5969
      27    H18     20.558246   20.384924   28.041745 H          1 MOL1         0.3603
      28    H19     19.315241   20.177563   29.105312 H          1 MOL1         0.3603
      29    H20     19.002367   20.638569   27.553245 H          1 MOL1         0.3603
@<TRIPOS>BOND
    1     1     2    1
    2     1     3    1
    3     1     4    1
    4     1     5    1
    5     5     6    1
    6     5     7    1
    7     5     8    1
    8     8     9    1
    9     8    10    1
   10     8    11    1
   11    11    12    1
   12    11    13    1
   13    11    14    1
   14    14    15    1
   15    14    16    1
   16    14    17    1
   17    17    18    1
   18    17    19    1
   19    17    20    1
   20    20    21    1
   21    20    22    1
   22    20    23    1
   23    23    24    1
   24    23    25    1
   25    23    26    1
   26    26    27    1
   27    26    28    1
   28    26    29    1
@<TRIPOS>SUBSTRUCTURE
       1 MOL1            1 RESIDUE      1      MOL     
@<SCITEGIC>MOL_PROPERTY
VM2 Rank
SciTegic.value.IntegerValue
25

@<SCITEGIC>MOL_PROPERTY
Conf_Id
SciTegic.value.IntegerValue
2284

@<SCITEGIC>MOL_PROPERTY
Probability
SciTegic.value.DoubleValue
1.07

@<SCITEGIC>MOL_PROPERTY
Sum Probability
SciTegic.value.DoubleValue
44.59

@<SCITEGIC>MOL_PROPERTY
Delta G
SciTegic.value.DoubleValue
0.964

@<SCITEGIC>MOL_PROPERTY
G
SciTegic.value.DoubleValue
59.112

@<SCITEGIC>MOL_PROPERTY
E
SciTegic.value.DoubleValue
21.723

@<SCITEGIC>MOL_PROPERTY
-TS
SciTegic.value.DoubleValue
37.388

@<SCITEGIC>MOL_PROPERTY
U+W
SciTegic.value.DoubleValue
-2.421

@<SCITEGIC>MOL_PROPERTY
U
SciTegic.value.DoubleValue
49.093

@<SCITEGIC>MOL_PROPERTY
W
SciTegic.value.DoubleValue
-51.513

@<SCITEGIC>MOL_PROPERTY
W(PB)
SciTegic.value.DoubleValue
-54.035

@<SCITEGIC>MOL_PROPERTY
W(SA)
SciTegic.value.DoubleValue
2.521

@<SCITEGIC>MOL_PROPERTY
Valence
SciTegic.value.DoubleValue
3.228

@<SCITEGIC>MOL_PROPERTY
Coulomb
SciTegic.value.DoubleValue
44.904

@<SCITEGIC>MOL_PROPERTY
VdW
SciTegic.value.DoubleValue
0.961

@<SCITEGIC>MOL_PROPERTY
VdW6
SciTegic.value.DoubleValue
-8.094

@<SCITEGIC>MOL_PROPERTY
VdW12
SciTegic.value.DoubleValue
9.056

@<SCITEGIC>MOL_PROPERTY
Bond
SciTegic.value.DoubleValue
0.204

@<SCITEGIC>MOL_PROPERTY
Angle
SciTegic.value.DoubleValue
0.702

@<SCITEGIC>MOL_PROPERTY
Pdih
SciTegic.value.DoubleValue
2.322

@<SCITEGIC>MOL_PROPERTY
Idih
SciTegic.value.DoubleValue
0.000

@<SCITEGIC>MOL_PROPERTY
Tether
SciTegic.value.DoubleValue
0.000

@<TRIPOS>MOLECULE
guest-3_vm2.mol2 : vm2 ligand conformer 26
          29          28           1
SMALL
USER_CHARGES
 
@<TRIPOS>ATOM
       1    C1      20.919205   19.422054   19.699479 C.3        1 MOL1        -0.2427
       2    H1      20.856931   19.886273   18.706672 H          1 MOL1         0.0958
       3    H2      21.740819   19.903465   20.245766 H          1 MOL1         0.0958
       4    H3      21.174497   18.363305   19.561173 H          1 MOL1         0.0958
       5    C2      19.583737   19.575934   20.457619 C.3        1 MOL1        -0.1412
       6    H4      18.776640   19.115555   19.870664 H          1 MOL1         0.0947
       7    H5      19.338554   20.643144   20.551661 H          1 MOL1         0.0947
       8    C3      19.644076   18.929688   21.859344 C.3        1 MOL1        -0.1437
       9    H6      19.887292   17.862828   21.760148 H          1 MOL1         0.0947
      10    H7      20.459352   19.391665   22.431168 H          1 MOL1         0.0947
      11    C4      18.306695   19.087088   22.622034 C.3        1 MOL1        -0.1437
      12    H8      17.492188   18.689776   22.000708 H          1 MOL1         0.0947
      13    H9      18.088327   20.153498   22.771460 H          1 MOL1         0.0947
      14    C5      18.282048   18.356373   23.986991 C.3        1 MOL1        -0.1437
      15    H10     17.265552   18.423906   24.398755 H          1 MOL1         0.0947
      16    H11     18.482692   17.286849   23.834805 H          1 MOL1         0.0947
      17    C6      19.281847   18.934703   25.016991 C.3        1 MOL1        -0.1437
      18    H12     19.113936   20.015297   25.116619 H          1 MOL1         0.0947
      19    H13     20.310406   18.801357   24.656858 H          1 MOL1         0.0947
      20    C7      19.139371   18.251009   26.397344 C.3        1 MOL1        -0.1477
      21    H14     18.126304   18.405834   26.791932 H          1 MOL1         0.0947
      22    H15     19.268102   17.166664   26.280680 H          1 MOL1         0.0947
      23    C8      20.172823   18.757528   27.421747 C.3        1 MOL1         0.0145
      24    H16     21.182741   18.610000   27.029715 H          1 MOL1         0.0921
      25    H17     20.078519   18.182583   28.346997 H          1 MOL1         0.0921
      26    N1      20.014197   20.223623   27.773451 N.4        1 MOL1        -0.5969
      27    H18     19.089622   20.421726   28.169966 H          1 MOL1         0.3603
      28    H19     20.126946   20.825048   26.951379 H          1 MOL1         0.3603
      29    H20     20.708558   20.526473   28.465367 H          1 MOL1         0.3603
@<TRIPOS>BOND
    1     1     2    1
    2     1     3    1
    3     1     4    1
    4     1     5    1
    5     5     6    1
    6     5     7    1
    7     5     8    1
    8     8     9    1
    9     8    10    1
   10     8    11    1
   11    11    12    1
   12    11    13    1
   13    11    14    1
   14    14    15    1
   15    14    16    1
   16    14    17    1
   17    17    18    1
   18    17    19    1
   19    17    20    1
   20    20    21    1
   21    20    22    1
   22    20    23    1
   23    23    24    1
   24    23    25    1
   25    23    26    1
   26    26    27    1
   27    26    28    1
   28    26    29    1
@<TRIPOS>SUBSTRUCTURE
       1 MOL1            1 RESIDUE      1      MOL     
@<SCITEGIC>MOL_PROPERTY
VM2 Rank
SciTegic.value.IntegerValue
26

@<SCITEGIC>MOL_PROPERTY
Conf_Id
SciTegic.value.IntegerValue
2610

@<SCITEGIC>MOL_PROPERTY
Probability
SciTegic.value.DoubleValue
1.02

@<SCITEGIC>MOL_PROPERTY
Sum Probability
SciTegic.value.DoubleValue
45.61

@<SCITEGIC>MOL_PROPERTY
Delta G
SciTegic.value.DoubleValue
0.990

@<SCITEGIC>MOL_PROPERTY
G
SciTegic.value.DoubleValue
59.138

@<SCITEGIC>MOL_PROPERTY
E
SciTegic.value.DoubleValue
21.747

@<SCITEGIC>MOL_PROPERTY
-TS
SciTegic.value.DoubleValue
37.391

@<SCITEGIC>MOL_PROPERTY
U+W
SciTegic.value.DoubleValue
-2.398

@<SCITEGIC>MOL_PROPERTY
U
SciTegic.value.DoubleValue
49.240

@<SCITEGIC>MOL_PROPERTY
W
SciTegic.value.DoubleValue
-51.638

@<SCITEGIC>MOL_PROPERTY
W(PB)
SciTegic.value.DoubleValue
-54.163

@<SCITEGIC>MOL_PROPERTY
W(SA)
SciTegic.value.DoubleValue
2.526

@<SCITEGIC>MOL_PROPERTY
Valence
SciTegic.value.DoubleValue
3.225

@<SCITEGIC>MOL_PROPERTY
Coulomb
SciTegic.value.DoubleValue
45.075

@<SCITEGIC>MOL_PROPERTY
VdW
SciTegic.value.DoubleValue
0.940

@<SCITEGIC>MOL_PROPERTY
VdW6
SciTegic.value.DoubleValue
-8.132

@<SCITEGIC>MOL_PROPERTY
VdW12
SciTegic.value.DoubleValue
9.072

@<SCITEGIC>MOL_PROPERTY
Bond
SciTegic.value.DoubleValue
0.205

@<SCITEGIC>MOL_PROPERTY
Angle
SciTegic.value.DoubleValue
0.698

@<SCITEGIC>MOL_PROPERTY
Pdih
SciTegic.value.DoubleValue
2.323

@<SCITEGIC>MOL_PROPERTY
Idih
SciTegic.value.DoubleValue
0.000

@<SCITEGIC>MOL_PROPERTY
Tether
SciTegic.value.DoubleValue
0.000

@<TRIPOS>MOLECULE
guest-3_vm2.mol2 : vm2 ligand conformer 27
          29          28           1
SMALL
USER_CHARGES
 
@<TRIPOS>ATOM
       1    C1      20.404374   17.792820   19.828026 C.3        1 MOL1        -0.2427
       2    H1      20.143737   17.604814   18.778374 H          1 MOL1         0.0958
       3    H2      21.431818   18.178570   19.856381 H          1 MOL1         0.0958
       4    H3      20.385274   16.831306   20.357514 H          1 MOL1         0.0958
       5    C2      19.417923   18.795554   20.463139 C.3        1 MOL1        -0.1412
       6    H4      18.396019   18.397628   20.390560 H          1 MOL1         0.0947
       7    H5      19.434206   19.734099   19.891529 H          1 MOL1         0.0947
       8    C3      19.763010   19.078682   21.941939 C.3        1 MOL1        -0.1437
       9    H6      19.752356   18.132688   22.498674 H          1 MOL1         0.0947
      10    H7      20.784275   19.478283   22.009205 H          1 MOL1         0.0947
      11    C4      18.771716   20.080786   22.580908 C.3        1 MOL1        -0.1437
      12    H8      17.757160   19.659214   22.566337 H          1 MOL1         0.0947
      13    H9      18.736528   20.990083   21.965061 H          1 MOL1         0.0947
      14    C5      19.144753   20.484663   24.028479 C.3        1 MOL1        -0.1437
      15    H10     20.153533   20.920018   24.040398 H          1 MOL1         0.0947
      16    H11     18.461290   21.281407   24.353146 H          1 MOL1         0.0947
      17    C6      19.069211   19.313465   25.037297 C.3        1 MOL1        -0.1437
      18    H12     19.800505   18.542681   24.764129 H          1 MOL1         0.0947
      19    H13     18.075701   18.847038   24.984296 H          1 MOL1         0.0947
      20    C7      19.338186   19.787988   26.484984 C.3        1 MOL1        -0.1477
      21    H14     20.340394   20.231394   26.555471 H          1 MOL1         0.0947
      22    H15     18.625345   20.581352   26.746451 H          1 MOL1         0.0947
      23    C8      19.203611   18.653084   27.518437 C.3        1 MOL1         0.0145
      24    H16     18.209445   18.204072   27.444870 H          1 MOL1         0.0921
      25    H17     19.318808   19.063854   28.525183 H          1 MOL1         0.0921
      26    N1      20.231216   17.550957   27.351792 N.4        1 MOL1        -0.5969
      27    H18     20.153943   17.095553   26.437038 H          1 MOL1         0.3603
      28    H19     20.122661   16.818896   28.062376 H          1 MOL1         0.3603
      29    H20     21.188796   17.908301   27.433403 H          1 MOL1         0.3603
@<TRIPOS>BOND
    1     1     2    1
    2     1     3    1
    3     1     4    1
    4     1     5    1
    5     5     6    1
    6     5     7    1
    7     5     8    1
    8     8     9    1
    9     8    10    1
   10     8    11    1
   11    11    12    1
   12    11    13    1
   13    11    14    1
   14    14    15    1
   15    14    16    1
   16    14    17    1
   17    17    18    1
   18    17    19    1
   19    17    20    1
   20    20    21    1
   21    20    22    1
   22    20    23    1
   23    23    24    1
   24    23    25    1
   25    23    26    1
   26    26    27    1
   27    26    28    1
   28    26    29    1
@<TRIPOS>SUBSTRUCTURE
       1 MOL1            1 RESIDUE      1      MOL     
@<SCITEGIC>MOL_PROPERTY
VM2 Rank
SciTegic.value.IntegerValue
27

@<SCITEGIC>MOL_PROPERTY
Conf_Id
SciTegic.value.IntegerValue
1362

@<SCITEGIC>MOL_PROPERTY
Probability
SciTegic.value.DoubleValue
1.02

@<SCITEGIC>MOL_PROPERTY
Sum Probability
SciTegic.value.DoubleValue
46.62

@<SCITEGIC>MOL_PROPERTY
Delta G
SciTegic.value.DoubleValue
0.993

@<SCITEGIC>MOL_PROPERTY
G
SciTegic.value.DoubleValue
59.141

@<SCITEGIC>MOL_PROPERTY
E
SciTegic.value.DoubleValue
21.758

@<SCITEGIC>MOL_PROPERTY
-TS
SciTegic.value.DoubleValue
37.383

@<SCITEGIC>MOL_PROPERTY
U+W
SciTegic.value.DoubleValue
-2.387

@<SCITEGIC>MOL_PROPERTY
U
SciTegic.value.DoubleValue
49.501

@<SCITEGIC>MOL_PROPERTY
W
SciTegic.value.DoubleValue
-51.888

@<SCITEGIC>MOL_PROPERTY
W(PB)
SciTegic.value.DoubleValue
-54.410

@<SCITEGIC>MOL_PROPERTY
W(SA)
SciTegic.value.DoubleValue
2.522

@<SCITEGIC>MOL_PROPERTY
Valence
SciTegic.value.DoubleValue
3.224

@<SCITEGIC>MOL_PROPERTY
Coulomb
SciTegic.value.DoubleValue
45.340

@<SCITEGIC>MOL_PROPERTY
VdW
SciTegic.value.DoubleValue
0.937

@<SCITEGIC>MOL_PROPERTY
VdW6
SciTegic.value.DoubleValue
-8.143

@<SCITEGIC>MOL_PROPERTY
VdW12
SciTegic.value.DoubleValue
9.080

@<SCITEGIC>MOL_PROPERTY
Bond
SciTegic.value.DoubleValue
0.206

@<SCITEGIC>MOL_PROPERTY
Angle
SciTegic.value.DoubleValue
0.695

@<SCITEGIC>MOL_PROPERTY
Pdih
SciTegic.value.DoubleValue
2.322

@<SCITEGIC>MOL_PROPERTY
Idih
SciTegic.value.DoubleValue
0.000

@<SCITEGIC>MOL_PROPERTY
Tether
SciTegic.value.DoubleValue
0.000

@<TRIPOS>MOLECULE
guest-3_vm2.mol2 : vm2 ligand conformer 28
          29          28           1
SMALL
USER_CHARGES
 
@<TRIPOS>ATOM
       1    C1      20.229979   18.614086   19.284789 C.3        1 MOL1        -0.2427
       2    H1      19.335499   18.706958   18.655095 H          1 MOL1         0.0958
       3    H2      20.846063   19.510875   19.138280 H          1 MOL1         0.0958
       4    H3      20.804042   17.748757   18.928844 H          1 MOL1         0.0958
       5    C2      19.847919   18.440879   20.770062 C.3        1 MOL1        -0.1412
       6    H4      20.764513   18.310561   21.360400 H          1 MOL1         0.0947
       7    H5      19.257821   17.521540   20.889510 H          1 MOL1         0.0947
       8    C3      19.041103   19.651538   21.295727 C.3        1 MOL1        -0.1437
       9    H6      19.651594   20.562341   21.225303 H          1 MOL1         0.0947
      10    H7      18.172251   19.811770   20.642485 H          1 MOL1         0.0947
      11    C4      18.535999   19.476271   22.748924 C.3        1 MOL1        -0.1437
      12    H8      17.913213   18.573498   22.815137 H          1 MOL1         0.0947
      13    H9      17.879156   20.322716   22.992640 H          1 MOL1         0.0947
      14    C5      19.673964   19.404357   23.795292 C.3        1 MOL1        -0.1437
      15    H10     20.296339   18.518752   23.612106 H          1 MOL1         0.0947
      16    H11     20.326469   20.281862   23.688172 H          1 MOL1         0.0947
      17    C6      19.122761   19.343889   25.237760 C.3        1 MOL1        -0.1437
      18    H12     18.464368   18.470501   25.336500 H          1 MOL1         0.0947
      19    H13     18.506147   20.232319   25.432957 H          1 MOL1         0.0947
      20    C7      20.259684   19.266934   26.283986 C.3        1 MOL1        -0.1477
      21    H14     20.863832   18.365028   26.117965 H          1 MOL1         0.0947
      22    H15     20.933414   20.124125   26.152518 H          1 MOL1         0.0947
      23    C8      19.736398   19.275897   27.733137 C.3        1 MOL1         0.0145
      24    H16     19.129280   20.169773   27.899840 H          1 MOL1         0.0921
      25    H17     20.583000   19.304530   28.424504 H          1 MOL1         0.0921
      26    N1      18.896193   18.064147   28.085323 N.4        1 MOL1        -0.5969
      27    H18     18.061747   17.996657   27.494221 H          1 MOL1         0.3603
      28    H19     18.573557   18.094440   29.058771 H          1 MOL1         0.3603
      29    H20     19.421036   17.190857   27.970402 H          1 MOL1         0.3603
@<TRIPOS>BOND
    1     1     2    1
    2     1     3    1
    3     1     4    1
    4     1     5    1
    5     5     6    1
    6     5     7    1
    7     5     8    1
    8     8     9    1
    9     8    10    1
   10     8    11    1
   11    11    12    1
   12    11    13    1
   13    11    14    1
   14    14    15    1
   15    14    16    1
   16    14    17    1
   17    17    18    1
   18    17    19    1
   19    17    20    1
   20    20    21    1
   21    20    22    1
   22    20    23    1
   23    23    24    1
   24    23    25    1
   25    23    26    1
   26    26    27    1
   27    26    28    1
   28    26    29    1
@<TRIPOS>SUBSTRUCTURE
       1 MOL1            1 RESIDUE      1      MOL     
@<SCITEGIC>MOL_PROPERTY
VM2 Rank
SciTegic.value.IntegerValue
28

@<SCITEGIC>MOL_PROPERTY
Conf_Id
SciTegic.value.IntegerValue
344

@<SCITEGIC>MOL_PROPERTY
Probability
SciTegic.value.DoubleValue
1.00

@<SCITEGIC>MOL_PROPERTY
Sum Probability
SciTegic.value.DoubleValue
47.63

@<SCITEGIC>MOL_PROPERTY
Delta G
SciTegic.value.DoubleValue
1.001

@<SCITEGIC>MOL_PROPERTY
G
SciTegic.value.DoubleValue
59.149

@<SCITEGIC>MOL_PROPERTY
E
SciTegic.value.DoubleValue
21.761

@<SCITEGIC>MOL_PROPERTY
-TS
SciTegic.value.DoubleValue
37.388

@<SCITEGIC>MOL_PROPERTY
U+W
SciTegic.value.DoubleValue
-2.384

@<SCITEGIC>MOL_PROPERTY
U
SciTegic.value.DoubleValue
49.093

@<SCITEGIC>MOL_PROPERTY
W
SciTegic.value.DoubleValue
-51.477

@<SCITEGIC>MOL_PROPERTY
W(PB)
SciTegic.value.DoubleValue
-54.002

@<SCITEGIC>MOL_PROPERTY
W(SA)
SciTegic.value.DoubleValue
2.525

@<SCITEGIC>MOL_PROPERTY
Valence
SciTegic.value.DoubleValue
3.228

@<SCITEGIC>MOL_PROPERTY
Coulomb
SciTegic.value.DoubleValue
44.904

@<SCITEGIC>MOL_PROPERTY
VdW
SciTegic.value.DoubleValue
0.962

@<SCITEGIC>MOL_PROPERTY
VdW6
SciTegic.value.DoubleValue
-8.094

@<SCITEGIC>MOL_PROPERTY
VdW12
SciTegic.value.DoubleValue
9.056

@<SCITEGIC>MOL_PROPERTY
Bond
SciTegic.value.DoubleValue
0.204

@<SCITEGIC>MOL_PROPERTY
Angle
SciTegic.value.DoubleValue
0.702

@<SCITEGIC>MOL_PROPERTY
Pdih
SciTegic.value.DoubleValue
2.322

@<SCITEGIC>MOL_PROPERTY
Idih
SciTegic.value.DoubleValue
0.000

@<SCITEGIC>MOL_PROPERTY
Tether
SciTegic.value.DoubleValue
0.000

@<TRIPOS>MOLECULE
guest-3_vm2.mol2 : vm2 ligand conformer 29
          29          28           1
SMALL
USER_CHARGES
 
@<TRIPOS>ATOM
       1    C1      19.789569   19.395687   19.036632 C.3        1 MOL1        -0.2427
       2    H1      20.861677   19.631290   19.018508 H          1 MOL1         0.0958
       3    H2      19.664534   18.347768   18.734168 H          1 MOL1         0.0958
       4    H3      19.293454   20.024664   18.286096 H          1 MOL1         0.0958
       5    C2      19.190877   19.643799   20.437285 C.3        1 MOL1        -0.1412
       6    H4      18.112626   19.432136   20.415635 H          1 MOL1         0.0947
       7    H5      19.300459   20.705923   20.697605 H          1 MOL1         0.0947
       8    C3      19.872281   18.769923   21.513426 C.3        1 MOL1        -0.1437
       9    H6      19.762554   17.709594   21.246882 H          1 MOL1         0.0947
      10    H7      20.949997   18.983590   21.530456 H          1 MOL1         0.0947
      11    C4      19.275061   19.015100   22.917519 C.3        1 MOL1        -0.1437
      12    H8      18.198289   18.797180   22.900537 H          1 MOL1         0.0947
      13    H9      19.382655   20.077643   23.171234 H          1 MOL1         0.0947
      14    C5      19.962850   18.141071   23.993766 C.3        1 MOL1        -0.1437
      15    H10     19.915675   17.088573   23.681658 H          1 MOL1         0.0947
      16    H11     21.029702   18.397112   24.053593 H          1 MOL1         0.0947
      17    C6      19.320473   18.263697   25.397431 C.3        1 MOL1        -0.1437
      18    H12     19.786329   17.515581   26.052310 H          1 MOL1         0.0947
      19    H13     18.254960   18.001726   25.338451 H          1 MOL1         0.0947
      20    C7      19.477927   19.669474   26.029533 C.3        1 MOL1        -0.1477
      21    H14     20.539136   19.949193   26.066605 H          1 MOL1         0.0947
      22    H15     18.976871   20.417473   25.402798 H          1 MOL1         0.0947
      23    C8      18.874127   19.755074   27.444629 C.3        1 MOL1         0.0145
      24    H16     17.822314   19.458100   27.414805 H          1 MOL1         0.0921
      25    H17     18.926929   20.788120   27.798984 H          1 MOL1         0.0921
      26    N1      19.580833   18.884174   28.464778 N.4        1 MOL1        -0.5969
      27    H18     19.537372   17.892032   28.211907 H          1 MOL1         0.3603
      28    H19     19.163277   18.975170   29.397498 H          1 MOL1         0.3603
      29    H20     20.571882   19.131280   28.554556 H          1 MOL1         0.3603
@<TRIPOS>BOND
    1     1     2    1
    2     1     3    1
    3     1     4    1
    4     1     5    1
    5     5     6    1
    6     5     7    1
    7     5     8    1
    8     8     9    1
    9     8    10    1
   10     8    11    1
   11    11    12    1
   12    11    13    1
   13    11    14    1
   14    14    15    1
   15    14    16    1
   16    14    17    1
   17    17    18    1
   18    17    19    1
   19    17    20    1
   20    20    21    1
   21    20    22    1
   22    20    23    1
   23    23    24    1
   24    23    25    1
   25    23    26    1
   26    26    27    1
   27    26    28    1
   28    26    29    1
@<TRIPOS>SUBSTRUCTURE
       1 MOL1            1 RESIDUE      1      MOL     
@<SCITEGIC>MOL_PROPERTY
VM2 Rank
SciTegic.value.IntegerValue
29

@<SCITEGIC>MOL_PROPERTY
Conf_Id
SciTegic.value.IntegerValue
2539

@<SCITEGIC>MOL_PROPERTY
Probability
SciTegic.value.DoubleValue
0.99

@<SCITEGIC>MOL_PROPERTY
Sum Probability
SciTegic.value.DoubleValue
48.62

@<SCITEGIC>MOL_PROPERTY
Delta G
SciTegic.value.DoubleValue
1.005

@<SCITEGIC>MOL_PROPERTY
G
SciTegic.value.DoubleValue
59.153

@<SCITEGIC>MOL_PROPERTY
E
SciTegic.value.DoubleValue
21.786

@<SCITEGIC>MOL_PROPERTY
-TS
SciTegic.value.DoubleValue
37.368

@<SCITEGIC>MOL_PROPERTY
U+W
SciTegic.value.DoubleValue
-2.359

@<SCITEGIC>MOL_PROPERTY
U
SciTegic.value.DoubleValue
49.027

@<SCITEGIC>MOL_PROPERTY
W
SciTegic.value.DoubleValue
-51.385

@<SCITEGIC>MOL_PROPERTY
W(PB)
SciTegic.value.DoubleValue
-53.885

@<SCITEGIC>MOL_PROPERTY
W(SA)
SciTegic.value.DoubleValue
2.500

@<SCITEGIC>MOL_PROPERTY
Valence
SciTegic.value.DoubleValue
3.250

@<SCITEGIC>MOL_PROPERTY
Coulomb
SciTegic.value.DoubleValue
44.791

@<SCITEGIC>MOL_PROPERTY
VdW
SciTegic.value.DoubleValue
0.986

@<SCITEGIC>MOL_PROPERTY
VdW6
SciTegic.value.DoubleValue
-8.077

@<SCITEGIC>MOL_PROPERTY
VdW12
SciTegic.value.DoubleValue
9.063

@<SCITEGIC>MOL_PROPERTY
Bond
SciTegic.value.DoubleValue
0.210

@<SCITEGIC>MOL_PROPERTY
Angle
SciTegic.value.DoubleValue
0.724

@<SCITEGIC>MOL_PROPERTY
Pdih
SciTegic.value.DoubleValue
2.316

@<SCITEGIC>MOL_PROPERTY
Idih
SciTegic.value.DoubleValue
0.000

@<SCITEGIC>MOL_PROPERTY
Tether
SciTegic.value.DoubleValue
0.000

@<TRIPOS>MOLECULE
guest-3_vm2.mol2 : vm2 ligand conformer 30
          29          28           1
SMALL
USER_CHARGES
 
@<TRIPOS>ATOM
       1    C1      19.729658   18.515389   19.202116 C.3        1 MOL1        -0.2427
       2    H1      19.176240   17.711619   18.699401 H          1 MOL1         0.0958
       3    H2      19.586338   19.436610   18.622421 H          1 MOL1         0.0958
       4    H3      20.796473   18.257522   19.176394 H          1 MOL1         0.0958
       5    C2      19.236821   18.690693   20.654143 C.3        1 MOL1        -0.1412
       6    H4      19.358411   17.739216   21.188494 H          1 MOL1         0.0947
       7    H5      18.161824   18.918786   20.648848 H          1 MOL1         0.0947
       8    C3      20.006135   19.816349   21.384918 C.3        1 MOL1        -0.1437
       9    H6      21.073791   19.562113   21.436807 H          1 MOL1         0.0947
      10    H7      19.937527   20.738505   20.791433 H          1 MOL1         0.0947
      11    C4      19.472446   20.109045   22.808697 C.3        1 MOL1        -0.1437
      12    H8      18.408398   20.377586   22.754393 H          1 MOL1         0.0947
      13    H9      19.994180   20.993372   23.199905 H          1 MOL1         0.0947
      14    C5      19.664950   18.932820   23.795857 C.3        1 MOL1        -0.1437
      15    H10     19.087532   18.062263   23.458398 H          1 MOL1         0.0947
      16    H11     20.721572   18.631623   23.806185 H          1 MOL1         0.0947
      17    C6      19.221987   19.308513   25.227943 C.3        1 MOL1        -0.1437
      18    H12     18.165528   19.610898   25.217336 H          1 MOL1         0.0947
      19    H13     19.799398   20.178107   25.569104 H          1 MOL1         0.0947
      20    C7      19.411198   18.132134   26.214584 C.3        1 MOL1        -0.1477
      21    H14     18.860123   17.256448   25.846546 H          1 MOL1         0.0947
      22    H15     20.469528   17.841902   26.255788 H          1 MOL1         0.0947
      23    C8      18.912135   18.460457   27.634830 C.3        1 MOL1         0.0145
      24    H16     18.993537   17.569288   28.263113 H          1 MOL1         0.0921
      25    H17     17.860180   18.755925   27.596318 H          1 MOL1         0.0921
      26    N1      19.688671   19.572601   28.311914 N.4        1 MOL1        -0.5969
      27    H18     20.684283   19.343319   28.398484 H          1 MOL1         0.3603
      28    H19     19.340138   19.758532   29.258786 H          1 MOL1         0.3603
      29    H20     19.624194   20.452168   27.789937 H          1 MOL1         0.3603
@<TRIPOS>BOND
    1     1     2    1
    2     1     3    1
    3     1     4    1
    4     1     5    1
    5     5     6    1
    6     5     7    1
    7     5     8    1
    8     8     9    1
    9     8    10    1
   10     8    11    1
   11    11    12    1
   12    11    13    1
   13    11    14    1
   14    14    15    1
   15    14    16    1
   16    14    17    1
   17    17    18    1
   18    17    19    1
   19    17    20    1
   20    20    21    1
   21    20    22    1
   22    20    23    1
   23    23    24    1
   24    23    25    1
   25    23    26    1
   26    26    27    1
   27    26    28    1
   28    26    29    1
@<TRIPOS>SUBSTRUCTURE
       1 MOL1            1 RESIDUE      1      MOL     
@<SCITEGIC>MOL_PROPERTY
VM2 Rank
SciTegic.value.IntegerValue
30

@<SCITEGIC>MOL_PROPERTY
Conf_Id
SciTegic.value.IntegerValue
1914

@<SCITEGIC>MOL_PROPERTY
Probability
SciTegic.value.DoubleValue
0.97

@<SCITEGIC>MOL_PROPERTY
Sum Probability
SciTegic.value.DoubleValue
49.59

@<SCITEGIC>MOL_PROPERTY
Delta G
SciTegic.value.DoubleValue
1.023

@<SCITEGIC>MOL_PROPERTY
G
SciTegic.value.DoubleValue
59.171

@<SCITEGIC>MOL_PROPERTY
E
SciTegic.value.DoubleValue
21.783

@<SCITEGIC>MOL_PROPERTY
-TS
SciTegic.value.DoubleValue
37.387

@<SCITEGIC>MOL_PROPERTY
U+W
SciTegic.value.DoubleValue
-2.361

@<SCITEGIC>MOL_PROPERTY
U
SciTegic.value.DoubleValue
49.031

@<SCITEGIC>MOL_PROPERTY
W
SciTegic.value.DoubleValue
-51.392

@<SCITEGIC>MOL_PROPERTY
W(PB)
SciTegic.value.DoubleValue
-53.927

@<SCITEGIC>MOL_PROPERTY
W(SA)
SciTegic.value.DoubleValue
2.534

@<SCITEGIC>MOL_PROPERTY
Valence
SciTegic.value.DoubleValue
3.226

@<SCITEGIC>MOL_PROPERTY
Coulomb
SciTegic.value.DoubleValue
44.840

@<SCITEGIC>MOL_PROPERTY
VdW
SciTegic.value.DoubleValue
0.965

@<SCITEGIC>MOL_PROPERTY
VdW6
SciTegic.value.DoubleValue
-8.093

@<SCITEGIC>MOL_PROPERTY
VdW12
SciTegic.value.DoubleValue
9.058

@<SCITEGIC>MOL_PROPERTY
Bond
SciTegic.value.DoubleValue
0.204

@<SCITEGIC>MOL_PROPERTY
Angle
SciTegic.value.DoubleValue
0.702

@<SCITEGIC>MOL_PROPERTY
Pdih
SciTegic.value.DoubleValue
2.321

@<SCITEGIC>MOL_PROPERTY
Idih
SciTegic.value.DoubleValue
0.000

@<SCITEGIC>MOL_PROPERTY
Tether
SciTegic.value.DoubleValue
0.000

@<TRIPOS>MOLECULE
guest-3_vm2.mol2 : vm2 ligand conformer 31
          29          28           1
SMALL
USER_CHARGES
 
@<TRIPOS>ATOM
       1    C1      20.658930   19.155113   19.538994 C.3        1 MOL1        -0.2427
       2    H1      21.075794   19.938985   18.893385 H          1 MOL1         0.0958
       3    H2      21.448800   18.415505   19.724285 H          1 MOL1         0.0958
       4    H3      19.849010   18.659705   18.987764 H          1 MOL1         0.0958
       5    C2      20.141520   19.757218   20.862455 C.3        1 MOL1        -0.1412
       6    H4      19.377656   20.516496   20.643597 H          1 MOL1         0.0947
       7    H5      20.965234   20.274305   21.374313 H          1 MOL1         0.0947
       8    C3      19.548954   18.673872   21.790441 C.3        1 MOL1        -0.1437
       9    H6      18.728025   18.158140   21.273267 H          1 MOL1         0.0947
      10    H7      20.315337   17.916257   22.005085 H          1 MOL1         0.0947
      11    C4      19.029575   19.273137   23.116714 C.3        1 MOL1        -0.1437
      12    H8      18.259965   20.027325   22.902025 H          1 MOL1         0.0947
      13    H9      19.854392   19.792214   23.622316 H          1 MOL1         0.0947
      14    C5      18.441837   18.185007   24.046728 C.3        1 MOL1        -0.1437
      15    H10     17.669450   17.626568   23.500025 H          1 MOL1         0.0947
      16    H11     19.221108   17.453707   24.300034 H          1 MOL1         0.0947
      17    C6      17.807000   18.753403   25.342190 C.3        1 MOL1        -0.1437
      18    H12     17.380458   17.921384   25.919452 H          1 MOL1         0.0947
      19    H13     16.960305   19.400399   25.074365 H          1 MOL1         0.0947
      20    C7      18.778226   19.547148   26.251037 C.3        1 MOL1        -0.1477
      21    H14     19.109809   20.460260   25.740490 H          1 MOL1         0.0947
      22    H15     18.235024   19.876240   27.146837 H          1 MOL1         0.0947
      23    C8      20.002886   18.718586   26.681036 C.3        1 MOL1         0.0145
      24    H16     20.574640   18.420175   25.798417 H          1 MOL1         0.0921
      25    H17     19.672039   17.814825   27.199757 H          1 MOL1         0.0921
      26    N1      20.935072   19.474516   27.605404 N.4        1 MOL1        -0.5969
      27    H18     21.743592   18.905513   27.879527 H          1 MOL1         0.3603
      28    H19     20.464780   19.761321   28.470286 H          1 MOL1         0.3603
      29    H20     21.302862   20.324466   27.165354 H          1 MOL1         0.3603
@<TRIPOS>BOND
    1     1     2    1
    2     1     3    1
    3     1     4    1
    4     1     5    1
    5     5     6    1
    6     5     7    1
    7     5     8    1
    8     8     9    1
    9     8    10    1
   10     8    11    1
   11    11    12    1
   12    11    13    1
   13    11    14    1
   14    14    15    1
   15    14    16    1
   16    14    17    1
   17    17    18    1
   18    17    19    1
   19    17    20    1
   20    20    21    1
   21    20    22    1
   22    20    23    1
   23    23    24    1
   24    23    25    1
   25    23    26    1
   26    26    27    1
   27    26    28    1
   28    26    29    1
@<TRIPOS>SUBSTRUCTURE
       1 MOL1            1 RESIDUE      1      MOL     
@<SCITEGIC>MOL_PROPERTY
VM2 Rank
SciTegic.value.IntegerValue
31

@<SCITEGIC>MOL_PROPERTY
Conf_Id
SciTegic.value.IntegerValue
1748

@<SCITEGIC>MOL_PROPERTY
Probability
SciTegic.value.DoubleValue
0.88

@<SCITEGIC>MOL_PROPERTY
Sum Probability
SciTegic.value.DoubleValue
50.47

@<SCITEGIC>MOL_PROPERTY
Delta G
SciTegic.value.DoubleValue
1.075

@<SCITEGIC>MOL_PROPERTY
G
SciTegic.value.DoubleValue
59.223

@<SCITEGIC>MOL_PROPERTY
E
SciTegic.value.DoubleValue
21.699

@<SCITEGIC>MOL_PROPERTY
-TS
SciTegic.value.DoubleValue
37.524

@<SCITEGIC>MOL_PROPERTY
U+W
SciTegic.value.DoubleValue
-2.446

@<SCITEGIC>MOL_PROPERTY
U
SciTegic.value.DoubleValue
49.533

@<SCITEGIC>MOL_PROPERTY
W
SciTegic.value.DoubleValue
-51.979

@<SCITEGIC>MOL_PROPERTY
W(PB)
SciTegic.value.DoubleValue
-54.508

@<SCITEGIC>MOL_PROPERTY
W(SA)
SciTegic.value.DoubleValue
2.530

@<SCITEGIC>MOL_PROPERTY
Valence
SciTegic.value.DoubleValue
3.341

@<SCITEGIC>MOL_PROPERTY
Coulomb
SciTegic.value.DoubleValue
45.459

@<SCITEGIC>MOL_PROPERTY
VdW
SciTegic.value.DoubleValue
0.733

@<SCITEGIC>MOL_PROPERTY
VdW6
SciTegic.value.DoubleValue
-8.520

@<SCITEGIC>MOL_PROPERTY
VdW12
SciTegic.value.DoubleValue
9.252

@<SCITEGIC>MOL_PROPERTY
Bond
SciTegic.value.DoubleValue
0.212

@<SCITEGIC>MOL_PROPERTY
Angle
SciTegic.value.DoubleValue
0.893

@<SCITEGIC>MOL_PROPERTY
Pdih
SciTegic.value.DoubleValue
2.236

@<SCITEGIC>MOL_PROPERTY
Idih
SciTegic.value.DoubleValue
0.000

@<SCITEGIC>MOL_PROPERTY
Tether
SciTegic.value.DoubleValue
0.000

@<TRIPOS>MOLECULE
guest-3_vm2.mol2 : vm2 ligand conformer 32
          29          28           1
SMALL
USER_CHARGES
 
@<TRIPOS>ATOM
       1    C1      19.545759   18.489856   19.497714 C.3        1 MOL1        -0.2427
       2    H1      20.535094   18.014700   19.519469 H          1 MOL1         0.0958
       3    H2      18.825754   17.807668   19.966406 H          1 MOL1         0.0958
       4    H3      19.252646   18.607219   18.446407 H          1 MOL1         0.0958
       5    C2      19.572789   19.862236   20.207888 C.3        1 MOL1        -0.1412
       6    H4      18.566035   20.302802   20.199196 H          1 MOL1         0.0947
       7    H5      20.212643   20.545898   19.632604 H          1 MOL1         0.0947
       8    C3      20.101079   19.792592   21.660974 C.3        1 MOL1        -0.1437
       9    H6      21.115385   19.370207   21.662649 H          1 MOL1         0.0947
      10    H7      20.192037   20.816855   22.048132 H          1 MOL1         0.0947
      11    C4      19.192789   18.972991   22.608594 C.3        1 MOL1        -0.1437
      12    H8      19.149192   17.928523   22.273146 H          1 MOL1         0.0947
      13    H9      18.167703   19.366010   22.564962 H          1 MOL1         0.0947
      14    C5      19.699901   19.015545   24.067793 C.3        1 MOL1        -0.1437
      15    H10     20.725436   18.623263   24.110057 H          1 MOL1         0.0947
      16    H11     19.743893   20.059999   24.404214 H          1 MOL1         0.0947
      17    C6      18.792852   18.193611   25.014574 C.3        1 MOL1        -0.1437
      18    H12     18.719001   17.163299   24.639875 H          1 MOL1         0.0947
      19    H13     17.773343   18.603472   24.999786 H          1 MOL1         0.0947
      20    C7      19.312153   18.155373   26.470977 C.3        1 MOL1        -0.1477
      21    H14     18.671276   17.486127   27.060323 H          1 MOL1         0.0947
      22    H15     20.321511   17.723197   26.491650 H          1 MOL1         0.0947
      23    C8      19.330550   19.545978   27.132667 C.3        1 MOL1         0.0145
      24    H16     18.325535   19.976026   27.113275 H          1 MOL1         0.0921
      25    H17     20.000562   20.210058   26.580634 H          1 MOL1         0.0921
      26    N1      19.796128   19.509819   28.573819 N.4        1 MOL1        -0.5969
      27    H18     19.801233   20.444841   28.996184 H          1 MOL1         0.3603
      28    H19     20.748213   19.138472   28.658268 H          1 MOL1         0.3603
      29    H20     19.190113   18.922348   29.156172 H          1 MOL1         0.3603
@<TRIPOS>BOND
    1     1     2    1
    2     1     3    1
    3     1     4    1
    4     1     5    1
    5     5     6    1
    6     5     7    1
    7     5     8    1
    8     8     9    1
    9     8    10    1
   10     8    11    1
   11    11    12    1
   12    11    13    1
   13    11    14    1
   14    14    15    1
   15    14    16    1
   16    14    17    1
   17    17    18    1
   18    17    19    1
   19    17    20    1
   20    20    21    1
   21    20    22    1
   22    20    23    1
   23    23    24    1
   24    23    25    1
   25    23    26    1
   26    26    27    1
   27    26    28    1
   28    26    29    1
@<TRIPOS>SUBSTRUCTURE
       1 MOL1            1 RESIDUE      1      MOL     
@<SCITEGIC>MOL_PROPERTY
VM2 Rank
SciTegic.value.IntegerValue
32

@<SCITEGIC>MOL_PROPERTY
Conf_Id
SciTegic.value.IntegerValue
2596

@<SCITEGIC>MOL_PROPERTY
Probability
SciTegic.value.DoubleValue
0.85

@<SCITEGIC>MOL_PROPERTY
Sum Probability
SciTegic.value.DoubleValue
51.33

@<SCITEGIC>MOL_PROPERTY
Delta G
SciTegic.value.DoubleValue
1.097

@<SCITEGIC>MOL_PROPERTY
G
SciTegic.value.DoubleValue
59.245

@<SCITEGIC>MOL_PROPERTY
E
SciTegic.value.DoubleValue
21.851

@<SCITEGIC>MOL_PROPERTY
-TS
SciTegic.value.DoubleValue
37.394

@<SCITEGIC>MOL_PROPERTY
U+W
SciTegic.value.DoubleValue
-2.294

@<SCITEGIC>MOL_PROPERTY
U
SciTegic.value.DoubleValue
49.086

@<SCITEGIC>MOL_PROPERTY
W
SciTegic.value.DoubleValue
-51.380

@<SCITEGIC>MOL_PROPERTY
W(PB)
SciTegic.value.DoubleValue
-53.930

@<SCITEGIC>MOL_PROPERTY
W(SA)
SciTegic.value.DoubleValue
2.550

@<SCITEGIC>MOL_PROPERTY
Valence
SciTegic.value.DoubleValue
3.390

@<SCITEGIC>MOL_PROPERTY
Coulomb
SciTegic.value.DoubleValue
44.772

@<SCITEGIC>MOL_PROPERTY
VdW
SciTegic.value.DoubleValue
0.924

@<SCITEGIC>MOL_PROPERTY
VdW6
SciTegic.value.DoubleValue
-8.126

@<SCITEGIC>MOL_PROPERTY
VdW12
SciTegic.value.DoubleValue
9.049

@<SCITEGIC>MOL_PROPERTY
Bond
SciTegic.value.DoubleValue
0.202

@<SCITEGIC>MOL_PROPERTY
Angle
SciTegic.value.DoubleValue
0.764

@<SCITEGIC>MOL_PROPERTY
Pdih
SciTegic.value.DoubleValue
2.424

@<SCITEGIC>MOL_PROPERTY
Idih
SciTegic.value.DoubleValue
0.000

@<SCITEGIC>MOL_PROPERTY
Tether
SciTegic.value.DoubleValue
0.000

@<TRIPOS>MOLECULE
guest-3_vm2.mol2 : vm2 ligand conformer 33
          29          28           1
SMALL
USER_CHARGES
 
@<TRIPOS>ATOM
       1    C1      19.272870   18.104694   19.684358 C.3        1 MOL1        -0.2427
       2    H1      18.302756   17.971762   20.178999 H          1 MOL1         0.0958
       3    H2      19.091099   18.125317   18.602014 H          1 MOL1         0.0958
       4    H3      19.894645   17.227043   19.903796 H          1 MOL1         0.0958
       5    C2      19.969037   19.406894   20.140565 C.3        1 MOL1        -0.1412
       6    H4      19.314820   20.266337   19.937870 H          1 MOL1         0.0947
       7    H5      20.871861   19.557419   19.532281 H          1 MOL1         0.0947
       8    C3      20.372960   19.397476   21.634597 C.3        1 MOL1        -0.1437
       9    H6      21.042949   18.548399   21.827995 H          1 MOL1         0.0947
      10    H7      20.955756   20.305140   21.843844 H          1 MOL1         0.0947
      11    C4      19.164600   19.339452   22.599579 C.3        1 MOL1        -0.1437
      12    H8      18.612055   18.402486   22.450710 H          1 MOL1         0.0947
      13    H9      18.471295   20.159839   22.368401 H          1 MOL1         0.0947
      14    C5      19.605943   19.436821   24.077387 C.3        1 MOL1        -0.1437
      15    H10     20.305927   18.620017   24.298540 H          1 MOL1         0.0947
      16    H11     20.152362   20.376908   24.235553 H          1 MOL1         0.0947
      17    C6      18.397772   19.373580   25.042270 C.3        1 MOL1        -0.1437
      18    H12     17.867799   18.419889   24.911084 H          1 MOL1         0.0947
      19    H13     17.682904   20.165202   24.778263 H          1 MOL1         0.0947
      20    C7      18.797375   19.541298   26.526996 C.3        1 MOL1        -0.1477
      21    H14     19.305169   20.505068   26.665909 H          1 MOL1         0.0947
      22    H15     17.886569   19.574446   27.139593 H          1 MOL1         0.0947
      23    C8      19.702088   18.401745   27.031841 C.3        1 MOL1         0.0145
      24    H16     20.632685   18.386037   26.458773 H          1 MOL1         0.0921
      25    H17     19.196301   17.442177   26.894808 H          1 MOL1         0.0921
      26    N1      20.061356   18.536040   28.497407 N.4        1 MOL1        -0.5969
      27    H18     20.564443   19.408841   28.688764 H          1 MOL1         0.3603
      28    H19     20.663604   17.768101   28.814028 H          1 MOL1         0.3603
      29    H20     19.229242   18.529542   29.096615 H          1 MOL1         0.3603
@<TRIPOS>BOND
    1     1     2    1
    2     1     3    1
    3     1     4    1
    4     1     5    1
    5     5     6    1
    6     5     7    1
    7     5     8    1
    8     8     9    1
    9     8    10    1
   10     8    11    1
   11    11    12    1
   12    11    13    1
   13    11    14    1
   14    14    15    1
   15    14    16    1
   16    14    17    1
   17    17    18    1
   18    17    19    1
   19    17    20    1
   20    20    21    1
   21    20    22    1
   22    20    23    1
   23    23    24    1
   24    23    25    1
   25    23    26    1
   26    26    27    1
   27    26    28    1
   28    26    29    1
@<TRIPOS>SUBSTRUCTURE
       1 MOL1            1 RESIDUE      1      MOL     
@<SCITEGIC>MOL_PROPERTY
VM2 Rank
SciTegic.value.IntegerValue
33

@<SCITEGIC>MOL_PROPERTY
Conf_Id
SciTegic.value.IntegerValue
939

@<SCITEGIC>MOL_PROPERTY
Probability
SciTegic.value.DoubleValue
0.85

@<SCITEGIC>MOL_PROPERTY
Sum Probability
SciTegic.value.DoubleValue
52.18

@<SCITEGIC>MOL_PROPERTY
Delta G
SciTegic.value.DoubleValue
1.101

@<SCITEGIC>MOL_PROPERTY
G
SciTegic.value.DoubleValue
59.249

@<SCITEGIC>MOL_PROPERTY
E
SciTegic.value.DoubleValue
21.855

@<SCITEGIC>MOL_PROPERTY
-TS
SciTegic.value.DoubleValue
37.394

@<SCITEGIC>MOL_PROPERTY
U+W
SciTegic.value.DoubleValue
-2.290

@<SCITEGIC>MOL_PROPERTY
U
SciTegic.value.DoubleValue
49.098

@<SCITEGIC>MOL_PROPERTY
W
SciTegic.value.DoubleValue
-51.388

@<SCITEGIC>MOL_PROPERTY
W(PB)
SciTegic.value.DoubleValue
-53.927

@<SCITEGIC>MOL_PROPERTY
W(SA)
SciTegic.value.DoubleValue
2.539

@<SCITEGIC>MOL_PROPERTY
Valence
SciTegic.value.DoubleValue
3.391

@<SCITEGIC>MOL_PROPERTY
Coulomb
SciTegic.value.DoubleValue
44.787

@<SCITEGIC>MOL_PROPERTY
VdW
SciTegic.value.DoubleValue
0.920

@<SCITEGIC>MOL_PROPERTY
VdW6
SciTegic.value.DoubleValue
-8.128

@<SCITEGIC>MOL_PROPERTY
VdW12
SciTegic.value.DoubleValue
9.048

@<SCITEGIC>MOL_PROPERTY
Bond
SciTegic.value.DoubleValue
0.202

@<SCITEGIC>MOL_PROPERTY
Angle
SciTegic.value.DoubleValue
0.764

@<SCITEGIC>MOL_PROPERTY
Pdih
SciTegic.value.DoubleValue
2.425

@<SCITEGIC>MOL_PROPERTY
Idih
SciTegic.value.DoubleValue
0.000

@<SCITEGIC>MOL_PROPERTY
Tether
SciTegic.value.DoubleValue
0.000

@<TRIPOS>MOLECULE
guest-3_vm2.mol2 : vm2 ligand conformer 34
          29          28           1
SMALL
USER_CHARGES
 
@<TRIPOS>ATOM
       1    C1      20.793302   18.904072   19.580637 C.3        1 MOL1        -0.2427
       2    H1      20.626462   18.983354   18.498545 H          1 MOL1         0.0958
       3    H2      21.502331   19.690376   19.870884 H          1 MOL1         0.0958
       4    H3      21.261436   17.931100   19.779182 H          1 MOL1         0.0958
       5    C2      19.462355   19.046118   20.348962 C.3        1 MOL1        -0.1412
       6    H4      18.762761   18.268182   20.012434 H          1 MOL1         0.0947
       7    H5      19.001913   20.013817   20.105132 H          1 MOL1         0.0947
       8    C3      19.669051   18.937444   21.875894 C.3        1 MOL1        -0.1437
       9    H6      20.127635   17.968038   22.114917 H          1 MOL1         0.0947
      10    H7      20.375963   19.713403   22.197368 H          1 MOL1         0.0947
      11    C4      18.335611   19.083761   22.647564 C.3        1 MOL1        -0.1437
      12    H8      17.615952   18.349143   22.260584 H          1 MOL1         0.0947
      13    H9      17.900793   20.073720   22.452193 H          1 MOL1         0.0947
      14    C5      18.478702   18.872086   24.174643 C.3        1 MOL1        -0.1437
      15    H10     17.475315   18.882630   24.622285 H          1 MOL1         0.0947
      16    H11     18.891421   17.872022   24.363649 H          1 MOL1         0.0947
      17    C6      19.351524   19.949044   24.867180 C.3        1 MOL1        -0.1437
      18    H12     18.987252   20.946488   24.585049 H          1 MOL1         0.0947
      19    H13     20.388068   19.882231   24.511165 H          1 MOL1         0.0947
      20    C7      19.340074   19.834122   26.409465 C.3        1 MOL1        -0.1477
      21    H14     19.911259   20.670537   26.833837 H          1 MOL1         0.0947
      22    H15     18.311263   19.935890   26.779842 H          1 MOL1         0.0947
      23    C8      19.941673   18.507652   26.909808 C.3        1 MOL1         0.0145
      24    H16     20.967103   18.407499   26.543986 H          1 MOL1         0.0921
      25    H17     19.355603   17.667961   26.527463 H          1 MOL1         0.0921
      26    N1      19.971707   18.403703   28.420846 N.4        1 MOL1        -0.5969
      27    H18     19.031860   18.464400   28.826421 H          1 MOL1         0.3603
      28    H19     20.531972   19.151128   28.843874 H          1 MOL1         0.3603
      29    H20     20.375540   17.513904   28.733648 H          1 MOL1         0.3603
@<TRIPOS>BOND
    1     1     2    1
    2     1     3    1
    3     1     4    1
    4     1     5    1
    5     5     6    1
    6     5     7    1
    7     5     8    1
    8     8     9    1
    9     8    10    1
   10     8    11    1
   11    11    12    1
   12    11    13    1
   13    11    14    1
   14    14    15    1
   15    14    16    1
   16    14    17    1
   17    17    18    1
   18    17    19    1
   19    17    20    1
   20    20    21    1
   21    20    22    1
   22    20    23    1
   23    23    24    1
   24    23    25    1
   25    23    26    1
   26    26    27    1
   27    26    28    1
   28    26    29    1
@<TRIPOS>SUBSTRUCTURE
       1 MOL1            1 RESIDUE      1      MOL     
@<SCITEGIC>MOL_PROPERTY
VM2 Rank
SciTegic.value.IntegerValue
34

@<SCITEGIC>MOL_PROPERTY
Conf_Id
SciTegic.value.IntegerValue
2449

@<SCITEGIC>MOL_PROPERTY
Probability
SciTegic.value.DoubleValue
0.82

@<SCITEGIC>MOL_PROPERTY
Sum Probability
SciTegic.value.DoubleValue
53.00

@<SCITEGIC>MOL_PROPERTY
Delta G
SciTegic.value.DoubleValue
1.118

@<SCITEGIC>MOL_PROPERTY
G
SciTegic.value.DoubleValue
59.266

@<SCITEGIC>MOL_PROPERTY
E
SciTegic.value.DoubleValue
21.870

@<SCITEGIC>MOL_PROPERTY
-TS
SciTegic.value.DoubleValue
37.396

@<SCITEGIC>MOL_PROPERTY
U+W
SciTegic.value.DoubleValue
-2.274

@<SCITEGIC>MOL_PROPERTY
U
SciTegic.value.DoubleValue
49.224

@<SCITEGIC>MOL_PROPERTY
W
SciTegic.value.DoubleValue
-51.498

@<SCITEGIC>MOL_PROPERTY
W(PB)
SciTegic.value.DoubleValue
-54.014

@<SCITEGIC>MOL_PROPERTY
W(SA)
SciTegic.value.DoubleValue
2.516

@<SCITEGIC>MOL_PROPERTY
Valence
SciTegic.value.DoubleValue
3.410

@<SCITEGIC>MOL_PROPERTY
Coulomb
SciTegic.value.DoubleValue
44.942

@<SCITEGIC>MOL_PROPERTY
VdW
SciTegic.value.DoubleValue
0.872

@<SCITEGIC>MOL_PROPERTY
VdW6
SciTegic.value.DoubleValue
-8.213

@<SCITEGIC>MOL_PROPERTY
VdW12
SciTegic.value.DoubleValue
9.085

@<SCITEGIC>MOL_PROPERTY
Bond
SciTegic.value.DoubleValue
0.208

@<SCITEGIC>MOL_PROPERTY
Angle
SciTegic.value.DoubleValue
0.753

@<SCITEGIC>MOL_PROPERTY
Pdih
SciTegic.value.DoubleValue
2.449

@<SCITEGIC>MOL_PROPERTY
Idih
SciTegic.value.DoubleValue
0.000

@<SCITEGIC>MOL_PROPERTY
Tether
SciTegic.value.DoubleValue
0.000

@<TRIPOS>MOLECULE
guest-3_vm2.mol2 : vm2 ligand conformer 35
          29          28           1
SMALL
USER_CHARGES
 
@<TRIPOS>ATOM
       1    C1      20.657878   18.523728   19.572204 C.3        1 MOL1        -0.2427
       2    H1      21.632771   18.972840   19.802694 H          1 MOL1         0.0958
       3    H2      20.706015   17.455512   19.820873 H          1 MOL1         0.0958
       4    H3      20.493909   18.610877   18.490278 H          1 MOL1         0.0958
       5    C2      19.526012   19.224573   20.352980 C.3        1 MOL1        -0.1412
       6    H4      18.561066   18.776436   20.077383 H          1 MOL1         0.0947
       7    H5      19.480513   20.282175   20.057556 H          1 MOL1         0.0947
       8    C3      19.733130   19.117373   21.879959 C.3        1 MOL1        -0.1437
       9    H6      19.785807   18.057277   22.160329 H          1 MOL1         0.0947
      10    H7      20.697761   19.568245   22.150850 H          1 MOL1         0.0947
      11    C4      18.596535   19.816312   22.663913 C.3        1 MOL1        -0.1437
      12    H8      17.636728   19.332687   22.435586 H          1 MOL1         0.0947
      13    H9      18.508690   20.855029   22.316527 H          1 MOL1         0.0947
      14    C5      18.819558   19.829222   24.196018 C.3        1 MOL1        -0.1437
      15    H10     19.768684   20.334956   24.418680 H          1 MOL1         0.0947
      16    H11     18.029065   20.437433   24.656971 H          1 MOL1         0.0947
      17    C6      18.805498   18.416653   24.832977 C.3        1 MOL1        -0.1437
      18    H12     19.655894   17.827382   24.465254 H          1 MOL1         0.0947
      19    H13     17.896832   17.886057   24.516777 H          1 MOL1         0.0947
      20    C7      18.847585   18.451750   26.378611 C.3        1 MOL1        -0.1477
      21    H14     17.980884   19.008494   26.759206 H          1 MOL1         0.0947
      22    H15     18.755618   17.426603   26.761427 H          1 MOL1         0.0947
      23    C8      20.145014   19.078394   26.922474 C.3        1 MOL1         0.0145
      24    H16     20.226911   20.113826   26.582004 H          1 MOL1         0.0921
      25    H17     21.008006   18.522365   26.546392 H          1 MOL1         0.0921
      26    N1      20.212791   19.079995   28.435864 N.4        1 MOL1        -0.5969
      27    H18     19.440480   19.610880   28.852019 H          1 MOL1         0.3603
      28    H19     21.083641   19.501097   28.777861 H          1 MOL1         0.3603
      29    H20     20.168663   18.130669   28.820995 H          1 MOL1         0.3603
@<TRIPOS>BOND
    1     1     2    1
    2     1     3    1
    3     1     4    1
    4     1     5    1
    5     5     6    1
    6     5     7    1
    7     5     8    1
    8     8     9    1
    9     8    10    1
   10     8    11    1
   11    11    12    1
   12    11    13    1
   13    11    14    1
   14    14    15    1
   15    14    16    1
   16    14    17    1
   17    17    18    1
   18    17    19    1
   19    17    20    1
   20    20    21    1
   21    20    22    1
   22    20    23    1
   23    23    24    1
   24    23    25    1
   25    23    26    1
   26    26    27    1
   27    26    28    1
   28    26    29    1
@<TRIPOS>SUBSTRUCTURE
       1 MOL1            1 RESIDUE      1      MOL     
@<SCITEGIC>MOL_PROPERTY
VM2 Rank
SciTegic.value.IntegerValue
35

@<SCITEGIC>MOL_PROPERTY
Conf_Id
SciTegic.value.IntegerValue
2595

@<SCITEGIC>MOL_PROPERTY
Probability
SciTegic.value.DoubleValue
0.81

@<SCITEGIC>MOL_PROPERTY
Sum Probability
SciTegic.value.DoubleValue
53.81

@<SCITEGIC>MOL_PROPERTY
Delta G
SciTegic.value.DoubleValue
1.129

@<SCITEGIC>MOL_PROPERTY
G
SciTegic.value.DoubleValue
59.277

@<SCITEGIC>MOL_PROPERTY
E
SciTegic.value.DoubleValue
21.881

@<SCITEGIC>MOL_PROPERTY
-TS
SciTegic.value.DoubleValue
37.396

@<SCITEGIC>MOL_PROPERTY
U+W
SciTegic.value.DoubleValue
-2.263

@<SCITEGIC>MOL_PROPERTY
U
SciTegic.value.DoubleValue
49.224

@<SCITEGIC>MOL_PROPERTY
W
SciTegic.value.DoubleValue
-51.487

@<SCITEGIC>MOL_PROPERTY
W(PB)
SciTegic.value.DoubleValue
-54.002

@<SCITEGIC>MOL_PROPERTY
W(SA)
SciTegic.value.DoubleValue
2.514

@<SCITEGIC>MOL_PROPERTY
Valence
SciTegic.value.DoubleValue
3.410

@<SCITEGIC>MOL_PROPERTY
Coulomb
SciTegic.value.DoubleValue
44.942

@<SCITEGIC>MOL_PROPERTY
VdW
SciTegic.value.DoubleValue
0.872

@<SCITEGIC>MOL_PROPERTY
VdW6
SciTegic.value.DoubleValue
-8.213

@<SCITEGIC>MOL_PROPERTY
VdW12
SciTegic.value.DoubleValue
9.085

@<SCITEGIC>MOL_PROPERTY
Bond
SciTegic.value.DoubleValue
0.208

@<SCITEGIC>MOL_PROPERTY
Angle
SciTegic.value.DoubleValue
0.753

@<SCITEGIC>MOL_PROPERTY
Pdih
SciTegic.value.DoubleValue
2.449

@<SCITEGIC>MOL_PROPERTY
Idih
SciTegic.value.DoubleValue
0.000

@<SCITEGIC>MOL_PROPERTY
Tether
SciTegic.value.DoubleValue
0.000

@<TRIPOS>MOLECULE
guest-3_vm2.mol2 : vm2 ligand conformer 36
          29          28           1
SMALL
USER_CHARGES
 
@<TRIPOS>ATOM
       1    C1      19.982445   20.098963   19.728515 C.3        1 MOL1        -0.2427
       2    H1      19.307391   20.794998   20.241645 H          1 MOL1         0.0958
       3    H2      21.015647   20.377376   19.973480 H          1 MOL1         0.0958
       4    H3      19.843521   20.240403   18.648872 H          1 MOL1         0.0958
       5    C2      19.693570   18.632953   20.123310 C.3        1 MOL1        -0.1412
       6    H4      20.306952   17.970256   19.496931 H          1 MOL1         0.0947
       7    H5      18.646493   18.388464   19.896190 H          1 MOL1         0.0947
       8    C3      19.991828   18.326344   21.610729 C.3        1 MOL1        -0.1437
       9    H6      19.867430   17.247211   21.775915 H          1 MOL1         0.0947
      10    H7      21.044758   18.553043   21.827909 H          1 MOL1         0.0947
      11    C4      19.078324   19.096486   22.594131 C.3        1 MOL1        -0.1437
      12    H8      18.025970   18.908473   22.340456 H          1 MOL1         0.0947
      13    H9      19.244080   20.176807   22.490182 H          1 MOL1         0.0947
      14    C5      19.337997   18.683914   24.060603 C.3        1 MOL1        -0.1437
      15    H10     19.165157   17.604722   24.173836 H          1 MOL1         0.0947
      16    H11     20.393449   18.865112   24.304014 H          1 MOL1         0.0947
      17    C6      18.428119   19.458253   25.044066 C.3        1 MOL1        -0.1437
      18    H12     17.377667   19.308016   24.758798 H          1 MOL1         0.0947
      19    H13     18.622246   20.536481   24.958365 H          1 MOL1         0.0947
      20    C7      18.610400   19.016953   26.515206 C.3        1 MOL1        -0.1477
      21    H14     17.875128   19.542863   27.138692 H          1 MOL1         0.0947
      22    H15     18.392432   17.944674   26.608552 H          1 MOL1         0.0947
      23    C8      20.024474   19.306639   27.052265 C.3        1 MOL1         0.0145
      24    H16     20.241347   20.374312   26.960570 H          1 MOL1         0.0921
      25    H17     20.763474   18.753108   26.467331 H          1 MOL1         0.0921
      26    N1      20.196843   18.917495   28.506175 N.4        1 MOL1        -0.5969
      27    H18     20.031848   17.916529   28.655649 H          1 MOL1         0.3603
      28    H19     19.547860   19.424982   29.116737 H          1 MOL1         0.3603
      29    H20     21.144388   19.118237   28.844616 H          1 MOL1         0.3603
@<TRIPOS>BOND
    1     1     2    1
    2     1     3    1
    3     1     4    1
    4     1     5    1
    5     5     6    1
    6     5     7    1
    7     5     8    1
    8     8     9    1
    9     8    10    1
   10     8    11    1
   11    11    12    1
   12    11    13    1
   13    11    14    1
   14    14    15    1
   15    14    16    1
   16    14    17    1
   17    17    18    1
   18    17    19    1
   19    17    20    1
   20    20    21    1
   21    20    22    1
   22    20    23    1
   23    23    24    1
   24    23    25    1
   25    23    26    1
   26    26    27    1
   27    26    28    1
   28    26    29    1
@<TRIPOS>SUBSTRUCTURE
       1 MOL1            1 RESIDUE      1      MOL     
@<SCITEGIC>MOL_PROPERTY
VM2 Rank
SciTegic.value.IntegerValue
36

@<SCITEGIC>MOL_PROPERTY
Conf_Id
SciTegic.value.IntegerValue
2543

@<SCITEGIC>MOL_PROPERTY
Probability
SciTegic.value.DoubleValue
0.80

@<SCITEGIC>MOL_PROPERTY
Sum Probability
SciTegic.value.DoubleValue
54.61

@<SCITEGIC>MOL_PROPERTY
Delta G
SciTegic.value.DoubleValue
1.133

@<SCITEGIC>MOL_PROPERTY
G
SciTegic.value.DoubleValue
59.281

@<SCITEGIC>MOL_PROPERTY
E
SciTegic.value.DoubleValue
21.887

@<SCITEGIC>MOL_PROPERTY
-TS
SciTegic.value.DoubleValue
37.394

@<SCITEGIC>MOL_PROPERTY
U+W
SciTegic.value.DoubleValue
-2.258

@<SCITEGIC>MOL_PROPERTY
U
SciTegic.value.DoubleValue
49.098

@<SCITEGIC>MOL_PROPERTY
W
SciTegic.value.DoubleValue
-51.355

@<SCITEGIC>MOL_PROPERTY
W(PB)
SciTegic.value.DoubleValue
-53.878

@<SCITEGIC>MOL_PROPERTY
W(SA)
SciTegic.value.DoubleValue
2.523

@<SCITEGIC>MOL_PROPERTY
Valence
SciTegic.value.DoubleValue
3.391

@<SCITEGIC>MOL_PROPERTY
Coulomb
SciTegic.value.DoubleValue
44.787

@<SCITEGIC>MOL_PROPERTY
VdW
SciTegic.value.DoubleValue
0.920

@<SCITEGIC>MOL_PROPERTY
VdW6
SciTegic.value.DoubleValue
-8.128

@<SCITEGIC>MOL_PROPERTY
VdW12
SciTegic.value.DoubleValue
9.048

@<SCITEGIC>MOL_PROPERTY
Bond
SciTegic.value.DoubleValue
0.202

@<SCITEGIC>MOL_PROPERTY
Angle
SciTegic.value.DoubleValue
0.764

@<SCITEGIC>MOL_PROPERTY
Pdih
SciTegic.value.DoubleValue
2.425

@<SCITEGIC>MOL_PROPERTY
Idih
SciTegic.value.DoubleValue
0.000

@<SCITEGIC>MOL_PROPERTY
Tether
SciTegic.value.DoubleValue
0.000

@<TRIPOS>MOLECULE
guest-3_vm2.mol2 : vm2 ligand conformer 37
          29          28           1
SMALL
USER_CHARGES
 
@<TRIPOS>ATOM
       1    C1      19.954001   19.636261   19.523363 C.3        1 MOL1        -0.2427
       2    H1      19.819994   20.600632   20.028824 H          1 MOL1         0.0958
       3    H2      21.020724   19.378541   19.550082 H          1 MOL1         0.0958
       4    H3      19.667592   19.772163   18.472443 H          1 MOL1         0.0958
       5    C2      19.098167   18.528357   20.178041 C.3        1 MOL1        -0.1412
       6    H4      19.170628   17.617684   19.567154 H          1 MOL1         0.0947
       7    H5      18.039602   18.823350   20.165973 H          1 MOL1         0.0947
       8    C3      19.531023   18.191064   21.625200 C.3        1 MOL1        -0.1437
       9    H6      18.949172   17.325159   21.970072 H          1 MOL1         0.0947
      10    H7      20.584057   17.877487   21.629427 H          1 MOL1         0.0947
      11    C4      19.331030   19.361773   22.617253 C.3        1 MOL1        -0.1437
      12    H8      18.288763   19.706511   22.572479 H          1 MOL1         0.0947
      13    H9      19.961569   20.211390   22.324145 H          1 MOL1         0.0947
      14    C5      19.676629   18.950757   24.066343 C.3        1 MOL1        -0.1437
      15    H10     19.046353   18.100902   24.360450 H          1 MOL1         0.0947
      16    H11     20.718780   18.605163   24.109689 H          1 MOL1         0.0947
      17    C6      19.479173   20.122545   25.057623 C.3        1 MOL1        -0.1437
      18    H12     18.430172   20.449540   25.041044 H          1 MOL1         0.0947
      19    H13     20.077799   20.981870   24.725054 H          1 MOL1         0.0947
      20    C7      19.885497   19.766580   26.506910 C.3        1 MOL1        -0.1477
      21    H14     20.940640   19.463056   26.530373 H          1 MOL1         0.0947
      22    H15     19.802998   20.666207   27.131257 H          1 MOL1         0.0947
      23    C8      19.012365   18.651905   27.112801 C.3        1 MOL1         0.0145
      24    H16     19.120076   17.736436   26.525456 H          1 MOL1         0.0921
      25    H17     17.961929   18.954344   27.090785 H          1 MOL1         0.0921
      26    N1      19.376113   18.328758   28.547465 N.4        1 MOL1        -0.5969
      27    H18     20.347526   18.011654   28.632909 H          1 MOL1         0.3603
      28    H19     18.783684   17.584794   28.932470 H          1 MOL1         0.3603
      29    H20     19.269277   19.143303   29.161152 H          1 MOL1         0.3603
@<TRIPOS>BOND
    1     1     2    1
    2     1     3    1
    3     1     4    1
    4     1     5    1
    5     5     6    1
    6     5     7    1
    7     5     8    1
    8     8     9    1
    9     8    10    1
   10     8    11    1
   11    11    12    1
   12    11    13    1
   13    11    14    1
   14    14    15    1
   15    14    16    1
   16    14    17    1
   17    17    18    1
   18    17    19    1
   19    17    20    1
   20    20    21    1
   21    20    22    1
   22    20    23    1
   23    23    24    1
   24    23    25    1
   25    23    26    1
   26    26    27    1
   27    26    28    1
   28    26    29    1
@<TRIPOS>SUBSTRUCTURE
       1 MOL1            1 RESIDUE      1      MOL     
@<SCITEGIC>MOL_PROPERTY
VM2 Rank
SciTegic.value.IntegerValue
37

@<SCITEGIC>MOL_PROPERTY
Conf_Id
SciTegic.value.IntegerValue
1021

@<SCITEGIC>MOL_PROPERTY
Probability
SciTegic.value.DoubleValue
0.80

@<SCITEGIC>MOL_PROPERTY
Sum Probability
SciTegic.value.DoubleValue
55.41

@<SCITEGIC>MOL_PROPERTY
Delta G
SciTegic.value.DoubleValue
1.137

@<SCITEGIC>MOL_PROPERTY
G
SciTegic.value.DoubleValue
59.285

@<SCITEGIC>MOL_PROPERTY
E
SciTegic.value.DoubleValue
21.891

@<SCITEGIC>MOL_PROPERTY
-TS
SciTegic.value.DoubleValue
37.394

@<SCITEGIC>MOL_PROPERTY
U+W
SciTegic.value.DoubleValue
-2.254

@<SCITEGIC>MOL_PROPERTY
U
SciTegic.value.DoubleValue
49.086

@<SCITEGIC>MOL_PROPERTY
W
SciTegic.value.DoubleValue
-51.340

@<SCITEGIC>MOL_PROPERTY
W(PB)
SciTegic.value.DoubleValue
-53.921

@<SCITEGIC>MOL_PROPERTY
W(SA)
SciTegic.value.DoubleValue
2.581

@<SCITEGIC>MOL_PROPERTY
Valence
SciTegic.value.DoubleValue
3.390

@<SCITEGIC>MOL_PROPERTY
Coulomb
SciTegic.value.DoubleValue
44.772

@<SCITEGIC>MOL_PROPERTY
VdW
SciTegic.value.DoubleValue
0.923

@<SCITEGIC>MOL_PROPERTY
VdW6
SciTegic.value.DoubleValue
-8.126

@<SCITEGIC>MOL_PROPERTY
VdW12
SciTegic.value.DoubleValue
9.049

@<SCITEGIC>MOL_PROPERTY
Bond
SciTegic.value.DoubleValue
0.202

@<SCITEGIC>MOL_PROPERTY
Angle
SciTegic.value.DoubleValue
0.764

@<SCITEGIC>MOL_PROPERTY
Pdih
SciTegic.value.DoubleValue
2.424

@<SCITEGIC>MOL_PROPERTY
Idih
SciTegic.value.DoubleValue
0.000

@<SCITEGIC>MOL_PROPERTY
Tether
SciTegic.value.DoubleValue
0.000

@<TRIPOS>MOLECULE
guest-3_vm2.mol2 : vm2 ligand conformer 38
          29          28           1
SMALL
USER_CHARGES
 
@<TRIPOS>ATOM
       1    C1      20.772605   18.629656   19.641672 C.3        1 MOL1        -0.2427
       2    H1      21.667675   19.234439   19.837472 H          1 MOL1         0.0958
       3    H2      21.102114   17.646763   19.280588 H          1 MOL1         0.0958
       4    H3      20.203945   19.111307   18.835524 H          1 MOL1         0.0958
       5    C2      19.913846   18.482300   20.915569 C.3        1 MOL1        -0.1412
       6    H4      20.501771   17.961301   21.682738 H          1 MOL1         0.0947
       7    H5      19.042673   17.849315   20.696341 H          1 MOL1         0.0947
       8    C3      19.440999   19.856350   21.445990 C.3        1 MOL1        -0.1437
       9    H6      20.312267   20.469243   21.715186 H          1 MOL1         0.0947
      10    H7      18.925215   20.392521   20.637416 H          1 MOL1         0.0947
      11    C4      18.482022   19.756727   22.657654 C.3        1 MOL1        -0.1437
      12    H8      17.602697   19.158374   22.381934 H          1 MOL1         0.0947
      13    H9      18.109375   20.764081   22.889385 H          1 MOL1         0.0947
      14    C5      19.143840   19.161288   23.923484 C.3        1 MOL1        -0.1437
      15    H10     19.449898   18.124376   23.733033 H          1 MOL1         0.0947
      16    H11     20.055843   19.727861   24.153923 H          1 MOL1         0.0947
      17    C6      18.183788   19.189744   25.136835 C.3        1 MOL1        -0.1437
      18    H12     17.254225   18.666080   24.873952 H          1 MOL1         0.0947
      19    H13     17.902503   20.227580   25.363468 H          1 MOL1         0.0947
      20    C7      18.783800   18.530946   26.401069 C.3        1 MOL1        -0.1477
      21    H14     18.019578   18.511153   27.189430 H          1 MOL1         0.0947
      22    H15     19.040728   17.485182   26.185745 H          1 MOL1         0.0947
      23    C8      20.027905   19.272536   26.924687 C.3        1 MOL1         0.0145
      24    H16     19.772097   20.313351   27.140644 H          1 MOL1         0.0921
      25    H17     20.813252   19.260977   26.164576 H          1 MOL1         0.0921
      26    N1      20.595196   18.658453   28.188042 N.4        1 MOL1        -0.5969
      27    H18     19.913742   18.663552   28.954266 H          1 MOL1         0.3603
      28    H19     21.422370   19.166378   28.520413 H          1 MOL1         0.3603
      29    H20     20.880519   17.684096   28.044161 H          1 MOL1         0.3603
@<TRIPOS>BOND
    1     1     2    1
    2     1     3    1
    3     1     4    1
    4     1     5    1
    5     5     6    1
    6     5     7    1
    7     5     8    1
    8     8     9    1
    9     8    10    1
   10     8    11    1
   11    11    12    1
   12    11    13    1
   13    11    14    1
   14    14    15    1
   15    14    16    1
   16    14    17    1
   17    17    18    1
   18    17    19    1
   19    17    20    1
   20    20    21    1
   21    20    22    1
   22    20    23    1
   23    23    24    1
   24    23    25    1
   25    23    26    1
   26    26    27    1
   27    26    28    1
   28    26    29    1
@<TRIPOS>SUBSTRUCTURE
       1 MOL1            1 RESIDUE      1      MOL     
@<SCITEGIC>MOL_PROPERTY
VM2 Rank
SciTegic.value.IntegerValue
38

@<SCITEGIC>MOL_PROPERTY
Conf_Id
SciTegic.value.IntegerValue
2278

@<SCITEGIC>MOL_PROPERTY
Probability
SciTegic.value.DoubleValue
0.73

@<SCITEGIC>MOL_PROPERTY
Sum Probability
SciTegic.value.DoubleValue
56.14

@<SCITEGIC>MOL_PROPERTY
Delta G
SciTegic.value.DoubleValue
1.187

@<SCITEGIC>MOL_PROPERTY
G
SciTegic.value.DoubleValue
59.335

@<SCITEGIC>MOL_PROPERTY
E
SciTegic.value.DoubleValue
21.950

@<SCITEGIC>MOL_PROPERTY
-TS
SciTegic.value.DoubleValue
37.385

@<SCITEGIC>MOL_PROPERTY
U+W
SciTegic.value.DoubleValue
-2.194

@<SCITEGIC>MOL_PROPERTY
U
SciTegic.value.DoubleValue
49.334

@<SCITEGIC>MOL_PROPERTY
W
SciTegic.value.DoubleValue
-51.528

@<SCITEGIC>MOL_PROPERTY
W(PB)
SciTegic.value.DoubleValue
-54.060

@<SCITEGIC>MOL_PROPERTY
W(SA)
SciTegic.value.DoubleValue
2.532

@<SCITEGIC>MOL_PROPERTY
Valence
SciTegic.value.DoubleValue
3.429

@<SCITEGIC>MOL_PROPERTY
Coulomb
SciTegic.value.DoubleValue
45.008

@<SCITEGIC>MOL_PROPERTY
VdW
SciTegic.value.DoubleValue
0.897

@<SCITEGIC>MOL_PROPERTY
VdW6
SciTegic.value.DoubleValue
-8.188

@<SCITEGIC>MOL_PROPERTY
VdW12
SciTegic.value.DoubleValue
9.084

@<SCITEGIC>MOL_PROPERTY
Bond
SciTegic.value.DoubleValue
0.206

@<SCITEGIC>MOL_PROPERTY
Angle
SciTegic.value.DoubleValue
0.786

@<SCITEGIC>MOL_PROPERTY
Pdih
SciTegic.value.DoubleValue
2.437

@<SCITEGIC>MOL_PROPERTY
Idih
SciTegic.value.DoubleValue
0.000

@<SCITEGIC>MOL_PROPERTY
Tether
SciTegic.value.DoubleValue
0.000

@<TRIPOS>MOLECULE
guest-3_vm2.mol2 : vm2 ligand conformer 39
          29          28           1
SMALL
USER_CHARGES
 
@<TRIPOS>ATOM
       1    C1      20.364007   19.317990   19.277843 C.3        1 MOL1        -0.2427
       2    H1      20.969717   18.402488   19.262936 H          1 MOL1         0.0958
       3    H2      19.984260   19.487523   18.261923 H          1 MOL1         0.0958
       4    H3      21.020968   20.158583   19.536775 H          1 MOL1         0.0958
       5    C2      19.198284   19.195292   20.281823 C.3        1 MOL1        -0.1412
       6    H4      18.540654   18.369172   19.976997 H          1 MOL1         0.0947
       7    H5      18.592013   20.111459   20.250554 H          1 MOL1         0.0947
       8    C3      19.705721   18.955179   21.720930 C.3        1 MOL1        -0.1437
       9    H6      20.309133   18.037375   21.747529 H          1 MOL1         0.0947
      10    H7      20.368152   19.781875   22.008372 H          1 MOL1         0.0947
      11    C4      18.537322   18.836248   22.728949 C.3        1 MOL1        -0.1437
      12    H8      17.843127   18.059584   22.379322 H          1 MOL1         0.0947
      13    H9      17.965891   19.774540   22.747234 H          1 MOL1         0.0947
      14    C5      18.989474   18.476106   24.165589 C.3        1 MOL1        -0.1437
      15    H10     18.090854   18.281085   24.765501 H          1 MOL1         0.0947
      16    H11     19.557806   17.535978   24.146646 H          1 MOL1         0.0947
      17    C6      19.833863   19.584255   24.844768 C.3        1 MOL1        -0.1437
      18    H12     19.275689   20.530732   24.841924 H          1 MOL1         0.0947
      19    H13     20.748618   19.759773   24.264188 H          1 MOL1         0.0947
      20    C7      20.242972   19.231650   26.294314 C.3        1 MOL1        -0.1477
      21    H14     20.807737   18.289834   26.299766 H          1 MOL1         0.0947
      22    H15     20.922588   20.007877   26.670552 H          1 MOL1         0.0947
      23    C8      19.036362   19.118489   27.244875 C.3        1 MOL1         0.0145
      24    H16     18.373950   18.316334   26.909849 H          1 MOL1         0.0921
      25    H17     18.473723   20.055911   27.238448 H          1 MOL1         0.0921
      26    N1      19.435995   18.822792   28.675909 N.4        1 MOL1        -0.5969
      27    H18     19.947878   17.937728   28.754231 H          1 MOL1         0.3603
      28    H19     18.619158   18.751453   29.292650 H          1 MOL1         0.3603
      29    H20     20.039426   19.555929   29.063052 H          1 MOL1         0.3603
@<TRIPOS>BOND
    1     1     2    1
    2     1     3    1
    3     1     4    1
    4     1     5    1
    5     5     6    1
    6     5     7    1
    7     5     8    1
    8     8     9    1
    9     8    10    1
   10     8    11    1
   11    11    12    1
   12    11    13    1
   13    11    14    1
   14    14    15    1
   15    14    16    1
   16    14    17    1
   17    17    18    1
   18    17    19    1
   19    17    20    1
   20    20    21    1
   21    20    22    1
   22    20    23    1
   23    23    24    1
   24    23    25    1
   25    23    26    1
   26    26    27    1
   27    26    28    1
   28    26    29    1
@<TRIPOS>SUBSTRUCTURE
       1 MOL1            1 RESIDUE      1      MOL     
@<SCITEGIC>MOL_PROPERTY
VM2 Rank
SciTegic.value.IntegerValue
39

@<SCITEGIC>MOL_PROPERTY
Conf_Id
SciTegic.value.IntegerValue
1629

@<SCITEGIC>MOL_PROPERTY
Probability
SciTegic.value.DoubleValue
0.72

@<SCITEGIC>MOL_PROPERTY
Sum Probability
SciTegic.value.DoubleValue
56.86

@<SCITEGIC>MOL_PROPERTY
Delta G
SciTegic.value.DoubleValue
1.198

@<SCITEGIC>MOL_PROPERTY
G
SciTegic.value.DoubleValue
59.346

@<SCITEGIC>MOL_PROPERTY
E
SciTegic.value.DoubleValue
21.992

@<SCITEGIC>MOL_PROPERTY
-TS
SciTegic.value.DoubleValue
37.355

@<SCITEGIC>MOL_PROPERTY
U+W
SciTegic.value.DoubleValue
-2.153

@<SCITEGIC>MOL_PROPERTY
U
SciTegic.value.DoubleValue
49.234

@<SCITEGIC>MOL_PROPERTY
W
SciTegic.value.DoubleValue
-51.387

@<SCITEGIC>MOL_PROPERTY
W(PB)
SciTegic.value.DoubleValue
-53.937

@<SCITEGIC>MOL_PROPERTY
W(SA)
SciTegic.value.DoubleValue
2.550

@<SCITEGIC>MOL_PROPERTY
Valence
SciTegic.value.DoubleValue
3.474

@<SCITEGIC>MOL_PROPERTY
Coulomb
SciTegic.value.DoubleValue
44.816

@<SCITEGIC>MOL_PROPERTY
VdW
SciTegic.value.DoubleValue
0.944

@<SCITEGIC>MOL_PROPERTY
VdW6
SciTegic.value.DoubleValue
-8.147

@<SCITEGIC>MOL_PROPERTY
VdW12
SciTegic.value.DoubleValue
9.091

@<SCITEGIC>MOL_PROPERTY
Bond
SciTegic.value.DoubleValue
0.214

@<SCITEGIC>MOL_PROPERTY
Angle
SciTegic.value.DoubleValue
0.815

@<SCITEGIC>MOL_PROPERTY
Pdih
SciTegic.value.DoubleValue
2.445

@<SCITEGIC>MOL_PROPERTY
Idih
SciTegic.value.DoubleValue
0.000

@<SCITEGIC>MOL_PROPERTY
Tether
SciTegic.value.DoubleValue
0.000

@<TRIPOS>MOLECULE
guest-3_vm2.mol2 : vm2 ligand conformer 40
          29          28           1
SMALL
USER_CHARGES
 
@<TRIPOS>ATOM
       1    C1      20.395107   18.415834   19.522112 C.3        1 MOL1        -0.2427
       2    H1      21.472000   18.480778   19.725406 H          1 MOL1         0.0958
       3    H2      20.231114   17.571580   18.839920 H          1 MOL1         0.0958
       4    H3      20.089186   19.333351   19.002659 H          1 MOL1         0.0958
       5    C2      19.594835   18.224737   20.827809 C.3        1 MOL1        -0.1412
       6    H4      19.898273   17.283297   21.306867 H          1 MOL1         0.0947
       7    H5      18.526108   18.129475   20.589820 H          1 MOL1         0.0947
       8    C3      19.808250   19.400510   21.806554 C.3        1 MOL1        -0.1437
       9    H6      20.877926   19.493029   22.040282 H          1 MOL1         0.0947
      10    H7      19.506245   20.339356   21.322062 H          1 MOL1         0.0947
      11    C4      19.008136   19.212800   23.115164 C.3        1 MOL1        -0.1437
      12    H8      19.311281   18.269431   23.587978 H          1 MOL1         0.0947
      13    H9      17.938141   19.124862   22.881559 H          1 MOL1         0.0947
      14    C5      19.228141   20.389247   24.095959 C.3        1 MOL1        -0.1437
      15    H10     20.290586   20.451859   24.367102 H          1 MOL1         0.0947
      16    H11     18.991070   21.331513   23.582879 H          1 MOL1         0.0947
      17    C6      18.358545   20.299707   25.376622 C.3        1 MOL1        -0.1437
      18    H12     17.297426   20.345213   25.095230 H          1 MOL1         0.0947
      19    H13     18.546115   21.190278   25.992353 H          1 MOL1         0.0947
      20    C7      18.595882   19.035477   26.239585 C.3        1 MOL1        -0.1477
      21    H14     17.954081   19.088826   27.129008 H          1 MOL1         0.0947
      22    H15     18.282796   18.139536   25.688546 H          1 MOL1         0.0947
      23    C8      20.062177   18.885234   26.685248 C.3        1 MOL1         0.0145
      24    H16     20.369828   19.773209   27.243968 H          1 MOL1         0.0921
      25    H17     20.706506   18.789455   25.807393 H          1 MOL1         0.0921
      26    N1      20.292926   17.674454   27.565947 N.4        1 MOL1        -0.5969
      27    H18     19.734727   17.715740   28.425112 H          1 MOL1         0.3603
      28    H19     21.274997   17.592700   27.851366 H          1 MOL1         0.3603
      29    H20     20.046851   16.801641   27.087438 H          1 MOL1         0.3603
@<TRIPOS>BOND
    1     1     2    1
    2     1     3    1
    3     1     4    1
    4     1     5    1
    5     5     6    1
    6     5     7    1
    7     5     8    1
    8     8     9    1
    9     8    10    1
   10     8    11    1
   11    11    12    1
   12    11    13    1
   13    11    14    1
   14    14    15    1
   15    14    16    1
   16    14    17    1
   17    17    18    1
   18    17    19    1
   19    17    20    1
   20    20    21    1
   21    20    22    1
   22    20    23    1
   23    23    24    1
   24    23    25    1
   25    23    26    1
   26    26    27    1
   27    26    28    1
   28    26    29    1
@<TRIPOS>SUBSTRUCTURE
       1 MOL1            1 RESIDUE      1      MOL     
@<SCITEGIC>MOL_PROPERTY
VM2 Rank
SciTegic.value.IntegerValue
40

@<SCITEGIC>MOL_PROPERTY
Conf_Id
SciTegic.value.IntegerValue
586

@<SCITEGIC>MOL_PROPERTY
Probability
SciTegic.value.DoubleValue
0.71

@<SCITEGIC>MOL_PROPERTY
Sum Probability
SciTegic.value.DoubleValue
57.58

@<SCITEGIC>MOL_PROPERTY
Delta G
SciTegic.value.DoubleValue
1.203

@<SCITEGIC>MOL_PROPERTY
G
SciTegic.value.DoubleValue
59.351

@<SCITEGIC>MOL_PROPERTY
E
SciTegic.value.DoubleValue
21.827

@<SCITEGIC>MOL_PROPERTY
-TS
SciTegic.value.DoubleValue
37.524

@<SCITEGIC>MOL_PROPERTY
U+W
SciTegic.value.DoubleValue
-2.318

@<SCITEGIC>MOL_PROPERTY
U
SciTegic.value.DoubleValue
49.532

@<SCITEGIC>MOL_PROPERTY
W
SciTegic.value.DoubleValue
-51.850

@<SCITEGIC>MOL_PROPERTY
W(PB)
SciTegic.value.DoubleValue
-54.376

@<SCITEGIC>MOL_PROPERTY
W(SA)
SciTegic.value.DoubleValue
2.526

@<SCITEGIC>MOL_PROPERTY
Valence
SciTegic.value.DoubleValue
3.341

@<SCITEGIC>MOL_PROPERTY
Coulomb
SciTegic.value.DoubleValue
45.459

@<SCITEGIC>MOL_PROPERTY
VdW
SciTegic.value.DoubleValue
0.732

@<SCITEGIC>MOL_PROPERTY
VdW6
SciTegic.value.DoubleValue
-8.518

@<SCITEGIC>MOL_PROPERTY
VdW12
SciTegic.value.DoubleValue
9.251

@<SCITEGIC>MOL_PROPERTY
Bond
SciTegic.value.DoubleValue
0.212

@<SCITEGIC>MOL_PROPERTY
Angle
SciTegic.value.DoubleValue
0.893

@<SCITEGIC>MOL_PROPERTY
Pdih
SciTegic.value.DoubleValue
2.236

@<SCITEGIC>MOL_PROPERTY
Idih
SciTegic.value.DoubleValue
0.000

@<SCITEGIC>MOL_PROPERTY
Tether
SciTegic.value.DoubleValue
0.000

@<TRIPOS>MOLECULE
guest-3_vm2.mol2 : vm2 ligand conformer 41
          29          28           1
SMALL
USER_CHARGES
 
@<TRIPOS>ATOM
       1    C1      20.814027   18.746835   19.643952 C.3        1 MOL1        -0.2427
       2    H1      21.695440   19.313780   19.317266 H          1 MOL1         0.0958
       3    H2      21.122838   17.705405   19.803033 H          1 MOL1         0.0958
       4    H3      20.080236   18.765142   18.827587 H          1 MOL1         0.0958
       5    C2      20.223861   19.353142   20.934722 C.3        1 MOL1        -0.1412
       6    H4      19.951704   20.402226   20.752993 H          1 MOL1         0.0947
       7    H5      20.997984   19.354679   21.713421 H          1 MOL1         0.0947
       8    C3      18.981858   18.567280   21.417209 C.3        1 MOL1        -0.1437
       9    H6      18.254628   18.510090   20.595521 H          1 MOL1         0.0947
      10    H7      19.266061   17.531702   21.649632 H          1 MOL1         0.0947
      11    C4      18.284749   19.202438   22.645337 C.3        1 MOL1        -0.1437
      12    H8      17.356133   18.649083   22.842316 H          1 MOL1         0.0947
      13    H9      17.985389   20.232171   22.405979 H          1 MOL1         0.0947
      14    C5      19.156110   19.194930   23.924227 C.3        1 MOL1        -0.1437
      15    H10     19.501276   18.170888   24.119300 H          1 MOL1         0.0947
      16    H11     20.051371   19.811384   23.770540 H          1 MOL1         0.0947
      17    C6      18.377293   19.731961   25.148877 C.3        1 MOL1        -0.1437
      18    H12     17.500008   19.097841   25.338217 H          1 MOL1         0.0947
      19    H13     17.992041   20.735260   24.919985 H          1 MOL1         0.0947
      20    C7      19.240730   19.812383   26.429627 C.3        1 MOL1        -0.1477
      21    H14     20.104100   20.467449   26.252196 H          1 MOL1         0.0947
      22    H15     18.650162   20.279905   27.228748 H          1 MOL1         0.0947
      23    C8      19.727930   18.431259   26.906139 C.3        1 MOL1         0.0145
      24    H16     20.354480   17.973608   26.136292 H          1 MOL1         0.0921
      25    H17     18.868553   17.779224   27.084152 H          1 MOL1         0.0921
      26    N1      20.537441   18.497772   28.184910 N.4        1 MOL1        -0.5969
      27    H18     21.376650   19.076841   28.075878 H          1 MOL1         0.3603
      28    H19     20.852146   17.568618   28.485426 H          1 MOL1         0.3603
      29    H20     19.995356   18.894524   28.959661 H          1 MOL1         0.3603
@<TRIPOS>BOND
    1     1     2    1
    2     1     3    1
    3     1     4    1
    4     1     5    1
    5     5     6    1
    6     5     7    1
    7     5     8    1
    8     8     9    1
    9     8    10    1
   10     8    11    1
   11    11    12    1
   12    11    13    1
   13    11    14    1
   14    14    15    1
   15    14    16    1
   16    14    17    1
   17    17    18    1
   18    17    19    1
   19    17    20    1
   20    20    21    1
   21    20    22    1
   22    20    23    1
   23    23    24    1
   24    23    25    1
   25    23    26    1
   26    26    27    1
   27    26    28    1
   28    26    29    1
@<TRIPOS>SUBSTRUCTURE
       1 MOL1            1 RESIDUE      1      MOL     
@<SCITEGIC>MOL_PROPERTY
VM2 Rank
SciTegic.value.IntegerValue
41

@<SCITEGIC>MOL_PROPERTY
Conf_Id
SciTegic.value.IntegerValue
2626

@<SCITEGIC>MOL_PROPERTY
Probability
SciTegic.value.DoubleValue
0.71

@<SCITEGIC>MOL_PROPERTY
Sum Probability
SciTegic.value.DoubleValue
58.28

@<SCITEGIC>MOL_PROPERTY
Delta G
SciTegic.value.DoubleValue
1.209

@<SCITEGIC>MOL_PROPERTY
G
SciTegic.value.DoubleValue
59.357

@<SCITEGIC>MOL_PROPERTY
E
SciTegic.value.DoubleValue
21.972

@<SCITEGIC>MOL_PROPERTY
-TS
SciTegic.value.DoubleValue
37.385

@<SCITEGIC>MOL_PROPERTY
U+W
SciTegic.value.DoubleValue
-2.173

@<SCITEGIC>MOL_PROPERTY
U
SciTegic.value.DoubleValue
49.333

@<SCITEGIC>MOL_PROPERTY
W
SciTegic.value.DoubleValue
-51.506

@<SCITEGIC>MOL_PROPERTY
W(PB)
SciTegic.value.DoubleValue
-54.050

@<SCITEGIC>MOL_PROPERTY
W(SA)
SciTegic.value.DoubleValue
2.544

@<SCITEGIC>MOL_PROPERTY
Valence
SciTegic.value.DoubleValue
3.429

@<SCITEGIC>MOL_PROPERTY
Coulomb
SciTegic.value.DoubleValue
45.008

@<SCITEGIC>MOL_PROPERTY
VdW
SciTegic.value.DoubleValue
0.896

@<SCITEGIC>MOL_PROPERTY
VdW6
SciTegic.value.DoubleValue
-8.187

@<SCITEGIC>MOL_PROPERTY
VdW12
SciTegic.value.DoubleValue
9.084

@<SCITEGIC>MOL_PROPERTY
Bond
SciTegic.value.DoubleValue
0.206

@<SCITEGIC>MOL_PROPERTY
Angle
SciTegic.value.DoubleValue
0.786

@<SCITEGIC>MOL_PROPERTY
Pdih
SciTegic.value.DoubleValue
2.437

@<SCITEGIC>MOL_PROPERTY
Idih
SciTegic.value.DoubleValue
0.000

@<SCITEGIC>MOL_PROPERTY
Tether
SciTegic.value.DoubleValue
0.000

@<TRIPOS>MOLECULE
guest-3_vm2.mol2 : vm2 ligand conformer 42
          29          28           1
SMALL
USER_CHARGES
 
@<TRIPOS>ATOM
       1    C1      18.479765   18.678844   19.809415 C.3        1 MOL1        -0.2427
       2    H1      18.329929   18.728335   18.723131 H          1 MOL1         0.0958
       3    H2      18.810515   17.661080   20.050974 H          1 MOL1         0.0958
       4    H3      17.507845   18.848376   20.290713 H          1 MOL1         0.0958
       5    C2      19.514945   19.733611   20.261341 C.3        1 MOL1        -0.1412
       6    H4      19.198134   20.720642   19.896460 H          1 MOL1         0.0947
       7    H5      20.484365   19.526952   19.786757 H          1 MOL1         0.0947
       8    C3      19.688188   19.803462   21.797635 C.3        1 MOL1        -0.1437
       9    H6      20.359010   20.640305   22.035882 H          1 MOL1         0.0947
      10    H7      18.719505   20.040189   22.256920 H          1 MOL1         0.0947
      11    C4      20.264479   18.501680   22.409545 C.3        1 MOL1        -0.1437
      12    H8      21.166374   18.213119   21.852432 H          1 MOL1         0.0947
      13    H9      19.547924   17.678731   22.287439 H          1 MOL1         0.0947
      14    C5      20.634277   18.635804   23.907084 C.3        1 MOL1        -0.1437
      15    H10     21.131795   17.709686   24.226651 H          1 MOL1         0.0947
      16    H11     21.371114   19.441041   24.033380 H          1 MOL1         0.0947
      17    C6      19.414180   18.895227   24.823074 C.3        1 MOL1        -0.1437
      18    H12     18.656583   18.117090   24.655453 H          1 MOL1         0.0947
      19    H13     18.948437   19.855469   24.564902 H          1 MOL1         0.0947
      20    C7      19.811391   18.913316   26.315493 C.3        1 MOL1        -0.1477
      21    H14     20.268367   17.952837   26.588862 H          1 MOL1         0.0947
      22    H15     20.567641   19.690943   26.487236 H          1 MOL1         0.0947
      23    C8      18.593577   19.175331   27.218787 C.3        1 MOL1         0.0145
      24    H16     17.844674   18.394087   27.063030 H          1 MOL1         0.0921
      25    H17     18.144854   20.138683   26.961783 H          1 MOL1         0.0921
      26    N1      18.943197   19.200726   28.692626 N.4        1 MOL1        -0.5969
      27    H18     19.346244   18.311005   29.004864 H          1 MOL1         0.3603
      28    H19     18.118266   19.376549   29.276848 H          1 MOL1         0.3603
      29    H20     19.625570   19.934463   28.910654 H          1 MOL1         0.3603
@<TRIPOS>BOND
    1     1     2    1
    2     1     3    1
    3     1     4    1
    4     1     5    1
    5     5     6    1
    6     5     7    1
    7     5     8    1
    8     8     9    1
    9     8    10    1
   10     8    11    1
   11    11    12    1
   12    11    13    1
   13    11    14    1
   14    14    15    1
   15    14    16    1
   16    14    17    1
   17    17    18    1
   18    17    19    1
   19    17    20    1
   20    20    21    1
   21    20    22    1
   22    20    23    1
   23    23    24    1
   24    23    25    1
   25    23    26    1
   26    26    27    1
   27    26    28    1
   28    26    29    1
@<TRIPOS>SUBSTRUCTURE
       1 MOL1            1 RESIDUE      1      MOL     
@<SCITEGIC>MOL_PROPERTY
VM2 Rank
SciTegic.value.IntegerValue
42

@<SCITEGIC>MOL_PROPERTY
Conf_Id
SciTegic.value.IntegerValue
2315

@<SCITEGIC>MOL_PROPERTY
Probability
SciTegic.value.DoubleValue
0.68

@<SCITEGIC>MOL_PROPERTY
Sum Probability
SciTegic.value.DoubleValue
58.97

@<SCITEGIC>MOL_PROPERTY
Delta G
SciTegic.value.DoubleValue
1.228

@<SCITEGIC>MOL_PROPERTY
G
SciTegic.value.DoubleValue
59.376

@<SCITEGIC>MOL_PROPERTY
E
SciTegic.value.DoubleValue
21.955

@<SCITEGIC>MOL_PROPERTY
-TS
SciTegic.value.DoubleValue
37.421

@<SCITEGIC>MOL_PROPERTY
U+W
SciTegic.value.DoubleValue
-2.190

@<SCITEGIC>MOL_PROPERTY
U
SciTegic.value.DoubleValue
49.092

@<SCITEGIC>MOL_PROPERTY
W
SciTegic.value.DoubleValue
-51.281

@<SCITEGIC>MOL_PROPERTY
W(PB)
SciTegic.value.DoubleValue
-53.789

@<SCITEGIC>MOL_PROPERTY
W(SA)
SciTegic.value.DoubleValue
2.508

@<SCITEGIC>MOL_PROPERTY
Valence
SciTegic.value.DoubleValue
3.601

@<SCITEGIC>MOL_PROPERTY
Coulomb
SciTegic.value.DoubleValue
44.542

@<SCITEGIC>MOL_PROPERTY
VdW
SciTegic.value.DoubleValue
0.949

@<SCITEGIC>MOL_PROPERTY
VdW6
SciTegic.value.DoubleValue
-8.237

@<SCITEGIC>MOL_PROPERTY
VdW12
SciTegic.value.DoubleValue
9.186

@<SCITEGIC>MOL_PROPERTY
Bond
SciTegic.value.DoubleValue
0.219

@<SCITEGIC>MOL_PROPERTY
Angle
SciTegic.value.DoubleValue
0.852

@<SCITEGIC>MOL_PROPERTY
Pdih
SciTegic.value.DoubleValue
2.529

@<SCITEGIC>MOL_PROPERTY
Idih
SciTegic.value.DoubleValue
0.000

@<SCITEGIC>MOL_PROPERTY
Tether
SciTegic.value.DoubleValue
0.000

@<TRIPOS>MOLECULE
guest-3_vm2.mol2 : vm2 ligand conformer 43
          29          28           1
SMALL
USER_CHARGES
 
@<TRIPOS>ATOM
       1    C1      20.867843   19.667429   19.780561 C.3        1 MOL1        -0.2427
       2    H1      21.533065   20.531301   19.653119 H          1 MOL1         0.0958
       3    H2      21.482039   18.758768   19.732079 H          1 MOL1         0.0958
       4    H3      20.168523   19.653153   18.934402 H          1 MOL1         0.0958
       5    C2      20.112616   19.754742   21.123691 C.3        1 MOL1        -0.1412
       6    H4      19.531049   20.686675   21.154571 H          1 MOL1         0.0947
       7    H5      20.844531   19.808161   21.940412 H          1 MOL1         0.0947
       8    C3      19.171103   18.544337   21.327562 C.3        1 MOL1        -0.1437
       9    H6      18.502421   18.462740   20.459509 H          1 MOL1         0.0947
      10    H7      19.759780   17.616910   21.351111 H          1 MOL1         0.0947
      11    C4      18.303686   18.641262   22.606616 C.3        1 MOL1        -0.1437
      12    H8      17.588073   17.807489   22.604245 H          1 MOL1         0.0947
      13    H9      17.704693   19.561870   22.575716 H          1 MOL1         0.0947
      14    C5      19.125664   18.596508   23.917107 C.3        1 MOL1        -0.1437
      15    H10     19.762022   17.700841   23.919739 H          1 MOL1         0.0947
      16    H11     19.794459   19.464947   23.962210 H          1 MOL1         0.0947
      17    C6      18.210782   18.583209   25.165200 C.3        1 MOL1        -0.1437
      18    H12     17.514885   17.735797   25.094592 H          1 MOL1         0.0947
      19    H13     17.593158   19.491988   25.181696 H          1 MOL1         0.0947
      20    C7      18.996319   18.469236   26.492750 C.3        1 MOL1        -0.1477
      21    H14     18.282539   18.374984   27.321952 H          1 MOL1         0.0947
      22    H15     19.596701   17.549710   26.488519 H          1 MOL1         0.0947
      23    C8      19.909166   19.682635   26.750493 C.3        1 MOL1         0.0145
      24    H16     19.311607   20.598208   26.755287 H          1 MOL1         0.0921
      25    H17     20.654441   19.761291   25.954871 H          1 MOL1         0.0921
      26    N1      20.646820   19.598642   28.071019 N.4        1 MOL1        -0.5969
      27    H18     21.248747   20.415331   28.223904 H          1 MOL1         0.3603
      28    H19     21.248983   18.770095   28.119967 H          1 MOL1         0.3603
      29    H20     20.001413   19.550245   28.866388 H          1 MOL1         0.3603
@<TRIPOS>BOND
    1     1     2    1
    2     1     3    1
    3     1     4    1
    4     1     5    1
    5     5     6    1
    6     5     7    1
    7     5     8    1
    8     8     9    1
    9     8    10    1
   10     8    11    1
   11    11    12    1
   12    11    13    1
   13    11    14    1
   14    14    15    1
   15    14    16    1
   16    14    17    1
   17    17    18    1
   18    17    19    1
   19    17    20    1
   20    20    21    1
   21    20    22    1
   22    20    23    1
   23    23    24    1
   24    23    25    1
   25    23    26    1
   26    26    27    1
   27    26    28    1
   28    26    29    1
@<TRIPOS>SUBSTRUCTURE
       1 MOL1            1 RESIDUE      1      MOL     
@<SCITEGIC>MOL_PROPERTY
VM2 Rank
SciTegic.value.IntegerValue
43

@<SCITEGIC>MOL_PROPERTY
Conf_Id
SciTegic.value.IntegerValue
1635

@<SCITEGIC>MOL_PROPERTY
Probability
SciTegic.value.DoubleValue
0.68

@<SCITEGIC>MOL_PROPERTY
Sum Probability
SciTegic.value.DoubleValue
59.65

@<SCITEGIC>MOL_PROPERTY
Delta G
SciTegic.value.DoubleValue
1.230

@<SCITEGIC>MOL_PROPERTY
G
SciTegic.value.DoubleValue
59.378

@<SCITEGIC>MOL_PROPERTY
E
SciTegic.value.DoubleValue
21.997

@<SCITEGIC>MOL_PROPERTY
-TS
SciTegic.value.DoubleValue
37.381

@<SCITEGIC>MOL_PROPERTY
U+W
SciTegic.value.DoubleValue
-2.148

@<SCITEGIC>MOL_PROPERTY
U
SciTegic.value.DoubleValue
49.444

@<SCITEGIC>MOL_PROPERTY
W
SciTegic.value.DoubleValue
-51.591

@<SCITEGIC>MOL_PROPERTY
W(PB)
SciTegic.value.DoubleValue
-54.118

@<SCITEGIC>MOL_PROPERTY
W(SA)
SciTegic.value.DoubleValue
2.527

@<SCITEGIC>MOL_PROPERTY
Valence
SciTegic.value.DoubleValue
3.428

@<SCITEGIC>MOL_PROPERTY
Coulomb
SciTegic.value.DoubleValue
45.119

@<SCITEGIC>MOL_PROPERTY
VdW
SciTegic.value.DoubleValue
0.896

@<SCITEGIC>MOL_PROPERTY
VdW6
SciTegic.value.DoubleValue
-8.201

@<SCITEGIC>MOL_PROPERTY
VdW12
SciTegic.value.DoubleValue
9.097

@<SCITEGIC>MOL_PROPERTY
Bond
SciTegic.value.DoubleValue
0.208

@<SCITEGIC>MOL_PROPERTY
Angle
SciTegic.value.DoubleValue
0.785

@<SCITEGIC>MOL_PROPERTY
Pdih
SciTegic.value.DoubleValue
2.436

@<SCITEGIC>MOL_PROPERTY
Idih
SciTegic.value.DoubleValue
0.000

@<SCITEGIC>MOL_PROPERTY
Tether
SciTegic.value.DoubleValue
0.000

@<TRIPOS>MOLECULE
guest-3_vm2.mol2 : vm2 ligand conformer 44
          29          28           1
SMALL
USER_CHARGES
 
@<TRIPOS>ATOM
       1    C1      19.000672   20.149125   19.842168 C.3        1 MOL1        -0.2427
       2    H1      18.868432   20.247998   18.756970 H          1 MOL1         0.0958
       3    H2      18.131955   20.610088   20.329879 H          1 MOL1         0.0958
       4    H3      19.894719   20.721399   20.119244 H          1 MOL1         0.0958
       5    C2      19.134954   18.661141   20.237438 C.3        1 MOL1        -0.1412
       6    H4      20.024938   18.230271   19.757863 H          1 MOL1         0.0947
       7    H5      18.272766   18.108858   19.838246 H          1 MOL1         0.0947
       8    C3      19.204058   18.437092   21.767185 C.3        1 MOL1        -0.1437
       9    H6      18.295969   18.844821   22.230281 H          1 MOL1         0.0947
      10    H7      19.195281   17.355994   21.962688 H          1 MOL1         0.0947
      11    C4      20.462525   19.060514   22.422007 C.3        1 MOL1        -0.1437
      12    H8      20.425403   20.155012   22.342623 H          1 MOL1         0.0947
      13    H9      21.352717   18.738904   21.864168 H          1 MOL1         0.0947
      14    C5      20.644434   18.664421   23.907735 C.3        1 MOL1        -0.1437
      15    H10     20.708456   17.570742   23.991716 H          1 MOL1         0.0947
      16    H11     21.609350   19.057480   24.256714 H          1 MOL1         0.0947
      17    C6      19.520275   19.194635   24.829751 C.3        1 MOL1        -0.1437
      18    H12     18.557711   18.752661   24.540327 H          1 MOL1         0.0947
      19    H13     19.423640   20.281981   24.703701 H          1 MOL1         0.0947
      20    C7      19.796598   18.871563   26.314570 C.3        1 MOL1        -0.1477
      21    H14     19.892473   17.785301   26.444787 H          1 MOL1         0.0947
      22    H15     20.752273   19.318660   26.619314 H          1 MOL1         0.0947
      23    C8      18.672744   19.398803   27.223760 C.3        1 MOL1         0.0145
      24    H16     17.721441   18.943652   26.935121 H          1 MOL1         0.0921
      25    H17     18.584645   20.482621   27.109583 H          1 MOL1         0.0921
      26    N1      18.907739   19.100706   28.690387 N.4        1 MOL1        -0.5969
      27    H18     18.973166   18.093161   28.869584 H          1 MOL1         0.3603
      28    H19     18.147892   19.460232   29.278701 H          1 MOL1         0.3603
      29    H20     19.776441   19.525260   29.031932 H          1 MOL1         0.3603
@<TRIPOS>BOND
    1     1     2    1
    2     1     3    1
    3     1     4    1
    4     1     5    1
    5     5     6    1
    6     5     7    1
    7     5     8    1
    8     8     9    1
    9     8    10    1
   10     8    11    1
   11    11    12    1
   12    11    13    1
   13    11    14    1
   14    14    15    1
   15    14    16    1
   16    14    17    1
   17    17    18    1
   18    17    19    1
   19    17    20    1
   20    20    21    1
   21    20    22    1
   22    20    23    1
   23    23    24    1
   24    23    25    1
   25    23    26    1
   26    26    27    1
   27    26    28    1
   28    26    29    1
@<TRIPOS>SUBSTRUCTURE
       1 MOL1            1 RESIDUE      1      MOL     
@<SCITEGIC>MOL_PROPERTY
VM2 Rank
SciTegic.value.IntegerValue
44

@<SCITEGIC>MOL_PROPERTY
Conf_Id
SciTegic.value.IntegerValue
2542

@<SCITEGIC>MOL_PROPERTY
Probability
SciTegic.value.DoubleValue
0.66

@<SCITEGIC>MOL_PROPERTY
Sum Probability
SciTegic.value.DoubleValue
60.31

@<SCITEGIC>MOL_PROPERTY
Delta G
SciTegic.value.DoubleValue
1.251

@<SCITEGIC>MOL_PROPERTY
G
SciTegic.value.DoubleValue
59.399

@<SCITEGIC>MOL_PROPERTY
E
SciTegic.value.DoubleValue
21.978

@<SCITEGIC>MOL_PROPERTY
-TS
SciTegic.value.DoubleValue
37.421

@<SCITEGIC>MOL_PROPERTY
U+W
SciTegic.value.DoubleValue
-2.166

@<SCITEGIC>MOL_PROPERTY
U
SciTegic.value.DoubleValue
49.092

@<SCITEGIC>MOL_PROPERTY
W
SciTegic.value.DoubleValue
-51.258

@<SCITEGIC>MOL_PROPERTY
W(PB)
SciTegic.value.DoubleValue
-53.768

@<SCITEGIC>MOL_PROPERTY
W(SA)
SciTegic.value.DoubleValue
2.510

@<SCITEGIC>MOL_PROPERTY
Valence
SciTegic.value.DoubleValue
3.601

@<SCITEGIC>MOL_PROPERTY
Coulomb
SciTegic.value.DoubleValue
44.542

@<SCITEGIC>MOL_PROPERTY
VdW
SciTegic.value.DoubleValue
0.948

@<SCITEGIC>MOL_PROPERTY
VdW6
SciTegic.value.DoubleValue
-8.237

@<SCITEGIC>MOL_PROPERTY
VdW12
SciTegic.value.DoubleValue
9.185

@<SCITEGIC>MOL_PROPERTY
Bond
SciTegic.value.DoubleValue
0.219

@<SCITEGIC>MOL_PROPERTY
Angle
SciTegic.value.DoubleValue
0.852

@<SCITEGIC>MOL_PROPERTY
Pdih
SciTegic.value.DoubleValue
2.529

@<SCITEGIC>MOL_PROPERTY
Idih
SciTegic.value.DoubleValue
0.000

@<SCITEGIC>MOL_PROPERTY
Tether
SciTegic.value.DoubleValue
0.000

@<TRIPOS>MOLECULE
guest-3_vm2.mol2 : vm2 ligand conformer 45
          29          28           1
SMALL
USER_CHARGES
 
@<TRIPOS>ATOM
       1    C1      21.193402   18.916959   20.163717 C.3        1 MOL1        -0.2427
       2    H1      22.045063   18.979100   20.853676 H          1 MOL1         0.0958
       3    H2      21.471420   18.240523   19.345076 H          1 MOL1         0.0958
       4    H3      21.026755   19.913962   19.735395 H          1 MOL1         0.0958
       5    C2      19.929532   18.406084   20.887224 C.3        1 MOL1        -0.1412
       6    H4      20.115458   17.395101   21.276079 H          1 MOL1         0.0947
       7    H5      19.105382   18.321693   20.165068 H          1 MOL1         0.0947
       8    C3      19.515867   19.341582   22.044586 C.3        1 MOL1        -0.1437
       9    H6      20.350374   19.424553   22.753146 H          1 MOL1         0.0947
      10    H7      19.328202   20.350225   21.651469 H          1 MOL1         0.0947
      11    C4      18.252221   18.827565   22.774946 C.3        1 MOL1        -0.1437
      12    H8      18.449102   17.837370   23.206581 H          1 MOL1         0.0947
      13    H9      17.449495   18.680733   22.039226 H          1 MOL1         0.0947
      14    C5      17.734527   19.791918   23.873377 C.3        1 MOL1        -0.1437
      15    H10     17.425633   20.734965   23.401740 H          1 MOL1         0.0947
      16    H11     16.823619   19.365459   24.315602 H          1 MOL1         0.0947
      17    C6      18.742146   20.110145   25.008289 C.3        1 MOL1        -0.1437
      18    H12     18.259816   20.799393   25.715291 H          1 MOL1         0.0947
      19    H13     19.606703   20.652240   24.602627 H          1 MOL1         0.0947
      20    C7      19.223847   18.858258   25.777939 C.3        1 MOL1        -0.1477
      21    H14     18.356597   18.296024   26.148878 H          1 MOL1         0.0947
      22    H15     19.778793   18.192409   25.104938 H          1 MOL1         0.0947
      23    C8      20.129263   19.242441   26.961123 C.3        1 MOL1         0.0145
      24    H16     19.580685   19.891493   27.649037 H          1 MOL1         0.0921
      25    H17     21.002313   19.788953   26.594325 H          1 MOL1         0.0921
      26    N1      20.623194   18.043048   27.743800 N.4        1 MOL1        -0.5969
      27    H18     19.848456   17.500022   28.139276 H          1 MOL1         0.3603
      28    H19     21.223992   18.321085   28.527661 H          1 MOL1         0.3603
      29    H20     21.171987   17.404599   27.158448 H          1 MOL1         0.3603
@<TRIPOS>BOND
    1     1     2    1
    2     1     3    1
    3     1     4    1
    4     1     5    1
    5     5     6    1
    6     5     7    1
    7     5     8    1
    8     8     9    1
    9     8    10    1
   10     8    11    1
   11    11    12    1
   12    11    13    1
   13    11    14    1
   14    14    15    1
   15    14    16    1
   16    14    17    1
   17    17    18    1
   18    17    19    1
   19    17    20    1
   20    20    21    1
   21    20    22    1
   22    20    23    1
   23    23    24    1
   24    23    25    1
   25    23    26    1
   26    26    27    1
   27    26    28    1
   28    26    29    1
@<TRIPOS>SUBSTRUCTURE
       1 MOL1            1 RESIDUE      1      MOL     
@<SCITEGIC>MOL_PROPERTY
VM2 Rank
SciTegic.value.IntegerValue
45

@<SCITEGIC>MOL_PROPERTY
Conf_Id
SciTegic.value.IntegerValue
2000

@<SCITEGIC>MOL_PROPERTY
Probability
SciTegic.value.DoubleValue
0.66

@<SCITEGIC>MOL_PROPERTY
Sum Probability
SciTegic.value.DoubleValue
60.97

@<SCITEGIC>MOL_PROPERTY
Delta G
SciTegic.value.DoubleValue
1.253

@<SCITEGIC>MOL_PROPERTY
G
SciTegic.value.DoubleValue
59.401

@<SCITEGIC>MOL_PROPERTY
E
SciTegic.value.DoubleValue
21.765

@<SCITEGIC>MOL_PROPERTY
-TS
SciTegic.value.DoubleValue
37.635

@<SCITEGIC>MOL_PROPERTY
U+W
SciTegic.value.DoubleValue
-2.379

@<SCITEGIC>MOL_PROPERTY
U
SciTegic.value.DoubleValue
49.534

@<SCITEGIC>MOL_PROPERTY
W
SciTegic.value.DoubleValue
-51.913

@<SCITEGIC>MOL_PROPERTY
W(PB)
SciTegic.value.DoubleValue
-54.419

@<SCITEGIC>MOL_PROPERTY
W(SA)
SciTegic.value.DoubleValue
2.506

@<SCITEGIC>MOL_PROPERTY
Valence
SciTegic.value.DoubleValue
3.571

@<SCITEGIC>MOL_PROPERTY
Coulomb
SciTegic.value.DoubleValue
45.223

@<SCITEGIC>MOL_PROPERTY
VdW
SciTegic.value.DoubleValue
0.739

@<SCITEGIC>MOL_PROPERTY
VdW6
SciTegic.value.DoubleValue
-8.664

@<SCITEGIC>MOL_PROPERTY
VdW12
SciTegic.value.DoubleValue
9.403

@<SCITEGIC>MOL_PROPERTY
Bond
SciTegic.value.DoubleValue
0.229

@<SCITEGIC>MOL_PROPERTY
Angle
SciTegic.value.DoubleValue
1.076

@<SCITEGIC>MOL_PROPERTY
Pdih
SciTegic.value.DoubleValue
2.266

@<SCITEGIC>MOL_PROPERTY
Idih
SciTegic.value.DoubleValue
0.000

@<SCITEGIC>MOL_PROPERTY
Tether
SciTegic.value.DoubleValue
0.000

@<TRIPOS>MOLECULE
guest-3_vm2.mol2 : vm2 ligand conformer 46
          29          28           1
SMALL
USER_CHARGES
 
@<TRIPOS>ATOM
       1    C1      20.068440   18.487090   19.259301 C.3        1 MOL1        -0.2427
       2    H1      20.043243   17.411023   19.475369 H          1 MOL1         0.0958
       3    H2      19.681407   18.635929   18.242887 H          1 MOL1         0.0958
       4    H3      21.116362   18.814108   19.272265 H          1 MOL1         0.0958
       5    C2      19.227944   19.278417   20.283656 C.3        1 MOL1        -0.1412
       6    H4      18.179826   18.953052   20.224570 H          1 MOL1         0.0947
       7    H5      19.244112   20.345517   20.021159 H          1 MOL1         0.0947
       8    C3      19.752573   19.086831   21.723875 C.3        1 MOL1        -0.1437
       9    H6      19.740037   18.016943   21.968915 H          1 MOL1         0.0947
      10    H7      20.799568   19.415474   21.778393 H          1 MOL1         0.0947
      11    C4      18.907576   19.876752   22.752174 C.3        1 MOL1        -0.1437
      12    H8      17.871803   19.510263   22.741274 H          1 MOL1         0.0947
      13    H9      18.864763   20.930417   22.443452 H          1 MOL1         0.0947
      14    C5      19.465240   19.813150   24.195445 C.3        1 MOL1        -0.1437
      15    H10     20.499842   20.182869   24.205758 H          1 MOL1         0.0947
      16    H11     18.883358   20.507964   24.815197 H          1 MOL1         0.0947
      17    C6      19.410280   18.394925   24.818255 C.3        1 MOL1        -0.1437
      18    H12     20.016571   17.704198   24.218285 H          1 MOL1         0.0947
      19    H13     18.379816   18.014817   24.785927 H          1 MOL1         0.0947
      20    C7      19.929841   18.352145   26.274658 C.3        1 MOL1        -0.1477
      21    H14     19.961005   17.306995   26.610292 H          1 MOL1         0.0947
      22    H15     20.962448   18.724337   26.309303 H          1 MOL1         0.0947
      23    C8      19.052792   19.164376   27.245920 C.3        1 MOL1         0.0145
      24    H16     18.024623   18.794273   27.210448 H          1 MOL1         0.0921
      25    H17     19.050756   20.217095   26.952218 H          1 MOL1         0.0921
      26    N1      19.529314   19.084313   28.681717 N.4        1 MOL1        -0.5969
      27    H18     20.484053   19.443119   28.787676 H          1 MOL1         0.3603
      28    H19     19.528514   18.120227   29.031052 H          1 MOL1         0.3603
      29    H20     18.932610   19.631145   29.312273 H          1 MOL1         0.3603
@<TRIPOS>BOND
    1     1     2    1
    2     1     3    1
    3     1     4    1
    4     1     5    1
    5     5     6    1
    6     5     7    1
    7     5     8    1
    8     8     9    1
    9     8    10    1
   10     8    11    1
   11    11    12    1
   12    11    13    1
   13    11    14    1
   14    14    15    1
   15    14    16    1
   16    14    17    1
   17    17    18    1
   18    17    19    1
   19    17    20    1
   20    20    21    1
   21    20    22    1
   22    20    23    1
   23    23    24    1
   24    23    25    1
   25    23    26    1
   26    26    27    1
   27    26    28    1
   28    26    29    1
@<TRIPOS>SUBSTRUCTURE
       1 MOL1            1 RESIDUE      1      MOL     
@<SCITEGIC>MOL_PROPERTY
VM2 Rank
SciTegic.value.IntegerValue
46

@<SCITEGIC>MOL_PROPERTY
Conf_Id
SciTegic.value.IntegerValue
2190

@<SCITEGIC>MOL_PROPERTY
Probability
SciTegic.value.DoubleValue
0.65

@<SCITEGIC>MOL_PROPERTY
Sum Probability
SciTegic.value.DoubleValue
61.62

@<SCITEGIC>MOL_PROPERTY
Delta G
SciTegic.value.DoubleValue
1.257

@<SCITEGIC>MOL_PROPERTY
G
SciTegic.value.DoubleValue
59.405

@<SCITEGIC>MOL_PROPERTY
E
SciTegic.value.DoubleValue
22.051

@<SCITEGIC>MOL_PROPERTY
-TS
SciTegic.value.DoubleValue
37.354

@<SCITEGIC>MOL_PROPERTY
U+W
SciTegic.value.DoubleValue
-2.094

@<SCITEGIC>MOL_PROPERTY
U
SciTegic.value.DoubleValue
49.234

@<SCITEGIC>MOL_PROPERTY
W
SciTegic.value.DoubleValue
-51.328

@<SCITEGIC>MOL_PROPERTY
W(PB)
SciTegic.value.DoubleValue
-53.866

@<SCITEGIC>MOL_PROPERTY
W(SA)
SciTegic.value.DoubleValue
2.538

@<SCITEGIC>MOL_PROPERTY
Valence
SciTegic.value.DoubleValue
3.474

@<SCITEGIC>MOL_PROPERTY
Coulomb
SciTegic.value.DoubleValue
44.816

@<SCITEGIC>MOL_PROPERTY
VdW
SciTegic.value.DoubleValue
0.944

@<SCITEGIC>MOL_PROPERTY
VdW6
SciTegic.value.DoubleValue
-8.147

@<SCITEGIC>MOL_PROPERTY
VdW12
SciTegic.value.DoubleValue
9.091

@<SCITEGIC>MOL_PROPERTY
Bond
SciTegic.value.DoubleValue
0.214

@<SCITEGIC>MOL_PROPERTY
Angle
SciTegic.value.DoubleValue
0.815

@<SCITEGIC>MOL_PROPERTY
Pdih
SciTegic.value.DoubleValue
2.445

@<SCITEGIC>MOL_PROPERTY
Idih
SciTegic.value.DoubleValue
0.000

@<SCITEGIC>MOL_PROPERTY
Tether
SciTegic.value.DoubleValue
0.000

@<TRIPOS>MOLECULE
guest-3_vm2.mol2 : vm2 ligand conformer 47
          29          28           1
SMALL
USER_CHARGES
 
@<TRIPOS>ATOM
       1    C1      19.869379   17.721206   20.310851 C.3        1 MOL1        -0.2427
       2    H1      19.011433   17.724109   19.626111 H          1 MOL1         0.0958
       3    H2      20.666765   17.125146   19.848550 H          1 MOL1         0.0958
       4    H3      19.570217   17.212241   21.235618 H          1 MOL1         0.0958
       5    C2      20.361202   19.159218   20.590526 C.3        1 MOL1        -0.1412
       6    H4      20.759534   19.584179   19.658664 H          1 MOL1         0.0947
       7    H5      21.205171   19.132385   21.292659 H          1 MOL1         0.0947
       8    C3      19.249403   20.097965   21.124480 C.3        1 MOL1        -0.1437
       9    H6      19.672526   21.101790   21.267327 H          1 MOL1         0.0947
      10    H7      18.475068   20.205392   20.352495 H          1 MOL1         0.0947
      11    C4      18.574939   19.643164   22.444508 C.3        1 MOL1        -0.1437
      12    H8      18.050674   18.691084   22.288378 H          1 MOL1         0.0947
      13    H9      17.798891   20.375804   22.705490 H          1 MOL1         0.0947
      14    C5      19.561054   19.510201   23.629473 C.3        1 MOL1        -0.1437
      15    H10     20.300992   18.728410   23.413146 H          1 MOL1         0.0947
      16    H11     20.115442   20.450767   23.752588 H          1 MOL1         0.0947
      17    C6      18.830859   19.164177   24.946702 C.3        1 MOL1        -0.1437
      18    H12     18.272926   18.225663   24.821619 H          1 MOL1         0.0947
      19    H13     18.092195   19.945382   25.174293 H          1 MOL1         0.0947
      20    C7      19.813439   19.025098   26.130132 C.3        1 MOL1        -0.1477
      21    H14     20.550114   18.241136   25.909184 H          1 MOL1         0.0947
      22    H15     20.369759   19.962894   26.261080 H          1 MOL1         0.0947
      23    C8      19.076211   18.680882   27.436116 C.3        1 MOL1         0.0145
      24    H16     18.534114   17.739022   27.315752 H          1 MOL1         0.0921
      25    H17     18.352987   19.467132   27.668957 H          1 MOL1         0.0921
      26    N1      20.007515   18.536089   28.622212 N.4        1 MOL1        -0.5969
      27    H18     20.529001   19.399710   28.805937 H          1 MOL1         0.3603
      28    H19     20.697582   17.791546   28.477297 H          1 MOL1         0.3603
      29    H20     19.496550   18.306849   29.481927 H          1 MOL1         0.3603
@<TRIPOS>BOND
    1     1     2    1
    2     1     3    1
    3     1     4    1
    4     1     5    1
    5     5     6    1
    6     5     7    1
    7     5     8    1
    8     8     9    1
    9     8    10    1
   10     8    11    1
   11    11    12    1
   12    11    13    1
   13    11    14    1
   14    14    15    1
   15    14    16    1
   16    14    17    1
   17    17    18    1
   18    17    19    1
   19    17    20    1
   20    20    21    1
   21    20    22    1
   22    20    23    1
   23    23    24    1
   24    23    25    1
   25    23    26    1
   26    26    27    1
   27    26    28    1
   28    26    29    1
@<TRIPOS>SUBSTRUCTURE
       1 MOL1            1 RESIDUE      1      MOL     
@<SCITEGIC>MOL_PROPERTY
VM2 Rank
SciTegic.value.IntegerValue
47

@<SCITEGIC>MOL_PROPERTY
Conf_Id
SciTegic.value.IntegerValue
2290

@<SCITEGIC>MOL_PROPERTY
Probability
SciTegic.value.DoubleValue
0.62

@<SCITEGIC>MOL_PROPERTY
Sum Probability
SciTegic.value.DoubleValue
62.23

@<SCITEGIC>MOL_PROPERTY
Delta G
SciTegic.value.DoubleValue
1.292

@<SCITEGIC>MOL_PROPERTY
G
SciTegic.value.DoubleValue
59.440

@<SCITEGIC>MOL_PROPERTY
E
SciTegic.value.DoubleValue
21.824

@<SCITEGIC>MOL_PROPERTY
-TS
SciTegic.value.DoubleValue
37.616

@<SCITEGIC>MOL_PROPERTY
U+W
SciTegic.value.DoubleValue
-2.320

@<SCITEGIC>MOL_PROPERTY
U
SciTegic.value.DoubleValue
48.920

@<SCITEGIC>MOL_PROPERTY
W
SciTegic.value.DoubleValue
-51.240

@<SCITEGIC>MOL_PROPERTY
W(PB)
SciTegic.value.DoubleValue
-53.745

@<SCITEGIC>MOL_PROPERTY
W(SA)
SciTegic.value.DoubleValue
2.505

@<SCITEGIC>MOL_PROPERTY
Valence
SciTegic.value.DoubleValue
3.544

@<SCITEGIC>MOL_PROPERTY
Coulomb
SciTegic.value.DoubleValue
44.554

@<SCITEGIC>MOL_PROPERTY
VdW
SciTegic.value.DoubleValue
0.822

@<SCITEGIC>MOL_PROPERTY
VdW6
SciTegic.value.DoubleValue
-8.501

@<SCITEGIC>MOL_PROPERTY
VdW12
SciTegic.value.DoubleValue
9.324

@<SCITEGIC>MOL_PROPERTY
Bond
SciTegic.value.DoubleValue
0.224

@<SCITEGIC>MOL_PROPERTY
Angle
SciTegic.value.DoubleValue
1.044

@<SCITEGIC>MOL_PROPERTY
Pdih
SciTegic.value.DoubleValue
2.276

@<SCITEGIC>MOL_PROPERTY
Idih
SciTegic.value.DoubleValue
0.000

@<SCITEGIC>MOL_PROPERTY
Tether
SciTegic.value.DoubleValue
0.000

@<TRIPOS>MOLECULE
guest-3_vm2.mol2 : vm2 ligand conformer 48
          29          28           1
SMALL
USER_CHARGES
 
@<TRIPOS>ATOM
       1    C1      21.153260   19.486888   20.239987 C.3        1 MOL1        -0.2427
       2    H1      20.661204   19.825063   19.318721 H          1 MOL1         0.0958
       3    H2      21.567347   20.366745   20.749493 H          1 MOL1         0.0958
       4    H3      21.990724   18.836752   19.955409 H          1 MOL1         0.0958
       5    C2      20.163822   18.732514   21.153043 C.3        1 MOL1        -0.1412
       6    H4      20.700476   18.376657   22.042589 H          1 MOL1         0.0947
       7    H5      19.789206   17.842435   20.628616 H          1 MOL1         0.0947
       8    C3      18.975936   19.630495   21.571241 C.3        1 MOL1        -0.1437
       9    H6      19.346173   20.499271   22.131277 H          1 MOL1         0.0947
      10    H7      18.500278   20.036006   20.667642 H          1 MOL1         0.0947
      11    C4      17.895428   18.886450   22.397996 C.3        1 MOL1        -0.1437
      12    H8      17.449941   18.099500   21.773981 H          1 MOL1         0.0947
      13    H9      17.080132   19.587434   22.623920 H          1 MOL1         0.0947
      14    C5      18.391465   18.249814   23.722061 C.3        1 MOL1        -0.1437
      15    H10     17.539048   17.753492   24.206097 H          1 MOL1         0.0947
      16    H11     19.119207   17.456146   23.507324 H          1 MOL1         0.0947
      17    C6      19.005779   19.271685   24.708417 C.3        1 MOL1        -0.1437
      18    H12     18.290784   20.087063   24.885620 H          1 MOL1         0.0947
      19    H13     19.904110   19.724030   24.267705 H          1 MOL1         0.0947
      20    C7      19.381935   18.614600   26.054483 C.3        1 MOL1        -0.1477
      21    H14     18.488542   18.168130   26.511184 H          1 MOL1         0.0947
      22    H15     20.097176   17.799538   25.880707 H          1 MOL1         0.0947
      23    C8      19.996768   19.636386   27.026844 C.3        1 MOL1         0.0145
      24    H16     19.281689   20.441721   27.215398 H          1 MOL1         0.0921
      25    H17     20.896511   20.071524   26.583487 H          1 MOL1         0.0921
      26    N1      20.379609   19.029167   28.360928 N.4        1 MOL1        -0.5969
      27    H18     19.569729   18.625152   28.843004 H          1 MOL1         0.3603
      28    H19     20.787037   19.726358   28.993899 H          1 MOL1         0.3603
      29    H20     21.072457   18.280655   28.255077 H          1 MOL1         0.3603
@<TRIPOS>BOND
    1     1     2    1
    2     1     3    1
    3     1     4    1
    4     1     5    1
    5     5     6    1
    6     5     7    1
    7     5     8    1
    8     8     9    1
    9     8    10    1
   10     8    11    1
   11    11    12    1
   12    11    13    1
   13    11    14    1
   14    14    15    1
   15    14    16    1
   16    14    17    1
   17    17    18    1
   18    17    19    1
   19    17    20    1
   20    20    21    1
   21    20    22    1
   22    20    23    1
   23    23    24    1
   24    23    25    1
   25    23    26    1
   26    26    27    1
   27    26    28    1
   28    26    29    1
@<TRIPOS>SUBSTRUCTURE
       1 MOL1            1 RESIDUE      1      MOL     
@<SCITEGIC>MOL_PROPERTY
VM2 Rank
SciTegic.value.IntegerValue
48

@<SCITEGIC>MOL_PROPERTY
Conf_Id
SciTegic.value.IntegerValue
299

@<SCITEGIC>MOL_PROPERTY
Probability
SciTegic.value.DoubleValue
0.61

@<SCITEGIC>MOL_PROPERTY
Sum Probability
SciTegic.value.DoubleValue
62.85

@<SCITEGIC>MOL_PROPERTY
Delta G
SciTegic.value.DoubleValue
1.292

@<SCITEGIC>MOL_PROPERTY
G
SciTegic.value.DoubleValue
59.440

@<SCITEGIC>MOL_PROPERTY
E
SciTegic.value.DoubleValue
21.807

@<SCITEGIC>MOL_PROPERTY
-TS
SciTegic.value.DoubleValue
37.633

@<SCITEGIC>MOL_PROPERTY
U+W
SciTegic.value.DoubleValue
-2.337

@<SCITEGIC>MOL_PROPERTY
U
SciTegic.value.DoubleValue
49.175

@<SCITEGIC>MOL_PROPERTY
W
SciTegic.value.DoubleValue
-51.513

@<SCITEGIC>MOL_PROPERTY
W(PB)
SciTegic.value.DoubleValue
-54.032

@<SCITEGIC>MOL_PROPERTY
W(SA)
SciTegic.value.DoubleValue
2.519

@<SCITEGIC>MOL_PROPERTY
Valence
SciTegic.value.DoubleValue
3.575

@<SCITEGIC>MOL_PROPERTY
Coulomb
SciTegic.value.DoubleValue
44.838

@<SCITEGIC>MOL_PROPERTY
VdW
SciTegic.value.DoubleValue
0.762

@<SCITEGIC>MOL_PROPERTY
VdW6
SciTegic.value.DoubleValue
-8.634

@<SCITEGIC>MOL_PROPERTY
VdW12
SciTegic.value.DoubleValue
9.396

@<SCITEGIC>MOL_PROPERTY
Bond
SciTegic.value.DoubleValue
0.229

@<SCITEGIC>MOL_PROPERTY
Angle
SciTegic.value.DoubleValue
1.080

@<SCITEGIC>MOL_PROPERTY
Pdih
SciTegic.value.DoubleValue
2.266

@<SCITEGIC>MOL_PROPERTY
Idih
SciTegic.value.DoubleValue
0.000

@<SCITEGIC>MOL_PROPERTY
Tether
SciTegic.value.DoubleValue
0.000

@<TRIPOS>MOLECULE
guest-3_vm2.mol2 : vm2 ligand conformer 49
          29          28           1
SMALL
USER_CHARGES
 
@<TRIPOS>ATOM
       1    C1      20.558424   17.818552   20.202634 C.3        1 MOL1        -0.2427
       2    H1      20.315494   16.855784   20.670902 H          1 MOL1         0.0958
       3    H2      19.976491   17.904689   19.275732 H          1 MOL1         0.0958
       4    H3      21.622222   17.803178   19.932252 H          1 MOL1         0.0958
       5    C2      20.256267   18.991637   21.158831 C.3        1 MOL1        -0.1412
       6    H4      20.536463   19.937941   20.675509 H          1 MOL1         0.0947
       7    H5      20.884360   18.892217   22.054118 H          1 MOL1         0.0947
       8    C3      18.762431   19.031602   21.557822 C.3        1 MOL1        -0.1437
       9    H6      18.150378   19.054551   20.645656 H          1 MOL1         0.0947
      10    H7      18.491823   18.103148   22.077659 H          1 MOL1         0.0947
      11    C4      18.384419   20.257749   22.428628 C.3        1 MOL1        -0.1437
      12    H8      17.306463   20.222107   22.638075 H          1 MOL1         0.0947
      13    H9      18.545899   21.173018   21.842668 H          1 MOL1         0.0947
      14    C5      19.152495   20.384058   23.769749 C.3        1 MOL1        -0.1437
      15    H10     20.221131   20.546088   23.576386 H          1 MOL1         0.0947
      16    H11     18.799518   21.288040   24.284983 H          1 MOL1         0.0947
      17    C6      18.967815   19.166068   24.706174 C.3        1 MOL1        -0.1437
      18    H12     19.383322   18.265287   24.235232 H          1 MOL1         0.0947
      19    H13     17.895848   18.980832   24.861211 H          1 MOL1         0.0947
      20    C7      19.656000   19.383034   26.071631 C.3        1 MOL1        -0.1477
      21    H14     20.727904   19.567747   25.919984 H          1 MOL1         0.0947
      22    H15     19.240379   20.275512   26.558257 H          1 MOL1         0.0947
      23    C8      19.472017   18.165341   26.994087 C.3        1 MOL1         0.0145
      24    H16     19.899470   17.277067   26.521114 H          1 MOL1         0.0921
      25    H17     18.406192   17.987505   27.160965 H          1 MOL1         0.0921
      26    N1      20.134132   18.339960   28.345444 N.4        1 MOL1        -0.5969
      27    H18     21.145633   18.484710   28.259259 H          1 MOL1         0.3603
      28    H19     19.999728   17.517931   28.944551 H          1 MOL1         0.3603
      29    H20     19.755988   19.145743   28.854614 H          1 MOL1         0.3603
@<TRIPOS>BOND
    1     1     2    1
    2     1     3    1
    3     1     4    1
    4     1     5    1
    5     5     6    1
    6     5     7    1
    7     5     8    1
    8     8     9    1
    9     8    10    1
   10     8    11    1
   11    11    12    1
   12    11    13    1
   13    11    14    1
   14    14    15    1
   15    14    16    1
   16    14    17    1
   17    17    18    1
   18    17    19    1
   19    17    20    1
   20    20    21    1
   21    20    22    1
   22    20    23    1
   23    23    24    1
   24    23    25    1
   25    23    26    1
   26    26    27    1
   27    26    28    1
   28    26    29    1
@<TRIPOS>SUBSTRUCTURE
       1 MOL1            1 RESIDUE      1      MOL     
@<SCITEGIC>MOL_PROPERTY
VM2 Rank
SciTegic.value.IntegerValue
49

@<SCITEGIC>MOL_PROPERTY
Conf_Id
SciTegic.value.IntegerValue
1581

@<SCITEGIC>MOL_PROPERTY
Probability
SciTegic.value.DoubleValue
0.61

@<SCITEGIC>MOL_PROPERTY
Sum Probability
SciTegic.value.DoubleValue
63.46

@<SCITEGIC>MOL_PROPERTY
Delta G
SciTegic.value.DoubleValue
1.292

@<SCITEGIC>MOL_PROPERTY
G
SciTegic.value.DoubleValue
59.440

@<SCITEGIC>MOL_PROPERTY
E
SciTegic.value.DoubleValue
21.808

@<SCITEGIC>MOL_PROPERTY
-TS
SciTegic.value.DoubleValue
37.633

@<SCITEGIC>MOL_PROPERTY
U+W
SciTegic.value.DoubleValue
-2.337

@<SCITEGIC>MOL_PROPERTY
U
SciTegic.value.DoubleValue
49.175

@<SCITEGIC>MOL_PROPERTY
W
SciTegic.value.DoubleValue
-51.512

@<SCITEGIC>MOL_PROPERTY
W(PB)
SciTegic.value.DoubleValue
-54.018

@<SCITEGIC>MOL_PROPERTY
W(SA)
SciTegic.value.DoubleValue
2.506

@<SCITEGIC>MOL_PROPERTY
Valence
SciTegic.value.DoubleValue
3.575

@<SCITEGIC>MOL_PROPERTY
Coulomb
SciTegic.value.DoubleValue
44.838

@<SCITEGIC>MOL_PROPERTY
VdW
SciTegic.value.DoubleValue
0.762

@<SCITEGIC>MOL_PROPERTY
VdW6
SciTegic.value.DoubleValue
-8.633

@<SCITEGIC>MOL_PROPERTY
VdW12
SciTegic.value.DoubleValue
9.396

@<SCITEGIC>MOL_PROPERTY
Bond
SciTegic.value.DoubleValue
0.229

@<SCITEGIC>MOL_PROPERTY
Angle
SciTegic.value.DoubleValue
1.080

@<SCITEGIC>MOL_PROPERTY
Pdih
SciTegic.value.DoubleValue
2.266

@<SCITEGIC>MOL_PROPERTY
Idih
SciTegic.value.DoubleValue
0.000

@<SCITEGIC>MOL_PROPERTY
Tether
SciTegic.value.DoubleValue
0.000

@<TRIPOS>MOLECULE
guest-3_vm2.mol2 : vm2 ligand conformer 50
          29          28           1
SMALL
USER_CHARGES
 
@<TRIPOS>ATOM
       1    C1      20.416462   20.224668   20.101129 C.3        1 MOL1        -0.2427
       2    H1      21.193107   20.409466   19.347739 H          1 MOL1         0.0958
       3    H2      19.463418   20.590820   19.697805 H          1 MOL1         0.0958
       4    H3      20.667588   20.821499   20.986684 H          1 MOL1         0.0958
       5    C2      20.335746   18.718116   20.436168 C.3        1 MOL1        -0.1412
       6    H4      21.290378   18.383373   20.865510 H          1 MOL1         0.0947
       7    H5      20.204108   18.154226   19.502116 H          1 MOL1         0.0947
       8    C3      19.176176   18.363261   21.397909 C.3        1 MOL1        -0.1437
       9    H6      18.222102   18.678931   20.953713 H          1 MOL1         0.0947
      10    H7      19.125529   17.269936   21.494763 H          1 MOL1         0.0947
      11    C4      19.329364   18.988143   22.805298 C.3        1 MOL1        -0.1437
      12    H8      19.304600   20.083226   22.732082 H          1 MOL1         0.0947
      13    H9      20.311054   18.715031   23.213448 H          1 MOL1         0.0947
      14    C5      18.208753   18.518579   23.763857 C.3        1 MOL1        -0.1437
      15    H10     17.233588   18.725617   23.301713 H          1 MOL1         0.0947
      16    H11     18.263558   17.428845   23.893312 H          1 MOL1         0.0947
      17    C6      18.250258   19.207799   25.149843 C.3        1 MOL1        -0.1437
      18    H12     17.360471   18.902013   25.717690 H          1 MOL1         0.0947
      19    H13     18.175181   20.296659   25.022181 H          1 MOL1         0.0947
      20    C7      19.513530   18.865468   25.973963 C.3        1 MOL1        -0.1477
      21    H14     19.616088   17.775371   26.058033 H          1 MOL1         0.0947
      22    H15     20.410609   19.237349   25.463195 H          1 MOL1         0.0947
      23    C8      19.447274   19.482652   27.381915 C.3        1 MOL1         0.0145
      24    H16     18.566840   19.104703   27.908633 H          1 MOL1         0.0921
      25    H17     19.361380   20.569828   27.303664 H          1 MOL1         0.0921
      26    N1      20.666437   19.169313   28.224918 N.4        1 MOL1        -0.5969
      27    H18     20.788693   18.160071   28.359107 H          1 MOL1         0.3603
      28    H19     20.601772   19.589291   29.158819 H          1 MOL1         0.3603
      29    H20     21.528178   19.523876   27.796940 H          1 MOL1         0.3603
@<TRIPOS>BOND
    1     1     2    1
    2     1     3    1
    3     1     4    1
    4     1     5    1
    5     5     6    1
    6     5     7    1
    7     5     8    1
    8     8     9    1
    9     8    10    1
   10     8    11    1
   11    11    12    1
   12    11    13    1
   13    11    14    1
   14    14    15    1
   15    14    16    1
   16    14    17    1
   17    17    18    1
   18    17    19    1
   19    17    20    1
   20    20    21    1
   21    20    22    1
   22    20    23    1
   23    23    24    1
   24    23    25    1
   25    23    26    1
   26    26    27    1
   27    26    28    1
   28    26    29    1
@<TRIPOS>SUBSTRUCTURE
       1 MOL1            1 RESIDUE      1      MOL     
@<SCITEGIC>MOL_PROPERTY
VM2 Rank
SciTegic.value.IntegerValue
50

@<SCITEGIC>MOL_PROPERTY
Conf_Id
SciTegic.value.IntegerValue
2631

@<SCITEGIC>MOL_PROPERTY
Probability
SciTegic.value.DoubleValue
0.60

@<SCITEGIC>MOL_PROPERTY
Sum Probability
SciTegic.value.DoubleValue
64.06

@<SCITEGIC>MOL_PROPERTY
Delta G
SciTegic.value.DoubleValue
1.309

@<SCITEGIC>MOL_PROPERTY
G
SciTegic.value.DoubleValue
59.457

@<SCITEGIC>MOL_PROPERTY
E
SciTegic.value.DoubleValue
22.057

@<SCITEGIC>MOL_PROPERTY
-TS
SciTegic.value.DoubleValue
37.400

@<SCITEGIC>MOL_PROPERTY
U+W
SciTegic.value.DoubleValue
-2.087

@<SCITEGIC>MOL_PROPERTY
U
SciTegic.value.DoubleValue
49.389

@<SCITEGIC>MOL_PROPERTY
W
SciTegic.value.DoubleValue
-51.477

@<SCITEGIC>MOL_PROPERTY
W(PB)
SciTegic.value.DoubleValue
-53.993

@<SCITEGIC>MOL_PROPERTY
W(SA)
SciTegic.value.DoubleValue
2.516

@<SCITEGIC>MOL_PROPERTY
Valence
SciTegic.value.DoubleValue
3.628

@<SCITEGIC>MOL_PROPERTY
Coulomb
SciTegic.value.DoubleValue
44.800

@<SCITEGIC>MOL_PROPERTY
VdW
SciTegic.value.DoubleValue
0.962

@<SCITEGIC>MOL_PROPERTY
VdW6
SciTegic.value.DoubleValue
-8.223

@<SCITEGIC>MOL_PROPERTY
VdW12
SciTegic.value.DoubleValue
9.185

@<SCITEGIC>MOL_PROPERTY
Bond
SciTegic.value.DoubleValue
0.219

@<SCITEGIC>MOL_PROPERTY
Angle
SciTegic.value.DoubleValue
0.899

@<SCITEGIC>MOL_PROPERTY
Pdih
SciTegic.value.DoubleValue
2.510

@<SCITEGIC>MOL_PROPERTY
Idih
SciTegic.value.DoubleValue
0.000

@<SCITEGIC>MOL_PROPERTY
Tether
SciTegic.value.DoubleValue
0.000

@<TRIPOS>MOLECULE
guest-3_vm2.mol2 : vm2 ligand conformer 51
          29          28           1
SMALL
USER_CHARGES
 
@<TRIPOS>ATOM
       1    C1      19.519603   17.719927   20.044444 C.3        1 MOL1        -0.2427
       2    H1      19.322207   17.064512   20.901732 H          1 MOL1         0.0958
       3    H2      18.556600   18.058163   19.640399 H          1 MOL1         0.0958
       4    H3      20.013364   17.114600   19.273273 H          1 MOL1         0.0958
       5    C2      20.408346   18.920607   20.440640 C.3        1 MOL1        -0.1412
       6    H4      20.677864   19.476722   19.531876 H          1 MOL1         0.0947
       7    H5      21.352280   18.556085   20.869385 H          1 MOL1         0.0947
       8    C3      19.723581   19.891844   21.432241 C.3        1 MOL1        -0.1437
       9    H6      20.376761   20.764041   21.573432 H          1 MOL1         0.0947
      10    H7      18.792367   20.271279   20.989429 H          1 MOL1         0.0947
      11    C4      19.425281   19.256110   22.811210 C.3        1 MOL1        -0.1437
      12    H8      20.351384   18.827877   23.215982 H          1 MOL1         0.0947
      13    H9      18.712483   18.429363   22.694641 H          1 MOL1         0.0947
      14    C5      18.843253   20.291273   23.803571 C.3        1 MOL1        -0.1437
      15    H10     19.574937   21.092753   23.975480 H          1 MOL1         0.0947
      16    H11     17.964713   20.768306   23.347505 H          1 MOL1         0.0947
      17    C6      18.418495   19.677649   25.160312 C.3        1 MOL1        -0.1437
      18    H12     17.671952   18.889365   24.990515 H          1 MOL1         0.0947
      19    H13     17.916226   20.455398   25.752351 H          1 MOL1         0.0947
      20    C7      19.600497   19.108456   25.979525 C.3        1 MOL1        -0.1477
      21    H14     20.065689   18.272749   25.441823 H          1 MOL1         0.0947
      22    H15     20.369692   19.882015   26.105382 H          1 MOL1         0.0947
      23    C8      19.137810   18.618017   27.362649 C.3        1 MOL1         0.0145
      24    H16     18.383502   17.835691   27.242500 H          1 MOL1         0.0921
      25    H17     18.688816   19.447164   27.916147 H          1 MOL1         0.0921
      26    N1      20.267133   18.054117   28.200408 N.4        1 MOL1        -0.5969
      27    H18     20.715078   17.250976   27.746770 H          1 MOL1         0.3603
      28    H19     19.937487   17.733781   29.117716 H          1 MOL1         0.3603
      29    H20     20.999357   18.750995   28.372837 H          1 MOL1         0.3603
@<TRIPOS>BOND
    1     1     2    1
    2     1     3    1
    3     1     4    1
    4     1     5    1
    5     5     6    1
    6     5     7    1
    7     5     8    1
    8     8     9    1
    9     8    10    1
   10     8    11    1
   11    11    12    1
   12    11    13    1
   13    11    14    1
   14    14    15    1
   15    14    16    1
   16    14    17    1
   17    17    18    1
   18    17    19    1
   19    17    20    1
   20    20    21    1
   21    20    22    1
   22    20    23    1
   23    23    24    1
   24    23    25    1
   25    23    26    1
   26    26    27    1
   27    26    28    1
   28    26    29    1
@<TRIPOS>SUBSTRUCTURE
       1 MOL1            1 RESIDUE      1      MOL     
@<SCITEGIC>MOL_PROPERTY
VM2 Rank
SciTegic.value.IntegerValue
51

@<SCITEGIC>MOL_PROPERTY
Conf_Id
SciTegic.value.IntegerValue
1492

@<SCITEGIC>MOL_PROPERTY
Probability
SciTegic.value.DoubleValue
0.59

@<SCITEGIC>MOL_PROPERTY
Sum Probability
SciTegic.value.DoubleValue
64.65

@<SCITEGIC>MOL_PROPERTY
Delta G
SciTegic.value.DoubleValue
1.319

@<SCITEGIC>MOL_PROPERTY
G
SciTegic.value.DoubleValue
59.467

@<SCITEGIC>MOL_PROPERTY
E
SciTegic.value.DoubleValue
22.068

@<SCITEGIC>MOL_PROPERTY
-TS
SciTegic.value.DoubleValue
37.400

@<SCITEGIC>MOL_PROPERTY
U+W
SciTegic.value.DoubleValue
-2.077

@<SCITEGIC>MOL_PROPERTY
U
SciTegic.value.DoubleValue
49.389

@<SCITEGIC>MOL_PROPERTY
W
SciTegic.value.DoubleValue
-51.466

@<SCITEGIC>MOL_PROPERTY
W(PB)
SciTegic.value.DoubleValue
-54.002

@<SCITEGIC>MOL_PROPERTY
W(SA)
SciTegic.value.DoubleValue
2.536

@<SCITEGIC>MOL_PROPERTY
Valence
SciTegic.value.DoubleValue
3.628

@<SCITEGIC>MOL_PROPERTY
Coulomb
SciTegic.value.DoubleValue
44.800

@<SCITEGIC>MOL_PROPERTY
VdW
SciTegic.value.DoubleValue
0.961

@<SCITEGIC>MOL_PROPERTY
VdW6
SciTegic.value.DoubleValue
-8.223

@<SCITEGIC>MOL_PROPERTY
VdW12
SciTegic.value.DoubleValue
9.184

@<SCITEGIC>MOL_PROPERTY
Bond
SciTegic.value.DoubleValue
0.219

@<SCITEGIC>MOL_PROPERTY
Angle
SciTegic.value.DoubleValue
0.899

@<SCITEGIC>MOL_PROPERTY
Pdih
SciTegic.value.DoubleValue
2.510

@<SCITEGIC>MOL_PROPERTY
Idih
SciTegic.value.DoubleValue
0.000

@<SCITEGIC>MOL_PROPERTY
Tether
SciTegic.value.DoubleValue
0.000

@<TRIPOS>MOLECULE
guest-3_vm2.mol2 : vm2 ligand conformer 52
          29          28           1
SMALL
USER_CHARGES
 
@<TRIPOS>ATOM
       1    C1      20.679228   19.994034   20.361468 C.3        1 MOL1        -0.2427
       2    H1      20.022334   20.561129   19.689276 H          1 MOL1         0.0958
       3    H2      20.756090   20.540470   21.309749 H          1 MOL1         0.0958
       4    H3      21.680305   19.969594   19.911932 H          1 MOL1         0.0958
       5    C2      20.147414   18.559233   20.577122 C.3        1 MOL1        -0.1412
       6    H4      20.808362   18.018794   21.267824 H          1 MOL1         0.0947
       7    H5      20.200567   18.015413   19.623675 H          1 MOL1         0.0947
       8    C3      18.685128   18.514377   21.089130 C.3        1 MOL1        -0.1437
       9    H6      18.028183   18.951264   20.324506 H          1 MOL1         0.0947
      10    H7      18.376418   17.464429   21.186136 H          1 MOL1         0.0947
      11    C4      18.431450   19.240392   22.435522 C.3        1 MOL1        -0.1437
      12    H8      17.363416   19.153643   22.678214 H          1 MOL1         0.0947
      13    H9      18.629306   20.314749   22.324634 H          1 MOL1         0.0947
      14    C5      19.262776   18.673026   23.610782 C.3        1 MOL1        -0.1437
      15    H10     19.096099   17.589826   23.688653 H          1 MOL1         0.0947
      16    H11     20.333267   18.818972   23.415205 H          1 MOL1         0.0947
      17    C6      18.897092   19.350091   24.950883 C.3        1 MOL1        -0.1437
      18    H12     17.827813   19.203281   25.157746 H          1 MOL1         0.0947
      19    H13     19.059684   20.434031   24.871001 H          1 MOL1         0.0947
      20    C7      19.729640   18.789824   26.124883 C.3        1 MOL1        -0.1477
      21    H14     19.566254   17.707208   26.210614 H          1 MOL1         0.0947
      22    H15     20.799020   18.939860   25.924836 H          1 MOL1         0.0947
      23    C8      19.357416   19.470265   27.453806 C.3        1 MOL1         0.0145
      24    H16     18.296857   19.309433   27.665477 H          1 MOL1         0.0921
      25    H17     19.534185   20.546626   27.378606 H          1 MOL1         0.0921
      26    N1      20.153856   18.946758   28.631404 N.4        1 MOL1        -0.5969
      27    H18     19.890589   19.412910   29.506698 H          1 MOL1         0.3603
      28    H19     21.161122   19.092798   28.506411 H          1 MOL1         0.3603
      29    H20     20.009683   17.941458   28.773278 H          1 MOL1         0.3603
@<TRIPOS>BOND
    1     1     2    1
    2     1     3    1
    3     1     4    1
    4     1     5    1
    5     5     6    1
    6     5     7    1
    7     5     8    1
    8     8     9    1
    9     8    10    1
   10     8    11    1
   11    11    12    1
   12    11    13    1
   13    11    14    1
   14    14    15    1
   15    14    16    1
   16    14    17    1
   17    17    18    1
   18    17    19    1
   19    17    20    1
   20    20    21    1
   21    20    22    1
   22    20    23    1
   23    23    24    1
   24    23    25    1
   25    23    26    1
   26    26    27    1
   27    26    28    1
   28    26    29    1
@<TRIPOS>SUBSTRUCTURE
       1 MOL1            1 RESIDUE      1      MOL     
@<SCITEGIC>MOL_PROPERTY
VM2 Rank
SciTegic.value.IntegerValue
52

@<SCITEGIC>MOL_PROPERTY
Conf_Id
SciTegic.value.IntegerValue
1948

@<SCITEGIC>MOL_PROPERTY
Probability
SciTegic.value.DoubleValue
0.57

@<SCITEGIC>MOL_PROPERTY
Sum Probability
SciTegic.value.DoubleValue
65.22

@<SCITEGIC>MOL_PROPERTY
Delta G
SciTegic.value.DoubleValue
1.338

@<SCITEGIC>MOL_PROPERTY
G
SciTegic.value.DoubleValue
59.486

@<SCITEGIC>MOL_PROPERTY
E
SciTegic.value.DoubleValue
21.871

@<SCITEGIC>MOL_PROPERTY
-TS
SciTegic.value.DoubleValue
37.616

@<SCITEGIC>MOL_PROPERTY
U+W
SciTegic.value.DoubleValue
-2.274

@<SCITEGIC>MOL_PROPERTY
U
SciTegic.value.DoubleValue
48.920

@<SCITEGIC>MOL_PROPERTY
W
SciTegic.value.DoubleValue
-51.193

@<SCITEGIC>MOL_PROPERTY
W(PB)
SciTegic.value.DoubleValue
-53.702

@<SCITEGIC>MOL_PROPERTY
W(SA)
SciTegic.value.DoubleValue
2.509

@<SCITEGIC>MOL_PROPERTY
Valence
SciTegic.value.DoubleValue
3.544

@<SCITEGIC>MOL_PROPERTY
Coulomb
SciTegic.value.DoubleValue
44.554

@<SCITEGIC>MOL_PROPERTY
VdW
SciTegic.value.DoubleValue
0.822

@<SCITEGIC>MOL_PROPERTY
VdW6
SciTegic.value.DoubleValue
-8.501

@<SCITEGIC>MOL_PROPERTY
VdW12
SciTegic.value.DoubleValue
9.324

@<SCITEGIC>MOL_PROPERTY
Bond
SciTegic.value.DoubleValue
0.224

@<SCITEGIC>MOL_PROPERTY
Angle
SciTegic.value.DoubleValue
1.044

@<SCITEGIC>MOL_PROPERTY
Pdih
SciTegic.value.DoubleValue
2.276

@<SCITEGIC>MOL_PROPERTY
Idih
SciTegic.value.DoubleValue
0.000

@<SCITEGIC>MOL_PROPERTY
Tether
SciTegic.value.DoubleValue
0.000

@<TRIPOS>MOLECULE
guest-3_vm2.mol2 : vm2 ligand conformer 53
          29          28           1
SMALL
USER_CHARGES
 
@<TRIPOS>ATOM
       1    C1      19.864442   19.062054   19.342850 C.3        1 MOL1        -0.2427
       2    H1      20.442355   19.967303   19.565855 H          1 MOL1         0.0958
       3    H2      20.551345   18.205791   19.343019 H          1 MOL1         0.0958
       4    H3      19.463032   19.169960   18.326898 H          1 MOL1         0.0958
       5    C2      18.717232   18.854485   20.357618 C.3        1 MOL1        -0.1412
       6    H4      18.094512   18.014975   20.018177 H          1 MOL1         0.0947
       7    H5      18.064204   19.738358   20.364205 H          1 MOL1         0.0947
       8    C3      19.209404   18.556147   21.794602 C.3        1 MOL1        -0.1437
       9    H6      18.335594   18.290111   22.402832 H          1 MOL1         0.0947
      10    H7      19.860587   17.671381   21.782716 H          1 MOL1         0.0947
      11    C4      19.955061   19.746179   22.450485 C.3        1 MOL1        -0.1437
      12    H8      19.302754   20.630051   22.465622 H          1 MOL1         0.0947
      13    H9      20.824561   20.014305   21.836774 H          1 MOL1         0.0947
      14    C5      20.457548   19.447578   23.884604 C.3        1 MOL1        -0.1437
      15    H10     21.107700   18.561928   23.869512 H          1 MOL1         0.0947
      16    H11     21.087267   20.286370   24.212108 H          1 MOL1         0.0947
      17    C6      19.318808   19.243956   24.912913 C.3        1 MOL1        -0.1437
      18    H12     18.726049   18.358636   24.648337 H          1 MOL1         0.0947
      19    H13     18.637718   20.105783   24.882941 H          1 MOL1         0.0947
      20    C7      19.866221   19.071230   26.346816 C.3        1 MOL1        -0.1477
      21    H14     20.547125   18.210237   26.381196 H          1 MOL1         0.0947
      22    H15     20.451230   19.956713   26.629249 H          1 MOL1         0.0947
      23    C8      18.728797   18.865064   27.362416 C.3        1 MOL1         0.0145
      24    H16     18.153347   17.974611   27.095200 H          1 MOL1         0.0921
      25    H17     18.057213   19.727657   27.343320 H          1 MOL1         0.0921
      26    N1      19.226486   18.691307   28.782695 N.4        1 MOL1        -0.5969
      27    H18     19.754552   19.509107   29.105023 H          1 MOL1         0.3603
      28    H19     19.844035   17.877787   28.874117 H          1 MOL1         0.3603
      29    H20     18.453292   18.555399   29.443333 H          1 MOL1         0.3603
@<TRIPOS>BOND
    1     1     2    1
    2     1     3    1
    3     1     4    1
    4     1     5    1
    5     5     6    1
    6     5     7    1
    7     5     8    1
    8     8     9    1
    9     8    10    1
   10     8    11    1
   11    11    12    1
   12    11    13    1
   13    11    14    1
   14    14    15    1
   15    14    16    1
   16    14    17    1
   17    17    18    1
   18    17    19    1
   19    17    20    1
   20    20    21    1
   21    20    22    1
   22    20    23    1
   23    23    24    1
   24    23    25    1
   25    23    26    1
   26    26    27    1
   27    26    28    1
   28    26    29    1
@<TRIPOS>SUBSTRUCTURE
       1 MOL1            1 RESIDUE      1      MOL     
@<SCITEGIC>MOL_PROPERTY
VM2 Rank
SciTegic.value.IntegerValue
53

@<SCITEGIC>MOL_PROPERTY
Conf_Id
SciTegic.value.IntegerValue
1341

@<SCITEGIC>MOL_PROPERTY
Probability
SciTegic.value.DoubleValue
0.55

@<SCITEGIC>MOL_PROPERTY
Sum Probability
SciTegic.value.DoubleValue
65.77

@<SCITEGIC>MOL_PROPERTY
Delta G
SciTegic.value.DoubleValue
1.355

@<SCITEGIC>MOL_PROPERTY
G
SciTegic.value.DoubleValue
59.503

@<SCITEGIC>MOL_PROPERTY
E
SciTegic.value.DoubleValue
22.166

@<SCITEGIC>MOL_PROPERTY
-TS
SciTegic.value.DoubleValue
37.336

@<SCITEGIC>MOL_PROPERTY
U+W
SciTegic.value.DoubleValue
-1.978

@<SCITEGIC>MOL_PROPERTY
U
SciTegic.value.DoubleValue
49.254

@<SCITEGIC>MOL_PROPERTY
W
SciTegic.value.DoubleValue
-51.232

@<SCITEGIC>MOL_PROPERTY
W(PB)
SciTegic.value.DoubleValue
-53.763

@<SCITEGIC>MOL_PROPERTY
W(SA)
SciTegic.value.DoubleValue
2.532

@<SCITEGIC>MOL_PROPERTY
Valence
SciTegic.value.DoubleValue
3.706

@<SCITEGIC>MOL_PROPERTY
Coulomb
SciTegic.value.DoubleValue
44.522

@<SCITEGIC>MOL_PROPERTY
VdW
SciTegic.value.DoubleValue
1.026

@<SCITEGIC>MOL_PROPERTY
VdW6
SciTegic.value.DoubleValue
-8.144

@<SCITEGIC>MOL_PROPERTY
VdW12
SciTegic.value.DoubleValue
9.170

@<SCITEGIC>MOL_PROPERTY
Bond
SciTegic.value.DoubleValue
0.228

@<SCITEGIC>MOL_PROPERTY
Angle
SciTegic.value.DoubleValue
0.952

@<SCITEGIC>MOL_PROPERTY
Pdih
SciTegic.value.DoubleValue
2.525

@<SCITEGIC>MOL_PROPERTY
Idih
SciTegic.value.DoubleValue
0.000

@<SCITEGIC>MOL_PROPERTY
Tether
SciTegic.value.DoubleValue
0.000

@<TRIPOS>MOLECULE
guest-3_vm2.mol2 : vm2 ligand conformer 54
          29          28           1
SMALL
USER_CHARGES
 
@<TRIPOS>ATOM
       1    C1      21.186108   19.693483   20.500563 C.3        1 MOL1        -0.2427
       2    H1      21.608103   20.289216   19.680834 H          1 MOL1         0.0958
       3    H2      21.392928   20.227504   21.436229 H          1 MOL1         0.0958
       4    H3      21.718234   18.733696   20.526617 H          1 MOL1         0.0958
       5    C2      19.669571   19.482464   20.290268 C.3        1 MOL1        -0.1412
       6    H4      19.506815   19.058742   19.289404 H          1 MOL1         0.0947
       7    H5      19.156306   20.454156   20.299955 H          1 MOL1         0.0947
       8    C3      19.027782   18.541073   21.337880 C.3        1 MOL1        -0.1437
       9    H6      17.983739   18.358513   21.048235 H          1 MOL1         0.0947
      10    H7      19.531267   17.564847   21.311196 H          1 MOL1         0.0947
      11    C4      19.061898   19.106400   22.778063 C.3        1 MOL1        -0.1437
      12    H8      18.600088   20.103144   22.791313 H          1 MOL1         0.0947
      13    H9      20.103961   19.230632   23.096546 H          1 MOL1         0.0947
      14    C5      18.322324   18.180433   23.773514 C.3        1 MOL1        -0.1437
      15    H10     17.301206   18.004600   23.407840 H          1 MOL1         0.0947
      16    H11     18.813570   17.197960   23.800564 H          1 MOL1         0.0947
      17    C6      18.235295   18.756672   25.208160 C.3        1 MOL1        -0.1437
      18    H12     17.598415   18.094511   25.811159 H          1 MOL1         0.0947
      19    H13     17.729526   19.731929   25.183371 H          1 MOL1         0.0947
      20    C7      19.609709   18.899608   25.903099 C.3        1 MOL1        -0.1477
      21    H14     20.137133   17.936674   25.881213 H          1 MOL1         0.0947
      22    H15     20.233194   19.623450   25.363471 H          1 MOL1         0.0947
      23    C8      19.453386   19.363614   27.361832 C.3        1 MOL1         0.0145
      24    H16     18.848982   18.640131   27.915644 H          1 MOL1         0.0921
      25    H17     18.943157   20.330274   27.388017 H          1 MOL1         0.0921
      26    N1      20.777927   19.514253   28.081622 N.4        1 MOL1        -0.5969
      27    H18     21.296804   18.630426   28.115339 H          1 MOL1         0.3603
      28    H19     20.651072   19.823497   29.051679 H          1 MOL1         0.3603
      29    H20     21.384486   20.203632   27.625207 H          1 MOL1         0.3603
@<TRIPOS>BOND
    1     1     2    1
    2     1     3    1
    3     1     4    1
    4     1     5    1
    5     5     6    1
    6     5     7    1
    7     5     8    1
    8     8     9    1
    9     8    10    1
   10     8    11    1
   11    11    12    1
   12    11    13    1
   13    11    14    1
   14    14    15    1
   15    14    16    1
   16    14    17    1
   17    17    18    1
   18    17    19    1
   19    17    20    1
   20    20    21    1
   21    20    22    1
   22    20    23    1
   23    23    24    1
   24    23    25    1
   25    23    26    1
   26    26    27    1
   27    26    28    1
   28    26    29    1
@<TRIPOS>SUBSTRUCTURE
       1 MOL1            1 RESIDUE      1      MOL     
@<SCITEGIC>MOL_PROPERTY
VM2 Rank
SciTegic.value.IntegerValue
54

@<SCITEGIC>MOL_PROPERTY
Conf_Id
SciTegic.value.IntegerValue
1835

@<SCITEGIC>MOL_PROPERTY
Probability
SciTegic.value.DoubleValue
0.55

@<SCITEGIC>MOL_PROPERTY
Sum Probability
SciTegic.value.DoubleValue
66.32

@<SCITEGIC>MOL_PROPERTY
Delta G
SciTegic.value.DoubleValue
1.356

@<SCITEGIC>MOL_PROPERTY
G
SciTegic.value.DoubleValue
59.504

@<SCITEGIC>MOL_PROPERTY
E
SciTegic.value.DoubleValue
22.112

@<SCITEGIC>MOL_PROPERTY
-TS
SciTegic.value.DoubleValue
37.393

@<SCITEGIC>MOL_PROPERTY
U+W
SciTegic.value.DoubleValue
-2.033

@<SCITEGIC>MOL_PROPERTY
U
SciTegic.value.DoubleValue
49.480

@<SCITEGIC>MOL_PROPERTY
W
SciTegic.value.DoubleValue
-51.513

@<SCITEGIC>MOL_PROPERTY
W(PB)
SciTegic.value.DoubleValue
-54.058

@<SCITEGIC>MOL_PROPERTY
W(SA)
SciTegic.value.DoubleValue
2.546

@<SCITEGIC>MOL_PROPERTY
Valence
SciTegic.value.DoubleValue
3.628

@<SCITEGIC>MOL_PROPERTY
Coulomb
SciTegic.value.DoubleValue
44.888

@<SCITEGIC>MOL_PROPERTY
VdW
SciTegic.value.DoubleValue
0.963

@<SCITEGIC>MOL_PROPERTY
VdW6
SciTegic.value.DoubleValue
-8.237

@<SCITEGIC>MOL_PROPERTY
VdW12
SciTegic.value.DoubleValue
9.201

@<SCITEGIC>MOL_PROPERTY
Bond
SciTegic.value.DoubleValue
0.221

@<SCITEGIC>MOL_PROPERTY
Angle
SciTegic.value.DoubleValue
0.900

@<SCITEGIC>MOL_PROPERTY
Pdih
SciTegic.value.DoubleValue
2.508

@<SCITEGIC>MOL_PROPERTY
Idih
SciTegic.value.DoubleValue
0.000

@<SCITEGIC>MOL_PROPERTY
Tether
SciTegic.value.DoubleValue
0.000

@<TRIPOS>MOLECULE
guest-3_vm2.mol2 : vm2 ligand conformer 55
          29          28           1
SMALL
USER_CHARGES
 
@<TRIPOS>ATOM
       1    C1      20.251383   18.589682   19.362251 C.3        1 MOL1        -0.2427
       2    H1      20.885418   19.424624   19.036523 H          1 MOL1         0.0958
       3    H2      20.704793   17.659551   18.995772 H          1 MOL1         0.0958
       4    H3      19.269828   18.698185   18.882640 H          1 MOL1         0.0958
       5    C2      20.116868   18.561491   20.899472 C.3        1 MOL1        -0.1412
       6    H4      21.109747   18.422601   21.349540 H          1 MOL1         0.0947
       7    H5      19.511397   17.692148   21.188344 H          1 MOL1         0.0947
       8    C3      19.475832   19.861638   21.439364 C.3        1 MOL1        -0.1437
       9    H6      20.053559   20.722612   21.075708 H          1 MOL1         0.0947
      10    H7      18.463354   19.974066   21.027710 H          1 MOL1         0.0947
      11    C4      19.418222   19.926605   22.985254 C.3        1 MOL1        -0.1437
      12    H8      19.052155   20.920163   23.278407 H          1 MOL1         0.0947
      13    H9      20.436501   19.839688   23.386478 H          1 MOL1         0.0947
      14    C5      18.503115   18.845101   23.613248 C.3        1 MOL1        -0.1437
      15    H10     17.527859   18.863400   23.107569 H          1 MOL1         0.0947
      16    H11     18.924464   17.846289   23.439098 H          1 MOL1         0.0947
      17    C6      18.272406   19.040510   25.131777 C.3        1 MOL1        -0.1437
      18    H12     17.534285   18.300236   25.470663 H          1 MOL1         0.0947
      19    H13     17.824355   20.027464   25.312636 H          1 MOL1         0.0947
      20    C7      19.559498   18.889688   25.976008 C.3        1 MOL1        -0.1477
      21    H14     20.032666   17.922699   25.759348 H          1 MOL1         0.0947
      22    H15     20.281280   19.671331   25.707439 H          1 MOL1         0.0947
      23    C8      19.255615   18.984168   27.481434 C.3        1 MOL1         0.0145
      24    H16     18.551162   18.197551   27.765018 H          1 MOL1         0.0921
      25    H17     18.799035   19.952202   27.704800 H          1 MOL1         0.0921
      26    N1      20.491062   18.839117   28.346192 N.4        1 MOL1        -0.5969
      27    H18     20.266411   18.904619   29.345179 H          1 MOL1         0.3603
      28    H19     21.184173   19.568211   28.147443 H          1 MOL1         0.3603
      29    H20     20.953580   17.935237   28.202687 H          1 MOL1         0.3603
@<TRIPOS>BOND
    1     1     2    1
    2     1     3    1
    3     1     4    1
    4     1     5    1
    5     5     6    1
    6     5     7    1
    7     5     8    1
    8     8     9    1
    9     8    10    1
   10     8    11    1
   11    11    12    1
   12    11    13    1
   13    11    14    1
   14    14    15    1
   15    14    16    1
   16    14    17    1
   17    17    18    1
   18    17    19    1
   19    17    20    1
   20    20    21    1
   21    20    22    1
   22    20    23    1
   23    23    24    1
   24    23    25    1
   25    23    26    1
   26    26    27    1
   27    26    28    1
   28    26    29    1
@<TRIPOS>SUBSTRUCTURE
       1 MOL1            1 RESIDUE      1      MOL     
@<SCITEGIC>MOL_PROPERTY
VM2 Rank
SciTegic.value.IntegerValue
55

@<SCITEGIC>MOL_PROPERTY
Conf_Id
SciTegic.value.IntegerValue
1637

@<SCITEGIC>MOL_PROPERTY
Probability
SciTegic.value.DoubleValue
0.54

@<SCITEGIC>MOL_PROPERTY
Sum Probability
SciTegic.value.DoubleValue
66.86

@<SCITEGIC>MOL_PROPERTY
Delta G
SciTegic.value.DoubleValue
1.369

@<SCITEGIC>MOL_PROPERTY
G
SciTegic.value.DoubleValue
59.517

@<SCITEGIC>MOL_PROPERTY
E
SciTegic.value.DoubleValue
22.102

@<SCITEGIC>MOL_PROPERTY
-TS
SciTegic.value.DoubleValue
37.415

@<SCITEGIC>MOL_PROPERTY
U+W
SciTegic.value.DoubleValue
-2.042

@<SCITEGIC>MOL_PROPERTY
U
SciTegic.value.DoubleValue
49.434

@<SCITEGIC>MOL_PROPERTY
W
SciTegic.value.DoubleValue
-51.477

@<SCITEGIC>MOL_PROPERTY
W(PB)
SciTegic.value.DoubleValue
-53.998

@<SCITEGIC>MOL_PROPERTY
W(SA)
SciTegic.value.DoubleValue
2.521

@<SCITEGIC>MOL_PROPERTY
Valence
SciTegic.value.DoubleValue
3.636

@<SCITEGIC>MOL_PROPERTY
Coulomb
SciTegic.value.DoubleValue
44.866

@<SCITEGIC>MOL_PROPERTY
VdW
SciTegic.value.DoubleValue
0.931

@<SCITEGIC>MOL_PROPERTY
VdW6
SciTegic.value.DoubleValue
-8.276

@<SCITEGIC>MOL_PROPERTY
VdW12
SciTegic.value.DoubleValue
9.207

@<SCITEGIC>MOL_PROPERTY
Bond
SciTegic.value.DoubleValue
0.222

@<SCITEGIC>MOL_PROPERTY
Angle
SciTegic.value.DoubleValue
0.875

@<SCITEGIC>MOL_PROPERTY
Pdih
SciTegic.value.DoubleValue
2.540

@<SCITEGIC>MOL_PROPERTY
Idih
SciTegic.value.DoubleValue
0.000

@<SCITEGIC>MOL_PROPERTY
Tether
SciTegic.value.DoubleValue
0.000

@<TRIPOS>MOLECULE
guest-3_vm2.mol2 : vm2 ligand conformer 56
          29          28           1
SMALL
USER_CHARGES
 
@<TRIPOS>ATOM
       1    C1      19.841689   18.998068   19.341399 C.3        1 MOL1        -0.2427
       2    H1      20.914824   19.227865   19.365788 H          1 MOL1         0.0958
       3    H2      19.715436   17.923239   19.520266 H          1 MOL1         0.0958
       4    H3      19.476574   19.208005   18.327717 H          1 MOL1         0.0958
       5    C2      19.068683   19.842752   20.379618 C.3        1 MOL1        -0.1412
       6    H4      18.004295   19.569934   20.360401 H          1 MOL1         0.0947
       7    H5      19.120353   20.899540   20.082456 H          1 MOL1         0.0947
       8    C3      19.618445   19.706381   21.820220 C.3        1 MOL1        -0.1437
       9    H6      20.682042   19.981257   21.834193 H          1 MOL1         0.0947
      10    H7      19.100111   20.439896   22.450735 H          1 MOL1         0.0947
      11    C4      19.436423   18.287948   22.417950 C.3        1 MOL1        -0.1437
      12    H8      19.950136   17.555741   21.781920 H          1 MOL1         0.0947
      13    H9      18.372467   18.014365   22.407306 H          1 MOL1         0.0947
      14    C5      19.994437   18.145355   23.855534 C.3        1 MOL1        -0.1437
      15    H10     19.948708   17.085184   24.140712 H          1 MOL1         0.0947
      16    H11     21.057867   18.421585   23.866311 H          1 MOL1         0.0947
      17    C6      19.225462   18.981201   24.907036 C.3        1 MOL1        -0.1437
      18    H12     18.153686   18.744881   24.852480 H          1 MOL1         0.0947
      19    H13     19.328501   20.051598   24.686148 H          1 MOL1         0.0947
      20    C7      19.738670   18.712540   26.338828 C.3        1 MOL1        -0.1477
      21    H14     19.629338   17.646185   26.577611 H          1 MOL1         0.0947
      22    H15     20.809696   18.948228   26.397788 H          1 MOL1         0.0947
      23    C8      18.972421   19.549930   27.377738 C.3        1 MOL1         0.0145
      24    H16     17.907374   19.306619   27.333753 H          1 MOL1         0.0921
      25    H17     19.092208   20.613503   27.154320 H          1 MOL1         0.0921
      26    N1      19.447770   19.313826   28.796677 N.4        1 MOL1        -0.5969
      27    H18     19.336281   18.334256   29.078736 H          1 MOL1         0.3603
      28    H19     18.924657   19.880993   29.473005 H          1 MOL1         0.3603
      29    H20     20.438915   19.550333   28.911737 H          1 MOL1         0.3603
@<TRIPOS>BOND
    1     1     2    1
    2     1     3    1
    3     1     4    1
    4     1     5    1
    5     5     6    1
    6     5     7    1
    7     5     8    1
    8     8     9    1
    9     8    10    1
   10     8    11    1
   11    11    12    1
   12    11    13    1
   13    11    14    1
   14    14    15    1
   15    14    16    1
   16    14    17    1
   17    17    18    1
   18    17    19    1
   19    17    20    1
   20    20    21    1
   21    20    22    1
   22    20    23    1
   23    23    24    1
   24    23    25    1
   25    23    26    1
   26    26    27    1
   27    26    28    1
   28    26    29    1
@<TRIPOS>SUBSTRUCTURE
       1 MOL1            1 RESIDUE      1      MOL     
@<SCITEGIC>MOL_PROPERTY
VM2 Rank
SciTegic.value.IntegerValue
56

@<SCITEGIC>MOL_PROPERTY
Conf_Id
SciTegic.value.IntegerValue
1528

@<SCITEGIC>MOL_PROPERTY
Probability
SciTegic.value.DoubleValue
0.53

@<SCITEGIC>MOL_PROPERTY
Sum Probability
SciTegic.value.DoubleValue
67.40

@<SCITEGIC>MOL_PROPERTY
Delta G
SciTegic.value.DoubleValue
1.379

@<SCITEGIC>MOL_PROPERTY
G
SciTegic.value.DoubleValue
59.527

@<SCITEGIC>MOL_PROPERTY
E
SciTegic.value.DoubleValue
22.189

@<SCITEGIC>MOL_PROPERTY
-TS
SciTegic.value.DoubleValue
37.338

@<SCITEGIC>MOL_PROPERTY
U+W
SciTegic.value.DoubleValue
-1.955

@<SCITEGIC>MOL_PROPERTY
U
SciTegic.value.DoubleValue
49.254

@<SCITEGIC>MOL_PROPERTY
W
SciTegic.value.DoubleValue
-51.209

@<SCITEGIC>MOL_PROPERTY
W(PB)
SciTegic.value.DoubleValue
-53.714

@<SCITEGIC>MOL_PROPERTY
W(SA)
SciTegic.value.DoubleValue
2.505

@<SCITEGIC>MOL_PROPERTY
Valence
SciTegic.value.DoubleValue
3.706

@<SCITEGIC>MOL_PROPERTY
Coulomb
SciTegic.value.DoubleValue
44.522

@<SCITEGIC>MOL_PROPERTY
VdW
SciTegic.value.DoubleValue
1.026

@<SCITEGIC>MOL_PROPERTY
VdW6
SciTegic.value.DoubleValue
-8.144

@<SCITEGIC>MOL_PROPERTY
VdW12
SciTegic.value.DoubleValue
9.170

@<SCITEGIC>MOL_PROPERTY
Bond
SciTegic.value.DoubleValue
0.228

@<SCITEGIC>MOL_PROPERTY
Angle
SciTegic.value.DoubleValue
0.952

@<SCITEGIC>MOL_PROPERTY
Pdih
SciTegic.value.DoubleValue
2.525

@<SCITEGIC>MOL_PROPERTY
Idih
SciTegic.value.DoubleValue
0.000

@<SCITEGIC>MOL_PROPERTY
Tether
SciTegic.value.DoubleValue
0.000

@<TRIPOS>MOLECULE
guest-3_vm2.mol2 : vm2 ligand conformer 57
          29          28           1
SMALL
USER_CHARGES
 
@<TRIPOS>ATOM
       1    C1      20.450284   17.628087   20.454352 C.3        1 MOL1        -0.2427
       2    H1      20.259761   17.046939   21.365061 H          1 MOL1         0.0958
       3    H2      20.412349   16.932858   19.605735 H          1 MOL1         0.0958
       4    H3      21.468825   18.033544   20.510978 H          1 MOL1         0.0958
       5    C2      19.411589   18.758236   20.274043 C.3        1 MOL1        -0.1412
       6    H4      18.399633   18.330222   20.252406 H          1 MOL1         0.0947
       7    H5      19.567449   19.228748   19.293185 H          1 MOL1         0.0947
       8    C3      19.494466   19.850866   21.367154 C.3        1 MOL1        -0.1437
       9    H6      20.501930   20.289292   21.372099 H          1 MOL1         0.0947
      10    H7      18.804957   20.663476   21.099779 H          1 MOL1         0.0947
      11    C4      19.143282   19.334621   22.783151 C.3        1 MOL1        -0.1437
      12    H8      19.867794   18.567359   23.081739 H          1 MOL1         0.0947
      13    H9      18.155391   18.854389   22.763346 H          1 MOL1         0.0947
      14    C5      19.141155   20.479219   23.824879 C.3        1 MOL1        -0.1437
      15    H10     20.142259   20.928228   23.883972 H          1 MOL1         0.0947
      16    H11     18.466133   21.275044   23.480893 H          1 MOL1         0.0947
      17    C6      18.689270   20.031280   25.236608 C.3        1 MOL1        -0.1437
      18    H12     17.681462   19.596890   25.180256 H          1 MOL1         0.0947
      19    H13     18.605531   20.922350   25.874311 H          1 MOL1         0.0947
      20    C7      19.654239   19.024677   25.905914 C.3        1 MOL1        -0.1477
      21    H14     19.687636   18.091776   25.329319 H          1 MOL1         0.0947
      22    H15     20.671726   19.437642   25.914733 H          1 MOL1         0.0947
      23    C8      19.219332   18.706558   27.347195 C.3        1 MOL1         0.0145
      24    H16     18.212730   18.279732   27.342293 H          1 MOL1         0.0921
      25    H17     19.200357   19.626561   27.937683 H          1 MOL1         0.0921
      26    N1      20.140384   17.724457   28.041702 N.4        1 MOL1        -0.5969
      27    H18     20.181206   16.825631   27.549850 H          1 MOL1         0.3603
      28    H19     19.832994   17.526861   29.000452 H          1 MOL1         0.3603
      29    H20     21.100499   18.079328   28.103052 H          1 MOL1         0.3603
@<TRIPOS>BOND
    1     1     2    1
    2     1     3    1
    3     1     4    1
    4     1     5    1
    5     5     6    1
    6     5     7    1
    7     5     8    1
    8     8     9    1
    9     8    10    1
   10     8    11    1
   11    11    12    1
   12    11    13    1
   13    11    14    1
   14    14    15    1
   15    14    16    1
   16    14    17    1
   17    17    18    1
   18    17    19    1
   19    17    20    1
   20    20    21    1
   21    20    22    1
   22    20    23    1
   23    23    24    1
   24    23    25    1
   25    23    26    1
   26    26    27    1
   27    26    28    1
   28    26    29    1
@<TRIPOS>SUBSTRUCTURE
       1 MOL1            1 RESIDUE      1      MOL     
@<SCITEGIC>MOL_PROPERTY
VM2 Rank
SciTegic.value.IntegerValue
57

@<SCITEGIC>MOL_PROPERTY
Conf_Id
SciTegic.value.IntegerValue
2572

@<SCITEGIC>MOL_PROPERTY
Probability
SciTegic.value.DoubleValue
0.52

@<SCITEGIC>MOL_PROPERTY
Sum Probability
SciTegic.value.DoubleValue
67.91

@<SCITEGIC>MOL_PROPERTY
Delta G
SciTegic.value.DoubleValue
1.396

@<SCITEGIC>MOL_PROPERTY
G
SciTegic.value.DoubleValue
59.544

@<SCITEGIC>MOL_PROPERTY
E
SciTegic.value.DoubleValue
22.151

@<SCITEGIC>MOL_PROPERTY
-TS
SciTegic.value.DoubleValue
37.393

@<SCITEGIC>MOL_PROPERTY
U+W
SciTegic.value.DoubleValue
-1.993

@<SCITEGIC>MOL_PROPERTY
U
SciTegic.value.DoubleValue
49.480

@<SCITEGIC>MOL_PROPERTY
W
SciTegic.value.DoubleValue
-51.473

@<SCITEGIC>MOL_PROPERTY
W(PB)
SciTegic.value.DoubleValue
-54.001

@<SCITEGIC>MOL_PROPERTY
W(SA)
SciTegic.value.DoubleValue
2.529

@<SCITEGIC>MOL_PROPERTY
Valence
SciTegic.value.DoubleValue
3.628

@<SCITEGIC>MOL_PROPERTY
Coulomb
SciTegic.value.DoubleValue
44.888

@<SCITEGIC>MOL_PROPERTY
VdW
SciTegic.value.DoubleValue
0.963

@<SCITEGIC>MOL_PROPERTY
VdW6
SciTegic.value.DoubleValue
-8.237

@<SCITEGIC>MOL_PROPERTY
VdW12
SciTegic.value.DoubleValue
9.200

@<SCITEGIC>MOL_PROPERTY
Bond
SciTegic.value.DoubleValue
0.221

@<SCITEGIC>MOL_PROPERTY
Angle
SciTegic.value.DoubleValue
0.900

@<SCITEGIC>MOL_PROPERTY
Pdih
SciTegic.value.DoubleValue
2.508

@<SCITEGIC>MOL_PROPERTY
Idih
SciTegic.value.DoubleValue
0.000

@<SCITEGIC>MOL_PROPERTY
Tether
SciTegic.value.DoubleValue
0.000

@<TRIPOS>MOLECULE
guest-3_vm2.mol2 : vm2 ligand conformer 58
          29          28           1
SMALL
USER_CHARGES
 
@<TRIPOS>ATOM
       1    C1      19.805383   18.965836   19.116272 C.3        1 MOL1        -0.2427
       2    H1      20.449758   19.805885   18.825877 H          1 MOL1         0.0958
       3    H2      20.399441   18.044224   19.061695 H          1 MOL1         0.0958
       4    H3      18.997147   18.890297   18.377293 H          1 MOL1         0.0958
       5    C2      19.230233   19.171202   20.533701 C.3        1 MOL1        -0.1412
       6    H4      18.560573   18.333898   20.769848 H          1 MOL1         0.0947
       7    H5      18.618203   20.083797   20.549446 H          1 MOL1         0.0947
       8    C3      20.352160   19.276045   21.593779 C.3        1 MOL1        -0.1437
       9    H6      20.929081   18.341261   21.617333 H          1 MOL1         0.0947
      10    H7      21.055097   20.063893   21.289636 H          1 MOL1         0.0947
      11    C4      19.836455   19.604333   23.016696 C.3        1 MOL1        -0.1437
      12    H8      19.254748   20.535984   22.990709 H          1 MOL1         0.0947
      13    H9      20.708117   19.801404   23.653594 H          1 MOL1         0.0947
      14    C5      18.984044   18.471262   23.642999 C.3        1 MOL1        -0.1437
      15    H10     18.113140   18.273432   23.005247 H          1 MOL1         0.0947
      16    H11     19.566276   17.539924   23.669358 H          1 MOL1         0.0947
      17    C6      18.467106   18.800028   25.065365 C.3        1 MOL1        -0.1437
      18    H12     17.766788   18.010258   25.371203 H          1 MOL1         0.0947
      19    H13     17.887015   19.732986   25.040291 H          1 MOL1         0.0947
      20    C7      19.588503   18.910424   26.125086 C.3        1 MOL1        -0.1477
      21    H14     20.201166   17.999188   26.111621 H          1 MOL1         0.0947
      22    H15     20.252343   19.751305   25.888877 H          1 MOL1         0.0947
      23    C8      19.007099   19.114127   27.535113 C.3        1 MOL1         0.0145
      24    H16     18.358043   18.272294   27.791007 H          1 MOL1         0.0921
      25    H17     18.409265   20.029287   27.558146 H          1 MOL1         0.0921
      26    N1      20.073017   19.224743   28.605990 N.4        1 MOL1        -0.5969
      27    H18     20.654795   18.381687   28.654131 H          1 MOL1         0.3603
      28    H19     19.664438   19.359493   29.537463 H          1 MOL1         0.3603
      29    H20     20.702178   20.016913   28.438316 H          1 MOL1         0.3603
@<TRIPOS>BOND
    1     1     2    1
    2     1     3    1
    3     1     4    1
    4     1     5    1
    5     5     6    1
    6     5     7    1
    7     5     8    1
    8     8     9    1
    9     8    10    1
   10     8    11    1
   11    11    12    1
   12    11    13    1
   13    11    14    1
   14    14    15    1
   15    14    16    1
   16    14    17    1
   17    17    18    1
   18    17    19    1
   19    17    20    1
   20    20    21    1
   21    20    22    1
   22    20    23    1
   23    23    24    1
   24    23    25    1
   25    23    26    1
   26    26    27    1
   27    26    28    1
   28    26    29    1
@<TRIPOS>SUBSTRUCTURE
       1 MOL1            1 RESIDUE      1      MOL     
@<SCITEGIC>MOL_PROPERTY
VM2 Rank
SciTegic.value.IntegerValue
58

@<SCITEGIC>MOL_PROPERTY
Conf_Id
SciTegic.value.IntegerValue
1275

@<SCITEGIC>MOL_PROPERTY
Probability
SciTegic.value.DoubleValue
0.51

@<SCITEGIC>MOL_PROPERTY
Sum Probability
SciTegic.value.DoubleValue
68.42

@<SCITEGIC>MOL_PROPERTY
Delta G
SciTegic.value.DoubleValue
1.409

@<SCITEGIC>MOL_PROPERTY
G
SciTegic.value.DoubleValue
59.557

@<SCITEGIC>MOL_PROPERTY
E
SciTegic.value.DoubleValue
22.239

@<SCITEGIC>MOL_PROPERTY
-TS
SciTegic.value.DoubleValue
37.318

@<SCITEGIC>MOL_PROPERTY
U+W
SciTegic.value.DoubleValue
-1.906

@<SCITEGIC>MOL_PROPERTY
U
SciTegic.value.DoubleValue
49.514

@<SCITEGIC>MOL_PROPERTY
W
SciTegic.value.DoubleValue
-51.420

@<SCITEGIC>MOL_PROPERTY
W(PB)
SciTegic.value.DoubleValue
-53.930

@<SCITEGIC>MOL_PROPERTY
W(SA)
SciTegic.value.DoubleValue
2.510

@<SCITEGIC>MOL_PROPERTY
Valence
SciTegic.value.DoubleValue
3.749

@<SCITEGIC>MOL_PROPERTY
Coulomb
SciTegic.value.DoubleValue
44.750

@<SCITEGIC>MOL_PROPERTY
VdW
SciTegic.value.DoubleValue
1.015

@<SCITEGIC>MOL_PROPERTY
VdW6
SciTegic.value.DoubleValue
-8.174

@<SCITEGIC>MOL_PROPERTY
VdW12
SciTegic.value.DoubleValue
9.190

@<SCITEGIC>MOL_PROPERTY
Bond
SciTegic.value.DoubleValue
0.232

@<SCITEGIC>MOL_PROPERTY
Angle
SciTegic.value.DoubleValue
0.981

@<SCITEGIC>MOL_PROPERTY
Pdih
SciTegic.value.DoubleValue
2.536

@<SCITEGIC>MOL_PROPERTY
Idih
SciTegic.value.DoubleValue
0.000

@<SCITEGIC>MOL_PROPERTY
Tether
SciTegic.value.DoubleValue
0.000

@<TRIPOS>MOLECULE
guest-3_vm2.mol2 : vm2 ligand conformer 59
          29          28           1
SMALL
USER_CHARGES
 
@<TRIPOS>ATOM
       1    C1      20.439612   19.117812   19.374012 C.3        1 MOL1        -0.2427
       2    H1      20.407262   18.083828   19.006511 H          1 MOL1         0.0958
       3    H2      19.617524   19.673613   18.904431 H          1 MOL1         0.0958
       4    H3      21.384159   19.565193   19.038285 H          1 MOL1         0.0958
       5    C2      20.331588   19.163742   20.912895 C.3        1 MOL1        -0.1412
       6    H4      20.408325   20.207738   21.244530 H          1 MOL1         0.0947
       7    H5      21.182085   18.625468   21.354002 H          1 MOL1         0.0947
       8    C3      19.005283   18.541877   21.409877 C.3        1 MOL1        -0.1437
       9    H6      18.155799   19.111483   21.008460 H          1 MOL1         0.0947
      10    H7      18.913414   17.524859   21.004261 H          1 MOL1         0.0947
      11    C4      18.897771   18.466787   22.952641 C.3        1 MOL1        -0.1437
      12    H8      19.735759   17.874184   23.342545 H          1 MOL1         0.0947
      13    H9      17.981793   17.918013   23.211353 H          1 MOL1         0.0947
      14    C5      18.864074   19.857296   23.635868 C.3        1 MOL1        -0.1437
      15    H10     19.824524   20.370444   23.495509 H          1 MOL1         0.0947
      16    H11     18.104302   20.479929   23.143682 H          1 MOL1         0.0947
      17    C6      18.540333   19.791849   25.148565 C.3        1 MOL1        -0.1437
      18    H12     17.566612   19.304478   25.296468 H          1 MOL1         0.0947
      19    H13     18.431986   20.817903   25.526912 H          1 MOL1         0.0947
      20    C7      19.620651   19.061136   25.979862 C.3        1 MOL1        -0.1477
      21    H14     19.689209   18.010635   25.670332 H          1 MOL1         0.0947
      22    H15     20.601705   19.518616   25.795074 H          1 MOL1         0.0947
      23    C8      19.304214   19.120512   27.484494 C.3        1 MOL1         0.0145
      24    H16     18.335182   18.651606   27.675686 H          1 MOL1         0.0921
      25    H17     19.252160   20.163306   27.809010 H          1 MOL1         0.0921
      26    N1      20.340474   18.416988   28.336787 N.4        1 MOL1        -0.5969
      27    H18     20.110921   18.468793   29.335464 H          1 MOL1         0.3603
      28    H19     21.272404   18.829315   28.222737 H          1 MOL1         0.3603
      29    H20     20.418889   17.422488   28.099501 H          1 MOL1         0.3603
@<TRIPOS>BOND
    1     1     2    1
    2     1     3    1
    3     1     4    1
    4     1     5    1
    5     5     6    1
    6     5     7    1
    7     5     8    1
    8     8     9    1
    9     8    10    1
   10     8    11    1
   11    11    12    1
   12    11    13    1
   13    11    14    1
   14    14    15    1
   15    14    16    1
   16    14    17    1
   17    17    18    1
   18    17    19    1
   19    17    20    1
   20    20    21    1
   21    20    22    1
   22    20    23    1
   23    23    24    1
   24    23    25    1
   25    23    26    1
   26    26    27    1
   27    26    28    1
   28    26    29    1
@<TRIPOS>SUBSTRUCTURE
       1 MOL1            1 RESIDUE      1      MOL     
@<SCITEGIC>MOL_PROPERTY
VM2 Rank
SciTegic.value.IntegerValue
59

@<SCITEGIC>MOL_PROPERTY
Conf_Id
SciTegic.value.IntegerValue
1550

@<SCITEGIC>MOL_PROPERTY
Probability
SciTegic.value.DoubleValue
0.50

@<SCITEGIC>MOL_PROPERTY
Sum Probability
SciTegic.value.DoubleValue
68.92

@<SCITEGIC>MOL_PROPERTY
Delta G
SciTegic.value.DoubleValue
1.411

@<SCITEGIC>MOL_PROPERTY
G
SciTegic.value.DoubleValue
59.559

@<SCITEGIC>MOL_PROPERTY
E
SciTegic.value.DoubleValue
22.143

@<SCITEGIC>MOL_PROPERTY
-TS
SciTegic.value.DoubleValue
37.416

@<SCITEGIC>MOL_PROPERTY
U+W
SciTegic.value.DoubleValue
-2.002

@<SCITEGIC>MOL_PROPERTY
U
SciTegic.value.DoubleValue
49.434

@<SCITEGIC>MOL_PROPERTY
W
SciTegic.value.DoubleValue
-51.436

@<SCITEGIC>MOL_PROPERTY
W(PB)
SciTegic.value.DoubleValue
-53.968

@<SCITEGIC>MOL_PROPERTY
W(SA)
SciTegic.value.DoubleValue
2.532

@<SCITEGIC>MOL_PROPERTY
Valence
SciTegic.value.DoubleValue
3.637

@<SCITEGIC>MOL_PROPERTY
Coulomb
SciTegic.value.DoubleValue
44.866

@<SCITEGIC>MOL_PROPERTY
VdW
SciTegic.value.DoubleValue
0.931

@<SCITEGIC>MOL_PROPERTY
VdW6
SciTegic.value.DoubleValue
-8.275

@<SCITEGIC>MOL_PROPERTY
VdW12
SciTegic.value.DoubleValue
9.207

@<SCITEGIC>MOL_PROPERTY
Bond
SciTegic.value.DoubleValue
0.222

@<SCITEGIC>MOL_PROPERTY
Angle
SciTegic.value.DoubleValue
0.875

@<SCITEGIC>MOL_PROPERTY
Pdih
SciTegic.value.DoubleValue
2.540

@<SCITEGIC>MOL_PROPERTY
Idih
SciTegic.value.DoubleValue
0.000

@<SCITEGIC>MOL_PROPERTY
Tether
SciTegic.value.DoubleValue
0.000

@<TRIPOS>MOLECULE
guest-3_vm2.mol2 : vm2 ligand conformer 60
          29          28           1
SMALL
USER_CHARGES
 
@<TRIPOS>ATOM
       1    C1      20.824061   19.512436   20.021705 C.3        1 MOL1        -0.2427
       2    H1      20.951660   19.786095   18.966356 H          1 MOL1         0.0958
       3    H2      20.899938   20.433630   20.612557 H          1 MOL1         0.0958
       4    H3      21.657037   18.854309   20.301067 H          1 MOL1         0.0958
       5    C2      19.464486   18.809948   20.237495 C.3        1 MOL1        -0.1412
       6    H4      19.387225   17.965869   19.537984 H          1 MOL1         0.0947
       7    H5      18.647640   19.498547   19.979968 H          1 MOL1         0.0947
       8    C3      19.267765   18.280203   21.678342 C.3        1 MOL1        -0.1437
       9    H6      18.333669   17.702660   21.712909 H          1 MOL1         0.0947
      10    H7      20.075395   17.576909   21.923955 H          1 MOL1         0.0947
      11    C4      19.208690   19.400377   22.744338 C.3        1 MOL1        -0.1437
      12    H8      18.434821   20.129433   22.467310 H          1 MOL1         0.0947
      13    H9      20.163295   19.941988   22.770520 H          1 MOL1         0.0947
      14    C5      18.907724   18.837088   24.151515 C.3        1 MOL1        -0.1437
      15    H10     17.948319   18.301776   24.134738 H          1 MOL1         0.0947
      16    H11     19.678520   18.101315   24.416855 H          1 MOL1         0.0947
      17    C6      18.854740   19.956662   25.218392 C.3        1 MOL1        -0.1437
      18    H12     18.113178   20.708405   24.914603 H          1 MOL1         0.0947
      19    H13     19.819968   20.479067   25.257104 H          1 MOL1         0.0947
      20    C7      18.479557   19.437085   26.628885 C.3        1 MOL1        -0.1477
      21    H14     18.418269   20.285273   27.323598 H          1 MOL1         0.0947
      22    H15     17.474868   18.995060   26.596163 H          1 MOL1         0.0947
      23    C8      19.461638   18.391453   27.194837 C.3        1 MOL1         0.0145
      24    H16     19.496174   17.520834   26.534942 H          1 MOL1         0.0921
      25    H17     19.112765   18.059640   28.176502 H          1 MOL1         0.0921
      26    N1      20.875340   18.912746   27.359491 N.4        1 MOL1        -0.5969
      27    H18     21.272265   19.213870   26.463892 H          1 MOL1         0.3603
      28    H19     21.503034   18.197969   27.743594 H          1 MOL1         0.3603
      29    H20     20.912156   19.717224   27.994029 H          1 MOL1         0.3603
@<TRIPOS>BOND
    1     1     2    1
    2     1     3    1
    3     1     4    1
    4     1     5    1
    5     5     6    1
    6     5     7    1
    7     5     8    1
    8     8     9    1
    9     8    10    1
   10     8    11    1
   11    11    12    1
   12    11    13    1
   13    11    14    1
   14    14    15    1
   15    14    16    1
   16    14    17    1
   17    17    18    1
   18    17    19    1
   19    17    20    1
   20    20    21    1
   21    20    22    1
   22    20    23    1
   23    23    24    1
   24    23    25    1
   25    23    26    1
   26    26    27    1
   27    26    28    1
   28    26    29    1
@<TRIPOS>SUBSTRUCTURE
       1 MOL1            1 RESIDUE      1      MOL     
@<SCITEGIC>MOL_PROPERTY
VM2 Rank
SciTegic.value.IntegerValue
60

@<SCITEGIC>MOL_PROPERTY
Conf_Id
SciTegic.value.IntegerValue
312

@<SCITEGIC>MOL_PROPERTY
Probability
SciTegic.value.DoubleValue
0.44

@<SCITEGIC>MOL_PROPERTY
Sum Probability
SciTegic.value.DoubleValue
69.37

@<SCITEGIC>MOL_PROPERTY
Delta G
SciTegic.value.DoubleValue
1.488

@<SCITEGIC>MOL_PROPERTY
G
SciTegic.value.DoubleValue
59.636

@<SCITEGIC>MOL_PROPERTY
E
SciTegic.value.DoubleValue
22.055

@<SCITEGIC>MOL_PROPERTY
-TS
SciTegic.value.DoubleValue
37.581

@<SCITEGIC>MOL_PROPERTY
U+W
SciTegic.value.DoubleValue
-2.090

@<SCITEGIC>MOL_PROPERTY
U
SciTegic.value.DoubleValue
49.770

@<SCITEGIC>MOL_PROPERTY
W
SciTegic.value.DoubleValue
-51.860

@<SCITEGIC>MOL_PROPERTY
W(PB)
SciTegic.value.DoubleValue
-54.353

@<SCITEGIC>MOL_PROPERTY
W(SA)
SciTegic.value.DoubleValue
2.493

@<SCITEGIC>MOL_PROPERTY
Valence
SciTegic.value.DoubleValue
3.472

@<SCITEGIC>MOL_PROPERTY
Coulomb
SciTegic.value.DoubleValue
45.376

@<SCITEGIC>MOL_PROPERTY
VdW
SciTegic.value.DoubleValue
0.923

@<SCITEGIC>MOL_PROPERTY
VdW6
SciTegic.value.DoubleValue
-8.869

@<SCITEGIC>MOL_PROPERTY
VdW12
SciTegic.value.DoubleValue
9.792

@<SCITEGIC>MOL_PROPERTY
Bond
SciTegic.value.DoubleValue
0.226

@<SCITEGIC>MOL_PROPERTY
Angle
SciTegic.value.DoubleValue
0.872

@<SCITEGIC>MOL_PROPERTY
Pdih
SciTegic.value.DoubleValue
2.374

@<SCITEGIC>MOL_PROPERTY
Idih
SciTegic.value.DoubleValue
0.000

@<SCITEGIC>MOL_PROPERTY
Tether
SciTegic.value.DoubleValue
0.000

@<TRIPOS>MOLECULE
guest-3_vm2.mol2 : vm2 ligand conformer 61
          29          28           1
SMALL
USER_CHARGES
 
@<TRIPOS>ATOM
       1    C1      20.973621   19.337644   20.164495 C.3        1 MOL1        -0.2427
       2    H1      21.214217   18.302500   20.436857 H          1 MOL1         0.0958
       3    H2      21.246173   19.473544   19.109904 H          1 MOL1         0.0958
       4    H3      21.604697   20.006879   20.763561 H          1 MOL1         0.0958
       5    C2      19.474853   19.646823   20.380069 C.3        1 MOL1        -0.1412
       6    H4      18.864890   18.947817   19.790963 H          1 MOL1         0.0947
       7    H5      19.259389   20.650012   19.986465 H          1 MOL1         0.0947
       8    C3      19.045350   19.592789   21.865898 C.3        1 MOL1        -0.1437
       9    H6      19.640760   20.316789   22.437423 H          1 MOL1         0.0947
      10    H7      17.999707   19.921848   21.939524 H          1 MOL1         0.0947
      11    C4      19.177881   18.181374   22.491595 C.3        1 MOL1        -0.1437
      12    H8      20.234853   17.887697   22.537953 H          1 MOL1         0.0947
      13    H9      18.681520   17.451717   21.837170 H          1 MOL1         0.0947
      14    C5      18.557696   18.073810   23.906232 C.3        1 MOL1        -0.1437
      15    H10     17.492460   18.339448   23.861841 H          1 MOL1         0.0947
      16    H11     18.600558   17.023414   24.225880 H          1 MOL1         0.0947
      17    C6      19.272125   18.951693   24.961540 C.3        1 MOL1        -0.1437
      18    H12     19.171042   20.012443   24.696705 H          1 MOL1         0.0947
      19    H13     20.345618   18.720615   24.957129 H          1 MOL1         0.0947
      20    C7      18.691866   18.728414   26.378042 C.3        1 MOL1        -0.1477
      21    H14     17.611032   18.922159   26.362568 H          1 MOL1         0.0947
      22    H15     18.818075   17.678991   26.675953 H          1 MOL1         0.0947
      23    C8      19.336537   19.644160   27.436235 C.3        1 MOL1         0.0145
      24    H16     18.831664   19.501623   28.395572 H          1 MOL1         0.0921
      25    H17     19.217498   20.689843   27.139984 H          1 MOL1         0.0921
      26    N1      20.814071   19.381293   27.650893 N.4        1 MOL1        -0.5969
      27    H18     20.988735   18.417547   27.954190 H          1 MOL1         0.3603
      28    H19     21.210201   19.998189   28.368611 H          1 MOL1         0.3603
      29    H20     21.354431   19.532136   26.793292 H          1 MOL1         0.3603
@<TRIPOS>BOND
    1     1     2    1
    2     1     3    1
    3     1     4    1
    4     1     5    1
    5     5     6    1
    6     5     7    1
    7     5     8    1
    8     8     9    1
    9     8    10    1
   10     8    11    1
   11    11    12    1
   12    11    13    1
   13    11    14    1
   14    14    15    1
   15    14    16    1
   16    14    17    1
   17    17    18    1
   18    17    19    1
   19    17    20    1
   20    20    21    1
   21    20    22    1
   22    20    23    1
   23    23    24    1
   24    23    25    1
   25    23    26    1
   26    26    27    1
   27    26    28    1
   28    26    29    1
@<TRIPOS>SUBSTRUCTURE
       1 MOL1            1 RESIDUE      1      MOL     
@<SCITEGIC>MOL_PROPERTY
VM2 Rank
SciTegic.value.IntegerValue
61

@<SCITEGIC>MOL_PROPERTY
Conf_Id
SciTegic.value.IntegerValue
2633

@<SCITEGIC>MOL_PROPERTY
Probability
SciTegic.value.DoubleValue
0.44

@<SCITEGIC>MOL_PROPERTY
Sum Probability
SciTegic.value.DoubleValue
69.81

@<SCITEGIC>MOL_PROPERTY
Delta G
SciTegic.value.DoubleValue
1.490

@<SCITEGIC>MOL_PROPERTY
G
SciTegic.value.DoubleValue
59.638

@<SCITEGIC>MOL_PROPERTY
E
SciTegic.value.DoubleValue
22.110

@<SCITEGIC>MOL_PROPERTY
-TS
SciTegic.value.DoubleValue
37.527

@<SCITEGIC>MOL_PROPERTY
U+W
SciTegic.value.DoubleValue
-2.034

@<SCITEGIC>MOL_PROPERTY
U
SciTegic.value.DoubleValue
49.822

@<SCITEGIC>MOL_PROPERTY
W
SciTegic.value.DoubleValue
-51.857

@<SCITEGIC>MOL_PROPERTY
W(PB)
SciTegic.value.DoubleValue
-54.364

@<SCITEGIC>MOL_PROPERTY
W(SA)
SciTegic.value.DoubleValue
2.507

@<SCITEGIC>MOL_PROPERTY
Valence
SciTegic.value.DoubleValue
3.699

@<SCITEGIC>MOL_PROPERTY
Coulomb
SciTegic.value.DoubleValue
45.079

@<SCITEGIC>MOL_PROPERTY
VdW
SciTegic.value.DoubleValue
1.045

@<SCITEGIC>MOL_PROPERTY
VdW6
SciTegic.value.DoubleValue
-8.779

@<SCITEGIC>MOL_PROPERTY
VdW12
SciTegic.value.DoubleValue
9.824

@<SCITEGIC>MOL_PROPERTY
Bond
SciTegic.value.DoubleValue
0.239

@<SCITEGIC>MOL_PROPERTY
Angle
SciTegic.value.DoubleValue
0.889

@<SCITEGIC>MOL_PROPERTY
Pdih
SciTegic.value.DoubleValue
2.571

@<SCITEGIC>MOL_PROPERTY
Idih
SciTegic.value.DoubleValue
0.000

@<SCITEGIC>MOL_PROPERTY
Tether
SciTegic.value.DoubleValue
0.000

@<TRIPOS>MOLECULE
guest-3_vm2.mol2 : vm2 ligand conformer 62
          29          28           1
SMALL
USER_CHARGES
 
@<TRIPOS>ATOM
       1    C1      20.290772   18.015607   19.988537 C.3        1 MOL1        -0.2427
       2    H1      21.348161   17.987163   20.282044 H          1 MOL1         0.0958
       3    H2      19.758763   17.231473   20.541310 H          1 MOL1         0.0958
       4    H3      20.231585   17.764919   18.921493 H          1 MOL1         0.0958
       5    C2      19.678637   19.410204   20.251012 C.3        1 MOL1        -0.1412
       6    H4      18.614186   19.404022   19.977825 H          1 MOL1         0.0947
       7    H5      20.162416   20.139836   19.586671 H          1 MOL1         0.0947
       8    C3      19.840636   19.887490   21.714340 C.3        1 MOL1        -0.1437
       9    H6      20.907405   19.911246   21.976360 H          1 MOL1         0.0947
      10    H7      19.481785   20.923609   21.784817 H          1 MOL1         0.0947
      11    C4      19.071356   19.016014   22.735789 C.3        1 MOL1        -0.1437
      12    H8      19.467804   17.992271   22.726999 H          1 MOL1         0.0947
      13    H9      18.014854   18.952394   22.441005 H          1 MOL1         0.0947
      14    C5      19.174555   19.586327   24.168309 C.3        1 MOL1        -0.1437
      15    H10     20.233100   19.657698   24.451650 H          1 MOL1         0.0947
      16    H11     18.770120   20.607800   24.186376 H          1 MOL1         0.0947
      17    C6      18.410583   18.711258   25.190600 C.3        1 MOL1        -0.1437
      18    H12     18.827345   17.695205   25.194799 H          1 MOL1         0.0947
      19    H13     17.365107   18.610624   24.867841 H          1 MOL1         0.0947
      20    C7      18.428719   19.294421   26.625803 C.3        1 MOL1        -0.1477
      21    H14     17.930328   20.272921   26.625019 H          1 MOL1         0.0947
      22    H15     17.835300   18.649232   27.287157 H          1 MOL1         0.0947
      23    C8      19.842658   19.460142   27.218636 C.3        1 MOL1         0.0145
      24    H16     19.768432   19.898230   28.217660 H          1 MOL1         0.0921
      25    H17     20.428971   20.138387   26.593453 H          1 MOL1         0.0921
      26    N1      20.606083   18.156537   27.341974 N.4        1 MOL1        -0.5969
      27    H18     20.117202   17.485360   27.943386 H          1 MOL1         0.3603
      28    H19     21.538840   18.297539   27.745118 H          1 MOL1         0.3603
      29    H20     20.735780   17.708415   26.429458 H          1 MOL1         0.3603
@<TRIPOS>BOND
    1     1     2    1
    2     1     3    1
    3     1     4    1
    4     1     5    1
    5     5     6    1
    6     5     7    1
    7     5     8    1
    8     8     9    1
    9     8    10    1
   10     8    11    1
   11    11    12    1
   12    11    13    1
   13    11    14    1
   14    14    15    1
   15    14    16    1
   16    14    17    1
   17    17    18    1
   18    17    19    1
   19    17    20    1
   20    20    21    1
   21    20    22    1
   22    20    23    1
   23    23    24    1
   24    23    25    1
   25    23    26    1
   26    26    27    1
   27    26    28    1
   28    26    29    1
@<TRIPOS>SUBSTRUCTURE
       1 MOL1            1 RESIDUE      1      MOL     
@<SCITEGIC>MOL_PROPERTY
VM2 Rank
SciTegic.value.IntegerValue
62

@<SCITEGIC>MOL_PROPERTY
Conf_Id
SciTegic.value.IntegerValue
649

@<SCITEGIC>MOL_PROPERTY
Probability
SciTegic.value.DoubleValue
0.44

@<SCITEGIC>MOL_PROPERTY
Sum Probability
SciTegic.value.DoubleValue
70.25

@<SCITEGIC>MOL_PROPERTY
Delta G
SciTegic.value.DoubleValue
1.493

@<SCITEGIC>MOL_PROPERTY
G
SciTegic.value.DoubleValue
59.642

@<SCITEGIC>MOL_PROPERTY
E
SciTegic.value.DoubleValue
22.060

@<SCITEGIC>MOL_PROPERTY
-TS
SciTegic.value.DoubleValue
37.581

@<SCITEGIC>MOL_PROPERTY
U+W
SciTegic.value.DoubleValue
-2.084

@<SCITEGIC>MOL_PROPERTY
U
SciTegic.value.DoubleValue
49.771

@<SCITEGIC>MOL_PROPERTY
W
SciTegic.value.DoubleValue
-51.855

@<SCITEGIC>MOL_PROPERTY
W(PB)
SciTegic.value.DoubleValue
-54.329

@<SCITEGIC>MOL_PROPERTY
W(SA)
SciTegic.value.DoubleValue
2.474

@<SCITEGIC>MOL_PROPERTY
Valence
SciTegic.value.DoubleValue
3.472

@<SCITEGIC>MOL_PROPERTY
Coulomb
SciTegic.value.DoubleValue
45.376

@<SCITEGIC>MOL_PROPERTY
VdW
SciTegic.value.DoubleValue
0.923

@<SCITEGIC>MOL_PROPERTY
VdW6
SciTegic.value.DoubleValue
-8.870

@<SCITEGIC>MOL_PROPERTY
VdW12
SciTegic.value.DoubleValue
9.793

@<SCITEGIC>MOL_PROPERTY
Bond
SciTegic.value.DoubleValue
0.226

@<SCITEGIC>MOL_PROPERTY
Angle
SciTegic.value.DoubleValue
0.872

@<SCITEGIC>MOL_PROPERTY
Pdih
SciTegic.value.DoubleValue
2.373

@<SCITEGIC>MOL_PROPERTY
Idih
SciTegic.value.DoubleValue
0.000

@<SCITEGIC>MOL_PROPERTY
Tether
SciTegic.value.DoubleValue
0.000

@<TRIPOS>MOLECULE
guest-3_vm2.mol2 : vm2 ligand conformer 63
          29          28           1
SMALL
USER_CHARGES
 
@<TRIPOS>ATOM
       1    C1      19.864513   18.267346   19.444215 C.3        1 MOL1        -0.2427
       2    H1      19.181320   17.998198   18.628219 H          1 MOL1         0.0958
       3    H2      20.510521   19.080660   19.088623 H          1 MOL1         0.0958
       4    H3      20.497303   17.395477   19.655563 H          1 MOL1         0.0958
       5    C2      19.073485   18.695475   20.698319 C.3        1 MOL1        -0.1412
       6    H4      18.412333   17.874761   21.010061 H          1 MOL1         0.0947
       7    H5      18.425486   19.547024   20.447622 H          1 MOL1         0.0947
       8    C3      20.012438   19.079977   21.862988 C.3        1 MOL1        -0.1437
       9    H6      20.659424   18.226575   22.108966 H          1 MOL1         0.0947
      10    H7      20.672963   19.898695   21.545545 H          1 MOL1         0.0947
      11    C4      19.223841   19.509404   23.120582 C.3        1 MOL1        -0.1437
      12    H8      18.561889   18.688531   23.426139 H          1 MOL1         0.0947
      13    H9      18.580209   20.365464   22.875481 H          1 MOL1         0.0947
      14    C5      20.166778   19.889110   24.287135 C.3        1 MOL1        -0.1437
      15    H10     20.783481   19.022809   24.561201 H          1 MOL1         0.0947
      16    H11     20.867072   20.662789   23.943191 H          1 MOL1         0.0947
      17    C6      19.420641   20.426526   25.535555 C.3        1 MOL1        -0.1437
      18    H12     18.886413   21.347662   25.264888 H          1 MOL1         0.0947
      19    H13     20.161275   20.723904   26.290038 H          1 MOL1         0.0947
      20    C7      18.413154   19.433309   26.171979 C.3        1 MOL1        -0.1477
      21    H14     17.977766   19.888181   27.071552 H          1 MOL1         0.0947
      22    H15     17.573785   19.267348   25.484708 H          1 MOL1         0.0947
      23    C8      19.028910   18.069748   26.544107 C.3        1 MOL1         0.0145
      24    H16     19.434558   17.591625   25.648689 H          1 MOL1         0.0921
      25    H17     18.251917   17.419463   26.955015 H          1 MOL1         0.0921
      26    N1      20.140239   18.167105   27.570120 N.4        1 MOL1        -0.5969
      27    H18     20.914318   18.747569   27.232403 H          1 MOL1         0.3603
      28    H19     20.529668   17.246183   27.799455 H          1 MOL1         0.3603
      29    H20     19.811088   18.581368   28.448270 H          1 MOL1         0.3603
@<TRIPOS>BOND
    1     1     2    1
    2     1     3    1
    3     1     4    1
    4     1     5    1
    5     5     6    1
    6     5     7    1
    7     5     8    1
    8     8     9    1
    9     8    10    1
   10     8    11    1
   11    11    12    1
   12    11    13    1
   13    11    14    1
   14    14    15    1
   15    14    16    1
   16    14    17    1
   17    17    18    1
   18    17    19    1
   19    17    20    1
   20    20    21    1
   21    20    22    1
   22    20    23    1
   23    23    24    1
   24    23    25    1
   25    23    26    1
   26    26    27    1
   27    26    28    1
   28    26    29    1
@<TRIPOS>SUBSTRUCTURE
       1 MOL1            1 RESIDUE      1      MOL     
@<SCITEGIC>MOL_PROPERTY
VM2 Rank
SciTegic.value.IntegerValue
63

@<SCITEGIC>MOL_PROPERTY
Conf_Id
SciTegic.value.IntegerValue
1230

@<SCITEGIC>MOL_PROPERTY
Probability
SciTegic.value.DoubleValue
0.43

@<SCITEGIC>MOL_PROPERTY
Sum Probability
SciTegic.value.DoubleValue
70.67

@<SCITEGIC>MOL_PROPERTY
Delta G
SciTegic.value.DoubleValue
1.508

@<SCITEGIC>MOL_PROPERTY
G
SciTegic.value.DoubleValue
59.656

@<SCITEGIC>MOL_PROPERTY
E
SciTegic.value.DoubleValue
21.921

@<SCITEGIC>MOL_PROPERTY
-TS
SciTegic.value.DoubleValue
37.735

@<SCITEGIC>MOL_PROPERTY
U+W
SciTegic.value.DoubleValue
-2.223

@<SCITEGIC>MOL_PROPERTY
U
SciTegic.value.DoubleValue
49.647

@<SCITEGIC>MOL_PROPERTY
W
SciTegic.value.DoubleValue
-51.871

@<SCITEGIC>MOL_PROPERTY
W(PB)
SciTegic.value.DoubleValue
-54.359

@<SCITEGIC>MOL_PROPERTY
W(SA)
SciTegic.value.DoubleValue
2.488

@<SCITEGIC>MOL_PROPERTY
Valence
SciTegic.value.DoubleValue
3.442

@<SCITEGIC>MOL_PROPERTY
Coulomb
SciTegic.value.DoubleValue
45.477

@<SCITEGIC>MOL_PROPERTY
VdW
SciTegic.value.DoubleValue
0.729

@<SCITEGIC>MOL_PROPERTY
VdW6
SciTegic.value.DoubleValue
-9.235

@<SCITEGIC>MOL_PROPERTY
VdW12
SciTegic.value.DoubleValue
9.964

@<SCITEGIC>MOL_PROPERTY
Bond
SciTegic.value.DoubleValue
0.237

@<SCITEGIC>MOL_PROPERTY
Angle
SciTegic.value.DoubleValue
0.960

@<SCITEGIC>MOL_PROPERTY
Pdih
SciTegic.value.DoubleValue
2.245

@<SCITEGIC>MOL_PROPERTY
Idih
SciTegic.value.DoubleValue
0.000

@<SCITEGIC>MOL_PROPERTY
Tether
SciTegic.value.DoubleValue
0.000

@<TRIPOS>MOLECULE
guest-3_vm2.mol2 : vm2 ligand conformer 64
          29          28           1
SMALL
USER_CHARGES
 
@<TRIPOS>ATOM
       1    C1      19.627378   19.705969   19.639872 C.3        1 MOL1        -0.2427
       2    H1      20.714586   19.582463   19.551805 H          1 MOL1         0.0958
       3    H2      19.218761   19.815937   18.627020 H          1 MOL1         0.0958
       4    H3      19.429569   20.641031   20.178381 H          1 MOL1         0.0958
       5    C2      18.986452   18.493745   20.352775 C.3        1 MOL1        -0.1412
       6    H4      19.106056   17.605369   19.716979 H          1 MOL1         0.0947
       7    H5      17.904247   18.655048   20.455401 H          1 MOL1         0.0947
       8    C3      19.605433   18.198192   21.740185 C.3        1 MOL1        -0.1437
       9    H6      19.173031   17.263304   22.122661 H          1 MOL1         0.0947
      10    H7      20.683630   18.017767   21.629918 H          1 MOL1         0.0947
      11    C4      19.367855   19.324922   22.773962 C.3        1 MOL1        -0.1437
      12    H8      18.292300   19.538182   22.843268 H          1 MOL1         0.0947
      13    H9      19.855900   20.249096   22.437739 H          1 MOL1         0.0947
      14    C5      19.909896   18.945208   24.170410 C.3        1 MOL1        -0.1437
      15    H10     19.423158   18.020152   24.506850 H          1 MOL1         0.0947
      16    H11     20.985489   18.732013   24.099765 H          1 MOL1         0.0947
      17    C6      19.673966   20.072847   25.203498 C.3        1 MOL1        -0.1437
      18    H12     18.598144   20.273509   25.295223 H          1 MOL1         0.0947
      19    H13     20.126827   21.002309   24.831565 H          1 MOL1         0.0947
      20    C7      20.272239   19.757411   26.597341 C.3        1 MOL1        -0.1477
      21    H14     21.360870   19.645410   26.506820 H          1 MOL1         0.0947
      22    H15     20.107105   20.613270   27.265202 H          1 MOL1         0.0947
      23    C8      19.697324   18.486384   27.254692 C.3        1 MOL1         0.0145
      24    H16     20.187420   18.322506   28.218242 H          1 MOL1         0.0921
      25    H17     19.897192   17.618919   26.620510 H          1 MOL1         0.0921
      26    N1      18.203457   18.553323   27.502265 N.4        1 MOL1        -0.5969
      27    H18     17.954932   19.334753   28.117718 H          1 MOL1         0.3603
      28    H19     17.851676   17.697751   27.945756 H          1 MOL1         0.3603
      29    H20     17.682228   18.677162   26.628585 H          1 MOL1         0.3603
@<TRIPOS>BOND
    1     1     2    1
    2     1     3    1
    3     1     4    1
    4     1     5    1
    5     5     6    1
    6     5     7    1
    7     5     8    1
    8     8     9    1
    9     8    10    1
   10     8    11    1
   11    11    12    1
   12    11    13    1
   13    11    14    1
   14    14    15    1
   15    14    16    1
   16    14    17    1
   17    17    18    1
   18    17    19    1
   19    17    20    1
   20    20    21    1
   21    20    22    1
   22    20    23    1
   23    23    24    1
   24    23    25    1
   25    23    26    1
   26    26    27    1
   27    26    28    1
   28    26    29    1
@<TRIPOS>SUBSTRUCTURE
       1 MOL1            1 RESIDUE      1      MOL     
@<SCITEGIC>MOL_PROPERTY
VM2 Rank
SciTegic.value.IntegerValue
64

@<SCITEGIC>MOL_PROPERTY
Conf_Id
SciTegic.value.IntegerValue
685

@<SCITEGIC>MOL_PROPERTY
Probability
SciTegic.value.DoubleValue
0.42

@<SCITEGIC>MOL_PROPERTY
Sum Probability
SciTegic.value.DoubleValue
71.09

@<SCITEGIC>MOL_PROPERTY
Delta G
SciTegic.value.DoubleValue
1.519

@<SCITEGIC>MOL_PROPERTY
G
SciTegic.value.DoubleValue
59.667

@<SCITEGIC>MOL_PROPERTY
E
SciTegic.value.DoubleValue
22.085

@<SCITEGIC>MOL_PROPERTY
-TS
SciTegic.value.DoubleValue
37.582

@<SCITEGIC>MOL_PROPERTY
U+W
SciTegic.value.DoubleValue
-2.059

@<SCITEGIC>MOL_PROPERTY
U
SciTegic.value.DoubleValue
49.716

@<SCITEGIC>MOL_PROPERTY
W
SciTegic.value.DoubleValue
-51.775

@<SCITEGIC>MOL_PROPERTY
W(PB)
SciTegic.value.DoubleValue
-54.284

@<SCITEGIC>MOL_PROPERTY
W(SA)
SciTegic.value.DoubleValue
2.508

@<SCITEGIC>MOL_PROPERTY
Valence
SciTegic.value.DoubleValue
3.471

@<SCITEGIC>MOL_PROPERTY
Coulomb
SciTegic.value.DoubleValue
45.316

@<SCITEGIC>MOL_PROPERTY
VdW
SciTegic.value.DoubleValue
0.929

@<SCITEGIC>MOL_PROPERTY
VdW6
SciTegic.value.DoubleValue
-8.866

@<SCITEGIC>MOL_PROPERTY
VdW12
SciTegic.value.DoubleValue
9.795

@<SCITEGIC>MOL_PROPERTY
Bond
SciTegic.value.DoubleValue
0.226

@<SCITEGIC>MOL_PROPERTY
Angle
SciTegic.value.DoubleValue
0.873

@<SCITEGIC>MOL_PROPERTY
Pdih
SciTegic.value.DoubleValue
2.372

@<SCITEGIC>MOL_PROPERTY
Idih
SciTegic.value.DoubleValue
0.000

@<SCITEGIC>MOL_PROPERTY
Tether
SciTegic.value.DoubleValue
0.000

@<TRIPOS>MOLECULE
guest-3_vm2.mol2 : vm2 ligand conformer 65
          29          28           1
SMALL
USER_CHARGES
 
@<TRIPOS>ATOM
       1    C1      20.592281   18.218283   19.847413 C.3        1 MOL1        -0.2427
       2    H1      21.281946   19.057340   19.687419 H          1 MOL1         0.0958
       3    H2      21.159791   17.286883   19.723075 H          1 MOL1         0.0958
       4    H3      19.824642   18.252172   19.063312 H          1 MOL1         0.0958
       5    C2      19.955110   18.284783   21.251539 C.3        1 MOL1        -0.1412
       6    H4      20.748814   18.206981   22.006231 H          1 MOL1         0.0947
       7    H5      19.294009   17.418391   21.392842 H          1 MOL1         0.0947
       8    C3      19.152932   19.592287   21.451745 C.3        1 MOL1        -0.1437
       9    H6      19.825570   20.456677   21.364580 H          1 MOL1         0.0947
      10    H7      18.420218   19.688949   20.638674 H          1 MOL1         0.0947
      11    C4      18.397561   19.656367   22.801935 C.3        1 MOL1        -0.1437
      12    H8      17.715158   18.799005   22.882300 H          1 MOL1         0.0947
      13    H9      17.765271   20.554967   22.803303 H          1 MOL1         0.0947
      14    C5      19.333623   19.696825   24.033593 C.3        1 MOL1        -0.1437
      15    H10     19.921891   18.772093   24.079300 H          1 MOL1         0.0947
      16    H11     20.046767   20.525489   23.924662 H          1 MOL1         0.0947
      17    C6      18.538715   19.870395   25.349908 C.3        1 MOL1        -0.1437
      18    H12     17.838052   19.033817   25.473527 H          1 MOL1         0.0947
      19    H13     17.921894   20.777118   25.281597 H          1 MOL1         0.0947
      20    C7      19.446832   19.986895   26.599788 C.3        1 MOL1        -0.1477
      21    H14     20.082254   20.877304   26.503526 H          1 MOL1         0.0947
      22    H15     18.822209   20.151277   27.487834 H          1 MOL1         0.0947
      23    C8      20.348926   18.759033   26.838201 C.3        1 MOL1         0.0145
      24    H16     20.970865   18.931372   27.720793 H          1 MOL1         0.0921
      25    H17     21.010365   18.613433   25.980352 H          1 MOL1         0.0921
      26    N1      19.578021   17.473133   27.060879 N.4        1 MOL1        -0.5969
      27    H18     18.957663   17.538249   27.874574 H          1 MOL1         0.3603
      28    H19     20.203786   16.676539   27.223018 H          1 MOL1         0.3603
      29    H20     18.994113   17.239229   26.251782 H          1 MOL1         0.3603
@<TRIPOS>BOND
    1     1     2    1
    2     1     3    1
    3     1     4    1
    4     1     5    1
    5     5     6    1
    6     5     7    1
    7     5     8    1
    8     8     9    1
    9     8    10    1
   10     8    11    1
   11    11    12    1
   12    11    13    1
   13    11    14    1
   14    14    15    1
   15    14    16    1
   16    14    17    1
   17    17    18    1
   18    17    19    1
   19    17    20    1
   20    20    21    1
   21    20    22    1
   22    20    23    1
   23    23    24    1
   24    23    25    1
   25    23    26    1
   26    26    27    1
   27    26    28    1
   28    26    29    1
@<TRIPOS>SUBSTRUCTURE
       1 MOL1            1 RESIDUE      1      MOL     
@<SCITEGIC>MOL_PROPERTY
VM2 Rank
SciTegic.value.IntegerValue
65

@<SCITEGIC>MOL_PROPERTY
Conf_Id
SciTegic.value.IntegerValue
286

@<SCITEGIC>MOL_PROPERTY
Probability
SciTegic.value.DoubleValue
0.41

@<SCITEGIC>MOL_PROPERTY
Sum Probability
SciTegic.value.DoubleValue
71.50

@<SCITEGIC>MOL_PROPERTY
Delta G
SciTegic.value.DoubleValue
1.535

@<SCITEGIC>MOL_PROPERTY
G
SciTegic.value.DoubleValue
59.683

@<SCITEGIC>MOL_PROPERTY
E
SciTegic.value.DoubleValue
22.112

@<SCITEGIC>MOL_PROPERTY
-TS
SciTegic.value.DoubleValue
37.571

@<SCITEGIC>MOL_PROPERTY
U+W
SciTegic.value.DoubleValue
-2.033

@<SCITEGIC>MOL_PROPERTY
U
SciTegic.value.DoubleValue
50.142

@<SCITEGIC>MOL_PROPERTY
W
SciTegic.value.DoubleValue
-52.174

@<SCITEGIC>MOL_PROPERTY
W(PB)
SciTegic.value.DoubleValue
-54.650

@<SCITEGIC>MOL_PROPERTY
W(SA)
SciTegic.value.DoubleValue
2.475

@<SCITEGIC>MOL_PROPERTY
Valence
SciTegic.value.DoubleValue
3.507

@<SCITEGIC>MOL_PROPERTY
Coulomb
SciTegic.value.DoubleValue
45.743

@<SCITEGIC>MOL_PROPERTY
VdW
SciTegic.value.DoubleValue
0.893

@<SCITEGIC>MOL_PROPERTY
VdW6
SciTegic.value.DoubleValue
-8.958

@<SCITEGIC>MOL_PROPERTY
VdW12
SciTegic.value.DoubleValue
9.850

@<SCITEGIC>MOL_PROPERTY
Bond
SciTegic.value.DoubleValue
0.232

@<SCITEGIC>MOL_PROPERTY
Angle
SciTegic.value.DoubleValue
0.893

@<SCITEGIC>MOL_PROPERTY
Pdih
SciTegic.value.DoubleValue
2.381

@<SCITEGIC>MOL_PROPERTY
Idih
SciTegic.value.DoubleValue
0.000

@<SCITEGIC>MOL_PROPERTY
Tether
SciTegic.value.DoubleValue
0.000

@<TRIPOS>MOLECULE
guest-3_vm2.mol2 : vm2 ligand conformer 66
          29          28           1
SMALL
USER_CHARGES
 
@<TRIPOS>ATOM
       1    C1      20.342032   19.609092   19.474004 C.3        1 MOL1        -0.2427
       2    H1      20.333939   18.585413   19.077432 H          1 MOL1         0.0958
       3    H2      19.993963   20.281343   18.679039 H          1 MOL1         0.0958
       4    H3      21.380300   19.875982   19.710676 H          1 MOL1         0.0958
       5    C2      19.440899   19.727694   20.721276 C.3        1 MOL1        -0.1412
       6    H4      18.404246   19.487599   20.446334 H          1 MOL1         0.0947
       7    H5      19.442465   20.768420   21.074492 H          1 MOL1         0.0947
       8    C3      19.909544   18.790869   21.856466 C.3        1 MOL1        -0.1437
       9    H6      19.908904   17.752318   21.497615 H          1 MOL1         0.0947
      10    H7      20.946626   19.033271   22.126821 H          1 MOL1         0.0947
      11    C4      19.009375   18.906699   23.107111 C.3        1 MOL1        -0.1437
      12    H8      17.973210   18.660070   22.837464 H          1 MOL1         0.0947
      13    H9      19.010416   19.948286   23.454206 H          1 MOL1         0.0947
      14    C5      19.484109   17.970991   24.244313 C.3        1 MOL1        -0.1437
      15    H10     19.543318   16.943276   23.860151 H          1 MOL1         0.0947
      16    H11     20.505390   18.241533   24.543820 H          1 MOL1         0.0947
      17    C6      18.548599   17.976545   25.480791 C.3        1 MOL1        -0.1437
      18    H12     18.924231   17.248589   26.212363 H          1 MOL1         0.0947
      19    H13     17.556557   17.611431   25.181302 H          1 MOL1         0.0947
      20    C7      18.385840   19.356638   26.170280 C.3        1 MOL1        -0.1477
      21    H14     17.849770   20.042546   25.502010 H          1 MOL1         0.0947
      22    H15     17.748247   19.243708   27.057086 H          1 MOL1         0.0947
      23    C8      19.719054   20.008776   26.587640 C.3        1 MOL1         0.0145
      24    H16     19.521577   20.986651   27.035076 H          1 MOL1         0.0921
      25    H17     20.348164   20.158454   25.706311 H          1 MOL1         0.0921
      26    N1      20.504547   19.190696   27.593120 N.4        1 MOL1        -0.5969
      27    H18     20.742894   18.265844   27.221598 H          1 MOL1         0.3603
      28    H19     19.975285   19.042767   28.458626 H          1 MOL1         0.3603
      29    H20     21.384751   19.648753   27.853454 H          1 MOL1         0.3603
@<TRIPOS>BOND
    1     1     2    1
    2     1     3    1
    3     1     4    1
    4     1     5    1
    5     5     6    1
    6     5     7    1
    7     5     8    1
    8     8     9    1
    9     8    10    1
   10     8    11    1
   11    11    12    1
   12    11    13    1
   13    11    14    1
   14    14    15    1
   15    14    16    1
   16    14    17    1
   17    17    18    1
   18    17    19    1
   19    17    20    1
   20    20    21    1
   21    20    22    1
   22    20    23    1
   23    23    24    1
   24    23    25    1
   25    23    26    1
   26    26    27    1
   27    26    28    1
   28    26    29    1
@<TRIPOS>SUBSTRUCTURE
       1 MOL1            1 RESIDUE      1      MOL     
@<SCITEGIC>MOL_PROPERTY
VM2 Rank
SciTegic.value.IntegerValue
66

@<SCITEGIC>MOL_PROPERTY
Conf_Id
SciTegic.value.IntegerValue
1372

@<SCITEGIC>MOL_PROPERTY
Probability
SciTegic.value.DoubleValue
0.41

@<SCITEGIC>MOL_PROPERTY
Sum Probability
SciTegic.value.DoubleValue
71.91

@<SCITEGIC>MOL_PROPERTY
Delta G
SciTegic.value.DoubleValue
1.537

@<SCITEGIC>MOL_PROPERTY
G
SciTegic.value.DoubleValue
59.685

@<SCITEGIC>MOL_PROPERTY
E
SciTegic.value.DoubleValue
21.950

@<SCITEGIC>MOL_PROPERTY
-TS
SciTegic.value.DoubleValue
37.735

@<SCITEGIC>MOL_PROPERTY
U+W
SciTegic.value.DoubleValue
-2.194

@<SCITEGIC>MOL_PROPERTY
U
SciTegic.value.DoubleValue
49.647

@<SCITEGIC>MOL_PROPERTY
W
SciTegic.value.DoubleValue
-51.842

@<SCITEGIC>MOL_PROPERTY
W(PB)
SciTegic.value.DoubleValue
-54.341

@<SCITEGIC>MOL_PROPERTY
W(SA)
SciTegic.value.DoubleValue
2.499

@<SCITEGIC>MOL_PROPERTY
Valence
SciTegic.value.DoubleValue
3.442

@<SCITEGIC>MOL_PROPERTY
Coulomb
SciTegic.value.DoubleValue
45.477

@<SCITEGIC>MOL_PROPERTY
VdW
SciTegic.value.DoubleValue
0.729

@<SCITEGIC>MOL_PROPERTY
VdW6
SciTegic.value.DoubleValue
-9.235

@<SCITEGIC>MOL_PROPERTY
VdW12
SciTegic.value.DoubleValue
9.964

@<SCITEGIC>MOL_PROPERTY
Bond
SciTegic.value.DoubleValue
0.237

@<SCITEGIC>MOL_PROPERTY
Angle
SciTegic.value.DoubleValue
0.960

@<SCITEGIC>MOL_PROPERTY
Pdih
SciTegic.value.DoubleValue
2.245

@<SCITEGIC>MOL_PROPERTY
Idih
SciTegic.value.DoubleValue
0.000

@<SCITEGIC>MOL_PROPERTY
Tether
SciTegic.value.DoubleValue
0.000

@<TRIPOS>MOLECULE
guest-3_vm2.mol2 : vm2 ligand conformer 67
          29          28           1
SMALL
USER_CHARGES
 
@<TRIPOS>ATOM
       1    C1      21.098522   19.027086   20.548078 C.3        1 MOL1        -0.2427
       2    H1      21.766968   18.314814   20.047398 H          1 MOL1         0.0958
       3    H2      21.143793   19.975387   19.997060 H          1 MOL1         0.0958
       4    H3      21.492678   19.196366   21.557892 H          1 MOL1         0.0958
       5    C2      19.654834   18.477494   20.589377 C.3        1 MOL1        -0.1412
       6    H4      19.630987   17.540891   21.162269 H          1 MOL1         0.0947
       7    H5      19.348040   18.212389   19.567995 H          1 MOL1         0.0947
       8    C3      18.628047   19.485021   21.166473 C.3        1 MOL1        -0.1437
       9    H6      18.581651   20.361644   20.505814 H          1 MOL1         0.0947
      10    H7      17.628598   19.029992   21.132522 H          1 MOL1         0.0947
      11    C4      18.913019   19.967278   22.612298 C.3        1 MOL1        -0.1437
      12    H8      18.131622   20.685386   22.896650 H          1 MOL1         0.0947
      13    H9      19.859203   20.523641   22.641623 H          1 MOL1         0.0947
      14    C5      18.946331   18.821369   23.651563 C.3        1 MOL1        -0.1437
      15    H10     18.016356   18.239995   23.586069 H          1 MOL1         0.0947
      16    H11     19.770769   18.133455   23.422253 H          1 MOL1         0.0947
      17    C6      19.121297   19.357300   25.090324 C.3        1 MOL1        -0.1437
      18    H12     18.294386   20.039801   25.331153 H          1 MOL1         0.0947
      19    H13     20.047148   19.945222   25.146474 H          1 MOL1         0.0947
      20    C7      19.161715   18.211310   26.128620 C.3        1 MOL1        -0.1477
      21    H14     18.249329   17.606818   26.038595 H          1 MOL1         0.0947
      22    H15     20.004608   17.540232   25.916080 H          1 MOL1         0.0947
      23    C8      19.265534   18.724585   27.577650 C.3        1 MOL1         0.0145
      24    H16     19.205966   17.878381   28.267527 H          1 MOL1         0.0921
      25    H17     18.430743   19.397807   27.790460 H          1 MOL1         0.0921
      26    N1      20.554702   19.466557   27.870617 N.4        1 MOL1        -0.5969
      27    H18     21.377922   18.876618   27.710716 H          1 MOL1         0.3603
      28    H19     20.598004   19.784414   28.845141 H          1 MOL1         0.3603
      29    H20     20.656933   20.297007   27.278886 H          1 MOL1         0.3603
@<TRIPOS>BOND
    1     1     2    1
    2     1     3    1
    3     1     4    1
    4     1     5    1
    5     5     6    1
    6     5     7    1
    7     5     8    1
    8     8     9    1
    9     8    10    1
   10     8    11    1
   11    11    12    1
   12    11    13    1
   13    11    14    1
   14    14    15    1
   15    14    16    1
   16    14    17    1
   17    17    18    1
   18    17    19    1
   19    17    20    1
   20    20    21    1
   21    20    22    1
   22    20    23    1
   23    23    24    1
   24    23    25    1
   25    23    26    1
   26    26    27    1
   27    26    28    1
   28    26    29    1
@<TRIPOS>SUBSTRUCTURE
       1 MOL1            1 RESIDUE      1      MOL     
@<SCITEGIC>MOL_PROPERTY
VM2 Rank
SciTegic.value.IntegerValue
67

@<SCITEGIC>MOL_PROPERTY
Conf_Id
SciTegic.value.IntegerValue
1024

@<SCITEGIC>MOL_PROPERTY
Probability
SciTegic.value.DoubleValue
0.41

@<SCITEGIC>MOL_PROPERTY
Sum Probability
SciTegic.value.DoubleValue
72.32

@<SCITEGIC>MOL_PROPERTY
Delta G
SciTegic.value.DoubleValue
1.538

@<SCITEGIC>MOL_PROPERTY
G
SciTegic.value.DoubleValue
59.686

@<SCITEGIC>MOL_PROPERTY
E
SciTegic.value.DoubleValue
21.967

@<SCITEGIC>MOL_PROPERTY
-TS
SciTegic.value.DoubleValue
37.720

@<SCITEGIC>MOL_PROPERTY
U+W
SciTegic.value.DoubleValue
-2.178

@<SCITEGIC>MOL_PROPERTY
U
SciTegic.value.DoubleValue
49.569

@<SCITEGIC>MOL_PROPERTY
W
SciTegic.value.DoubleValue
-51.747

@<SCITEGIC>MOL_PROPERTY
W(PB)
SciTegic.value.DoubleValue
-54.226

@<SCITEGIC>MOL_PROPERTY
W(SA)
SciTegic.value.DoubleValue
2.479

@<SCITEGIC>MOL_PROPERTY
Valence
SciTegic.value.DoubleValue
3.641

@<SCITEGIC>MOL_PROPERTY
Coulomb
SciTegic.value.DoubleValue
45.000

@<SCITEGIC>MOL_PROPERTY
VdW
SciTegic.value.DoubleValue
0.928

@<SCITEGIC>MOL_PROPERTY
VdW6
SciTegic.value.DoubleValue
-9.033

@<SCITEGIC>MOL_PROPERTY
VdW12
SciTegic.value.DoubleValue
9.961

@<SCITEGIC>MOL_PROPERTY
Bond
SciTegic.value.DoubleValue
0.244

@<SCITEGIC>MOL_PROPERTY
Angle
SciTegic.value.DoubleValue
1.081

@<SCITEGIC>MOL_PROPERTY
Pdih
SciTegic.value.DoubleValue
2.316

@<SCITEGIC>MOL_PROPERTY
Idih
SciTegic.value.DoubleValue
0.000

@<SCITEGIC>MOL_PROPERTY
Tether
SciTegic.value.DoubleValue
0.000

@<TRIPOS>MOLECULE
guest-3_vm2.mol2 : vm2 ligand conformer 68
          29          28           1
SMALL
USER_CHARGES
 
@<TRIPOS>ATOM
       1    C1      20.289329   20.165647   20.085670 C.3        1 MOL1        -0.2427
       2    H1      19.318910   20.661074   20.213882 H          1 MOL1         0.0958
       3    H2      21.032934   20.703973   20.687559 H          1 MOL1         0.0958
       4    H3      20.574632   20.266187   19.030487 H          1 MOL1         0.0958
       5    C2      20.222423   18.675092   20.488333 C.3        1 MOL1        -0.1412
       6    H4      21.178160   18.195735   20.234329 H          1 MOL1         0.0947
       7    H5      19.454150   18.165004   19.890606 H          1 MOL1         0.0947
       8    C3      19.942689   18.459157   21.995053 C.3        1 MOL1        -0.1437
       9    H6      20.012039   17.384511   22.212766 H          1 MOL1         0.0947
      10    H7      20.733518   18.947259   22.579504 H          1 MOL1         0.0947
      11    C4      18.552398   18.978212   22.441053 C.3        1 MOL1        -0.1437
      12    H8      17.786659   18.578405   21.762196 H          1 MOL1         0.0947
      13    H9      18.510416   20.071331   22.346491 H          1 MOL1         0.0947
      14    C5      18.180562   18.578531   23.890008 C.3        1 MOL1        -0.1437
      15    H10     17.144420   18.890250   24.081170 H          1 MOL1         0.0947
      16    H11     18.195780   17.484010   23.985235 H          1 MOL1         0.0947
      17    C6      19.103401   19.208944   24.960456 C.3        1 MOL1        -0.1437
      18    H12     19.124934   20.299768   24.829795 H          1 MOL1         0.0947
      19    H13     20.130301   18.848928   24.820700 H          1 MOL1         0.0947
      20    C7      18.629641   18.871589   26.393976 C.3        1 MOL1        -0.1477
      21    H14     17.591175   19.204916   26.522079 H          1 MOL1         0.0947
      22    H15     18.630465   17.783743   26.544242 H          1 MOL1         0.0947
      23    C8      19.493297   19.541820   27.479792 C.3        1 MOL1         0.0145
      24    H16     19.061284   19.338602   28.463463 H          1 MOL1         0.0921
      25    H17     19.501235   20.624500   27.327703 H          1 MOL1         0.0921
      26    N1      20.930261   19.059007   27.500659 N.4        1 MOL1        -0.5969
      27    H18     21.473915   19.514209   28.242178 H          1 MOL1         0.3603
      28    H19     21.408377   19.253038   26.615279 H          1 MOL1         0.3603
      29    H20     20.989541   18.048319   27.662847 H          1 MOL1         0.3603
@<TRIPOS>BOND
    1     1     2    1
    2     1     3    1
    3     1     4    1
    4     1     5    1
    5     5     6    1
    6     5     7    1
    7     5     8    1
    8     8     9    1
    9     8    10    1
   10     8    11    1
   11    11    12    1
   12    11    13    1
   13    11    14    1
   14    14    15    1
   15    14    16    1
   16    14    17    1
   17    17    18    1
   18    17    19    1
   19    17    20    1
   20    20    21    1
   21    20    22    1
   22    20    23    1
   23    23    24    1
   24    23    25    1
   25    23    26    1
   26    26    27    1
   27    26    28    1
   28    26    29    1
@<TRIPOS>SUBSTRUCTURE
       1 MOL1            1 RESIDUE      1      MOL     
@<SCITEGIC>MOL_PROPERTY
VM2 Rank
SciTegic.value.IntegerValue
68

@<SCITEGIC>MOL_PROPERTY
Conf_Id
SciTegic.value.IntegerValue
1269

@<SCITEGIC>MOL_PROPERTY
Probability
SciTegic.value.DoubleValue
0.41

@<SCITEGIC>MOL_PROPERTY
Sum Probability
SciTegic.value.DoubleValue
72.72

@<SCITEGIC>MOL_PROPERTY
Delta G
SciTegic.value.DoubleValue
1.541

@<SCITEGIC>MOL_PROPERTY
G
SciTegic.value.DoubleValue
59.689

@<SCITEGIC>MOL_PROPERTY
E
SciTegic.value.DoubleValue
22.167

@<SCITEGIC>MOL_PROPERTY
-TS
SciTegic.value.DoubleValue
37.521

@<SCITEGIC>MOL_PROPERTY
U+W
SciTegic.value.DoubleValue
-1.977

@<SCITEGIC>MOL_PROPERTY
U
SciTegic.value.DoubleValue
50.020

@<SCITEGIC>MOL_PROPERTY
W
SciTegic.value.DoubleValue
-51.998

@<SCITEGIC>MOL_PROPERTY
W(PB)
SciTegic.value.DoubleValue
-54.490

@<SCITEGIC>MOL_PROPERTY
W(SA)
SciTegic.value.DoubleValue
2.492

@<SCITEGIC>MOL_PROPERTY
Valence
SciTegic.value.DoubleValue
3.698

@<SCITEGIC>MOL_PROPERTY
Coulomb
SciTegic.value.DoubleValue
45.280

@<SCITEGIC>MOL_PROPERTY
VdW
SciTegic.value.DoubleValue
1.043

@<SCITEGIC>MOL_PROPERTY
VdW6
SciTegic.value.DoubleValue
-8.789

@<SCITEGIC>MOL_PROPERTY
VdW12
SciTegic.value.DoubleValue
9.832

@<SCITEGIC>MOL_PROPERTY
Bond
SciTegic.value.DoubleValue
0.241

@<SCITEGIC>MOL_PROPERTY
Angle
SciTegic.value.DoubleValue
0.886

@<SCITEGIC>MOL_PROPERTY
Pdih
SciTegic.value.DoubleValue
2.571

@<SCITEGIC>MOL_PROPERTY
Idih
SciTegic.value.DoubleValue
0.000

@<SCITEGIC>MOL_PROPERTY
Tether
SciTegic.value.DoubleValue
0.000

@<TRIPOS>MOLECULE
guest-3_vm2.mol2 : vm2 ligand conformer 69
          29          28           1
SMALL
USER_CHARGES
 
@<TRIPOS>ATOM
       1    C1      19.583934   20.363515   20.278846 C.3        1 MOL1        -0.2427
       2    H1      18.659172   20.270386   19.694819 H          1 MOL1         0.0958
       3    H2      19.352188   20.899634   21.207614 H          1 MOL1         0.0958
       4    H3      20.283493   20.984440   19.704473 H          1 MOL1         0.0958
       5    C2      20.201335   18.976250   20.565724 C.3        1 MOL1        -0.1412
       6    H4      21.112476   19.093259   21.167490 H          1 MOL1         0.0947
       7    H5      20.524856   18.529782   19.615132 H          1 MOL1         0.0947
       8    C3      19.221449   17.997463   21.261605 C.3        1 MOL1        -0.1437
       9    H6      18.377439   17.800833   20.586272 H          1 MOL1         0.0947
      10    H7      19.725979   17.031496   21.401093 H          1 MOL1         0.0947
      11    C4      18.663915   18.476236   22.626947 C.3        1 MOL1        -0.1437
      12    H8      17.973200   17.710061   23.005078 H          1 MOL1         0.0947
      13    H9      18.061258   19.383510   22.487883 H          1 MOL1         0.0947
      14    C5      19.760901   18.733336   23.687529 C.3        1 MOL1        -0.1437
      15    H10     20.388980   17.837722   23.790270 H          1 MOL1         0.0947
      16    H11     20.417263   19.548243   23.354991 H          1 MOL1         0.0947
      17    C6      19.155540   19.100215   25.061155 C.3        1 MOL1        -0.1437
      18    H12     18.499625   18.285917   25.396787 H          1 MOL1         0.0947
      19    H13     18.526172   19.995015   24.956957 H          1 MOL1         0.0947
      20    C7      20.252323   19.362352   26.120101 C.3        1 MOL1        -0.1477
      21    H14     20.868851   18.463478   26.253909 H          1 MOL1         0.0947
      22    H15     20.924337   20.152612   25.759754 H          1 MOL1         0.0947
      23    C8      19.674219   19.796929   27.480562 C.3        1 MOL1         0.0145
      24    H16     19.054491   20.688087   27.349544 H          1 MOL1         0.0921
      25    H17     20.493660   20.047882   28.159591 H          1 MOL1         0.0921
      26    N1      18.830384   18.731705   28.152529 N.4        1 MOL1        -0.5969
      27    H18     18.019585   18.474094   27.581136 H          1 MOL1         0.3603
      28    H19     18.470760   19.047189   29.060131 H          1 MOL1         0.3603
      29    H20     19.365798   17.874194   28.323724 H          1 MOL1         0.3603
@<TRIPOS>BOND
    1     1     2    1
    2     1     3    1
    3     1     4    1
    4     1     5    1
    5     5     6    1
    6     5     7    1
    7     5     8    1
    8     8     9    1
    9     8    10    1
   10     8    11    1
   11    11    12    1
   12    11    13    1
   13    11    14    1
   14    14    15    1
   15    14    16    1
   16    14    17    1
   17    17    18    1
   18    17    19    1
   19    17    20    1
   20    20    21    1
   21    20    22    1
   22    20    23    1
   23    23    24    1
   24    23    25    1
   25    23    26    1
   26    26    27    1
   27    26    28    1
   28    26    29    1
@<TRIPOS>SUBSTRUCTURE
       1 MOL1            1 RESIDUE      1      MOL     
@<SCITEGIC>MOL_PROPERTY
VM2 Rank
SciTegic.value.IntegerValue
69

@<SCITEGIC>MOL_PROPERTY
Conf_Id
SciTegic.value.IntegerValue
925

@<SCITEGIC>MOL_PROPERTY
Probability
SciTegic.value.DoubleValue
0.40

@<SCITEGIC>MOL_PROPERTY
Sum Probability
SciTegic.value.DoubleValue
73.13

@<SCITEGIC>MOL_PROPERTY
Delta G
SciTegic.value.DoubleValue
1.548

@<SCITEGIC>MOL_PROPERTY
G
SciTegic.value.DoubleValue
59.696

@<SCITEGIC>MOL_PROPERTY
E
SciTegic.value.DoubleValue
21.976

@<SCITEGIC>MOL_PROPERTY
-TS
SciTegic.value.DoubleValue
37.720

@<SCITEGIC>MOL_PROPERTY
U+W
SciTegic.value.DoubleValue
-2.169

@<SCITEGIC>MOL_PROPERTY
U
SciTegic.value.DoubleValue
49.446

@<SCITEGIC>MOL_PROPERTY
W
SciTegic.value.DoubleValue
-51.615

@<SCITEGIC>MOL_PROPERTY
W(PB)
SciTegic.value.DoubleValue
-54.086

@<SCITEGIC>MOL_PROPERTY
W(SA)
SciTegic.value.DoubleValue
2.470

@<SCITEGIC>MOL_PROPERTY
Valence
SciTegic.value.DoubleValue
3.641

@<SCITEGIC>MOL_PROPERTY
Coulomb
SciTegic.value.DoubleValue
44.872

@<SCITEGIC>MOL_PROPERTY
VdW
SciTegic.value.DoubleValue
0.934

@<SCITEGIC>MOL_PROPERTY
VdW6
SciTegic.value.DoubleValue
-9.029

@<SCITEGIC>MOL_PROPERTY
VdW12
SciTegic.value.DoubleValue
9.963

@<SCITEGIC>MOL_PROPERTY
Bond
SciTegic.value.DoubleValue
0.244

@<SCITEGIC>MOL_PROPERTY
Angle
SciTegic.value.DoubleValue
1.082

@<SCITEGIC>MOL_PROPERTY
Pdih
SciTegic.value.DoubleValue
2.315

@<SCITEGIC>MOL_PROPERTY
Idih
SciTegic.value.DoubleValue
0.000

@<SCITEGIC>MOL_PROPERTY
Tether
SciTegic.value.DoubleValue
0.000

@<TRIPOS>MOLECULE
guest-3_vm2.mol2 : vm2 ligand conformer 70
          29          28           1
SMALL
USER_CHARGES
 
@<TRIPOS>ATOM
       1    C1      20.244595   18.244073   19.623414 C.3        1 MOL1        -0.2427
       2    H1      20.238322   19.094497   18.929171 H          1 MOL1         0.0958
       3    H2      21.289486   17.997479   19.852850 H          1 MOL1         0.0958
       4    H3      19.800851   17.383632   19.105949 H          1 MOL1         0.0958
       5    C2      19.457244   18.571612   20.909801 C.3        1 MOL1        -0.1412
       6    H4      19.451561   17.685923   21.558775 H          1 MOL1         0.0947
       7    H5      18.410569   18.785103   20.651807 H          1 MOL1         0.0947
       8    C3      20.067369   19.779502   21.659258 C.3        1 MOL1        -0.1437
       9    H6      21.096662   19.544949   21.963801 H          1 MOL1         0.0947
      10    H7      20.137096   20.630298   20.967464 H          1 MOL1         0.0947
      11    C4      19.247410   20.219946   22.896720 C.3        1 MOL1        -0.1437
      12    H8      18.223207   20.471197   22.588287 H          1 MOL1         0.0947
      13    H9      19.686398   21.146220   23.292408 H          1 MOL1         0.0947
      14    C5      19.209034   19.159436   24.023020 C.3        1 MOL1        -0.1437
      15    H10     18.699130   18.254507   23.667791 H          1 MOL1         0.0947
      16    H11     20.236411   18.868784   24.279339 H          1 MOL1         0.0947
      17    C6      18.479541   19.688568   25.280950 C.3        1 MOL1        -0.1437
      18    H12     17.471707   20.022785   24.998269 H          1 MOL1         0.0947
      19    H13     18.998399   20.576622   25.665926 H          1 MOL1         0.0947
      20    C7      18.350055   18.627002   26.401930 C.3        1 MOL1        -0.1477
      21    H14     17.789155   19.054573   27.243581 H          1 MOL1         0.0947
      22    H15     17.752512   17.782622   26.033393 H          1 MOL1         0.0947
      23    C8      19.700670   18.089547   26.916793 C.3        1 MOL1         0.0145
      24    H16     20.248806   17.619219   26.096438 H          1 MOL1         0.0921
      25    H17     19.521163   17.331317   27.683829 H          1 MOL1         0.0921
      26    N1      20.588082   19.158315   27.523114 N.4        1 MOL1        -0.5969
      27    H18     20.818240   19.887940   26.841200 H          1 MOL1         0.3603
      28    H19     21.475181   18.770308   27.862131 H          1 MOL1         0.3603
      29    H20     20.137402   19.618984   28.320512 H          1 MOL1         0.3603
@<TRIPOS>BOND
    1     1     2    1
    2     1     3    1
    3     1     4    1
    4     1     5    1
    5     5     6    1
    6     5     7    1
    7     5     8    1
    8     8     9    1
    9     8    10    1
   10     8    11    1
   11    11    12    1
   12    11    13    1
   13    11    14    1
   14    14    15    1
   15    14    16    1
   16    14    17    1
   17    17    18    1
   18    17    19    1
   19    17    20    1
   20    20    21    1
   21    20    22    1
   22    20    23    1
   23    23    24    1
   24    23    25    1
   25    23    26    1
   26    26    27    1
   27    26    28    1
   28    26    29    1
@<TRIPOS>SUBSTRUCTURE
       1 MOL1            1 RESIDUE      1      MOL     
@<SCITEGIC>MOL_PROPERTY
VM2 Rank
SciTegic.value.IntegerValue
70

@<SCITEGIC>MOL_PROPERTY
Conf_Id
SciTegic.value.IntegerValue
1596

@<SCITEGIC>MOL_PROPERTY
Probability
SciTegic.value.DoubleValue
0.40

@<SCITEGIC>MOL_PROPERTY
Sum Probability
SciTegic.value.DoubleValue
73.53

@<SCITEGIC>MOL_PROPERTY
Delta G
SciTegic.value.DoubleValue
1.548

@<SCITEGIC>MOL_PROPERTY
G
SciTegic.value.DoubleValue
59.696

@<SCITEGIC>MOL_PROPERTY
E
SciTegic.value.DoubleValue
22.122

@<SCITEGIC>MOL_PROPERTY
-TS
SciTegic.value.DoubleValue
37.573

@<SCITEGIC>MOL_PROPERTY
U+W
SciTegic.value.DoubleValue
-2.022

@<SCITEGIC>MOL_PROPERTY
U
SciTegic.value.DoubleValue
49.868

@<SCITEGIC>MOL_PROPERTY
W
SciTegic.value.DoubleValue
-51.891

@<SCITEGIC>MOL_PROPERTY
W(PB)
SciTegic.value.DoubleValue
-54.394

@<SCITEGIC>MOL_PROPERTY
W(SA)
SciTegic.value.DoubleValue
2.503

@<SCITEGIC>MOL_PROPERTY
Valence
SciTegic.value.DoubleValue
3.510

@<SCITEGIC>MOL_PROPERTY
Coulomb
SciTegic.value.DoubleValue
45.457

@<SCITEGIC>MOL_PROPERTY
VdW
SciTegic.value.DoubleValue
0.901

@<SCITEGIC>MOL_PROPERTY
VdW6
SciTegic.value.DoubleValue
-8.930

@<SCITEGIC>MOL_PROPERTY
VdW12
SciTegic.value.DoubleValue
9.831

@<SCITEGIC>MOL_PROPERTY
Bond
SciTegic.value.DoubleValue
0.230

@<SCITEGIC>MOL_PROPERTY
Angle
SciTegic.value.DoubleValue
0.893

@<SCITEGIC>MOL_PROPERTY
Pdih
SciTegic.value.DoubleValue
2.387

@<SCITEGIC>MOL_PROPERTY
Idih
SciTegic.value.DoubleValue
0.000

@<SCITEGIC>MOL_PROPERTY
Tether
SciTegic.value.DoubleValue
0.000

@<TRIPOS>MOLECULE
guest-3_vm2.mol2 : vm2 ligand conformer 71
          29          28           1
SMALL
USER_CHARGES
 
@<TRIPOS>ATOM
       1    C1      20.649155   19.379595   19.648779 C.3        1 MOL1        -0.2427
       2    H1      20.856555   20.346494   19.172197 H          1 MOL1         0.0958
       3    H2      21.611323   18.900810   19.872930 H          1 MOL1         0.0958
       4    H3      20.116481   18.753027   18.921521 H          1 MOL1         0.0958
       5    C2      19.814033   19.572757   20.932233 C.3        1 MOL1        -0.1412
       6    H4      18.871801   20.079404   20.680882 H          1 MOL1         0.0947
       7    H5      20.360364   20.235982   21.615827 H          1 MOL1         0.0947
       8    C3      19.512656   18.222607   21.624475 C.3        1 MOL1        -0.1437
       9    H6      19.038681   17.547562   20.898558 H          1 MOL1         0.0947
      10    H7      20.454073   17.741440   21.923503 H          1 MOL1         0.0947
      11    C4      18.581483   18.350946   22.854955 C.3        1 MOL1        -0.1437
      12    H8      18.330563   17.340942   23.207367 H          1 MOL1         0.0947
      13    H9      17.633489   18.816071   22.551289 H          1 MOL1         0.0947
      14    C5      19.206110   19.151304   24.022849 C.3        1 MOL1        -0.1437
      15    H10     20.182231   18.716773   24.275936 H          1 MOL1         0.0947
      16    H11     19.387957   20.188025   23.711030 H          1 MOL1         0.0947
      17    C6      18.288698   19.152919   25.268996 C.3        1 MOL1        -0.1437
      18    H12     18.124081   18.122419   25.611096 H          1 MOL1         0.0947
      19    H13     17.300539   19.542368   24.987551 H          1 MOL1         0.0947
      20    C7      18.843401   20.011932   26.432904 C.3        1 MOL1        -0.1477
      21    H14     18.919144   21.057717   26.106636 H          1 MOL1         0.0947
      22    H15     18.126705   20.002041   27.264800 H          1 MOL1         0.0947
      23    C8      20.222369   19.554008   26.949485 C.3        1 MOL1         0.0145
      24    H16     20.551620   20.223893   27.748438 H          1 MOL1         0.0921
      25    H17     20.955885   19.604202   26.140733 H          1 MOL1         0.0921
      26    N1      20.226096   18.141934   27.500325 N.4        1 MOL1        -0.5969
      27    H18     19.574538   18.038534   28.285152 H          1 MOL1         0.3603
      28    H19     21.153931   17.868213   27.841833 H          1 MOL1         0.3603
      29    H20     19.952956   17.458810   26.786837 H          1 MOL1         0.3603
@<TRIPOS>BOND
    1     1     2    1
    2     1     3    1
    3     1     4    1
    4     1     5    1
    5     5     6    1
    6     5     7    1
    7     5     8    1
    8     8     9    1
    9     8    10    1
   10     8    11    1
   11    11    12    1
   12    11    13    1
   13    11    14    1
   14    14    15    1
   15    14    16    1
   16    14    17    1
   17    17    18    1
   18    17    19    1
   19    17    20    1
   20    20    21    1
   21    20    22    1
   22    20    23    1
   23    23    24    1
   24    23    25    1
   25    23    26    1
   26    26    27    1
   27    26    28    1
   28    26    29    1
@<TRIPOS>SUBSTRUCTURE
       1 MOL1            1 RESIDUE      1      MOL     
@<SCITEGIC>MOL_PROPERTY
VM2 Rank
SciTegic.value.IntegerValue
71

@<SCITEGIC>MOL_PROPERTY
Conf_Id
SciTegic.value.IntegerValue
1325

@<SCITEGIC>MOL_PROPERTY
Probability
SciTegic.value.DoubleValue
0.40

@<SCITEGIC>MOL_PROPERTY
Sum Probability
SciTegic.value.DoubleValue
73.92

@<SCITEGIC>MOL_PROPERTY
Delta G
SciTegic.value.DoubleValue
1.550

@<SCITEGIC>MOL_PROPERTY
G
SciTegic.value.DoubleValue
59.698

@<SCITEGIC>MOL_PROPERTY
E
SciTegic.value.DoubleValue
22.124

@<SCITEGIC>MOL_PROPERTY
-TS
SciTegic.value.DoubleValue
37.574

@<SCITEGIC>MOL_PROPERTY
U+W
SciTegic.value.DoubleValue
-2.021

@<SCITEGIC>MOL_PROPERTY
U
SciTegic.value.DoubleValue
49.868

@<SCITEGIC>MOL_PROPERTY
W
SciTegic.value.DoubleValue
-51.889

@<SCITEGIC>MOL_PROPERTY
W(PB)
SciTegic.value.DoubleValue
-54.368

@<SCITEGIC>MOL_PROPERTY
W(SA)
SciTegic.value.DoubleValue
2.479

@<SCITEGIC>MOL_PROPERTY
Valence
SciTegic.value.DoubleValue
3.510

@<SCITEGIC>MOL_PROPERTY
Coulomb
SciTegic.value.DoubleValue
45.457

@<SCITEGIC>MOL_PROPERTY
VdW
SciTegic.value.DoubleValue
0.901

@<SCITEGIC>MOL_PROPERTY
VdW6
SciTegic.value.DoubleValue
-8.930

@<SCITEGIC>MOL_PROPERTY
VdW12
SciTegic.value.DoubleValue
9.831

@<SCITEGIC>MOL_PROPERTY
Bond
SciTegic.value.DoubleValue
0.230

@<SCITEGIC>MOL_PROPERTY
Angle
SciTegic.value.DoubleValue
0.893

@<SCITEGIC>MOL_PROPERTY
Pdih
SciTegic.value.DoubleValue
2.387

@<SCITEGIC>MOL_PROPERTY
Idih
SciTegic.value.DoubleValue
0.000

@<SCITEGIC>MOL_PROPERTY
Tether
SciTegic.value.DoubleValue
0.000

@<TRIPOS>MOLECULE
guest-3_vm2.mol2 : vm2 ligand conformer 72
          29          28           1
SMALL
USER_CHARGES
 
@<TRIPOS>ATOM
       1    C1      21.328151   18.705258   20.566118 C.3        1 MOL1        -0.2427
       2    H1      21.167491   19.297608   19.655886 H          1 MOL1         0.0958
       3    H2      22.076614   19.220646   21.182053 H          1 MOL1         0.0958
       4    H3      21.747051   17.735576   20.267374 H          1 MOL1         0.0958
       5    C2      20.008722   18.512567   21.343089 C.3        1 MOL1        -0.1412
       6    H4      20.201883   17.883972   22.222547 H          1 MOL1         0.0947
       7    H5      19.290445   17.969042   20.713601 H          1 MOL1         0.0947
       8    C3      19.400800   19.866442   21.778762 C.3        1 MOL1        -0.1437
       9    H6      20.101546   20.392758   22.440088 H          1 MOL1         0.0947
      10    H7      19.285231   20.506650   20.893350 H          1 MOL1         0.0947
      11    C4      18.017731   19.733965   22.467472 C.3        1 MOL1        -0.1437
      12    H8      17.299069   19.323290   21.744973 H          1 MOL1         0.0947
      13    H9      17.650864   20.739089   22.716980 H          1 MOL1         0.0947
      14    C5      17.991567   18.858079   23.746842 C.3        1 MOL1        -0.1437
      15    H10     16.962748   18.842405   24.132176 H          1 MOL1         0.0947
      16    H11     18.233827   17.817373   23.494112 H          1 MOL1         0.0947
      17    C6      18.939885   19.360921   24.861398 C.3        1 MOL1        -0.1437
      18    H12     18.720701   20.414863   25.081652 H          1 MOL1         0.0947
      19    H13     19.978060   19.315651   24.509332 H          1 MOL1         0.0947
      20    C7      18.797676   18.523517   26.154240 C.3        1 MOL1        -0.1477
      21    H14     17.752057   18.545566   26.489063 H          1 MOL1         0.0947
      22    H15     19.039346   17.471951   25.949840 H          1 MOL1         0.0947
      23    C8      19.687042   19.042522   27.300385 C.3        1 MOL1         0.0145
      24    H16     19.480652   18.468695   28.207940 H          1 MOL1         0.0921
      25    H17     19.454963   20.092101   27.500157 H          1 MOL1         0.0921
      26    N1      21.172426   18.934728   27.016696 N.4        1 MOL1        -0.5969
      27    H18     21.735691   19.276207   27.803297 H          1 MOL1         0.3603
      28    H19     21.441975   19.482685   26.193769 H          1 MOL1         0.3603
      29    H20     21.456926   17.965135   26.842839 H          1 MOL1         0.3603
@<TRIPOS>BOND
    1     1     2    1
    2     1     3    1
    3     1     4    1
    4     1     5    1
    5     5     6    1
    6     5     7    1
    7     5     8    1
    8     8     9    1
    9     8    10    1
   10     8    11    1
   11    11    12    1
   12    11    13    1
   13    11    14    1
   14    14    15    1
   15    14    16    1
   16    14    17    1
   17    17    18    1
   18    17    19    1
   19    17    20    1
   20    20    21    1
   21    20    22    1
   22    20    23    1
   23    23    24    1
   24    23    25    1
   25    23    26    1
   26    26    27    1
   27    26    28    1
   28    26    29    1
@<TRIPOS>SUBSTRUCTURE
       1 MOL1            1 RESIDUE      1      MOL     
@<SCITEGIC>MOL_PROPERTY
VM2 Rank
SciTegic.value.IntegerValue
72

@<SCITEGIC>MOL_PROPERTY
Conf_Id
SciTegic.value.IntegerValue
2142

@<SCITEGIC>MOL_PROPERTY
Probability
SciTegic.value.DoubleValue
0.39

@<SCITEGIC>MOL_PROPERTY
Sum Probability
SciTegic.value.DoubleValue
74.32

@<SCITEGIC>MOL_PROPERTY
Delta G
SciTegic.value.DoubleValue
1.556

@<SCITEGIC>MOL_PROPERTY
G
SciTegic.value.DoubleValue
59.704

@<SCITEGIC>MOL_PROPERTY
E
SciTegic.value.DoubleValue
21.961

@<SCITEGIC>MOL_PROPERTY
-TS
SciTegic.value.DoubleValue
37.743

@<SCITEGIC>MOL_PROPERTY
U+W
SciTegic.value.DoubleValue
-2.183

@<SCITEGIC>MOL_PROPERTY
U
SciTegic.value.DoubleValue
50.198

@<SCITEGIC>MOL_PROPERTY
W
SciTegic.value.DoubleValue
-52.381

@<SCITEGIC>MOL_PROPERTY
W(PB)
SciTegic.value.DoubleValue
-54.854

@<SCITEGIC>MOL_PROPERTY
W(SA)
SciTegic.value.DoubleValue
2.473

@<SCITEGIC>MOL_PROPERTY
Valence
SciTegic.value.DoubleValue
3.666

@<SCITEGIC>MOL_PROPERTY
Coulomb
SciTegic.value.DoubleValue
45.691

@<SCITEGIC>MOL_PROPERTY
VdW
SciTegic.value.DoubleValue
0.841

@<SCITEGIC>MOL_PROPERTY
VdW6
SciTegic.value.DoubleValue
-9.219

@<SCITEGIC>MOL_PROPERTY
VdW12
SciTegic.value.DoubleValue
10.060

@<SCITEGIC>MOL_PROPERTY
Bond
SciTegic.value.DoubleValue
0.250

@<SCITEGIC>MOL_PROPERTY
Angle
SciTegic.value.DoubleValue
1.116

@<SCITEGIC>MOL_PROPERTY
Pdih
SciTegic.value.DoubleValue
2.300

@<SCITEGIC>MOL_PROPERTY
Idih
SciTegic.value.DoubleValue
0.000

@<SCITEGIC>MOL_PROPERTY
Tether
SciTegic.value.DoubleValue
0.000

@<TRIPOS>MOLECULE
guest-3_vm2.mol2 : vm2 ligand conformer 73
          29          28           1
SMALL
USER_CHARGES
 
@<TRIPOS>ATOM
       1    C1      19.461975   17.845456   20.034217 C.3        1 MOL1        -0.2427
       2    H1      19.689095   16.935044   20.603936 H          1 MOL1         0.0958
       3    H2      18.395261   18.070771   20.156497 H          1 MOL1         0.0958
       4    H3      19.634124   17.628797   18.971984 H          1 MOL1         0.0958
       5    C2      20.347104   19.025108   20.496099 C.3        1 MOL1        -0.1412
       6    H4      20.082949   19.929120   19.929798 H          1 MOL1         0.0947
       7    H5      21.394040   18.801604   20.247691 H          1 MOL1         0.0947
       8    C3      20.245956   19.309706   22.013943 C.3        1 MOL1        -0.1437
       9    H6      20.541625   18.408941   22.567511 H          1 MOL1         0.0947
      10    H7      20.976242   20.088654   22.272775 H          1 MOL1         0.0947
      11    C4      18.834682   19.769812   22.458755 C.3        1 MOL1        -0.1437
      12    H8      18.112132   18.954493   22.321684 H          1 MOL1         0.0947
      13    H9      18.504033   20.590261   21.807154 H          1 MOL1         0.0947
      14    C5      18.779201   20.256832   23.927501 C.3        1 MOL1        -0.1437
      15    H10     19.482125   21.089936   24.065743 H          1 MOL1         0.0947
      16    H11     17.777020   20.663732   24.120806 H          1 MOL1         0.0947
      17    C6      19.079762   19.143023   24.959009 C.3        1 MOL1        -0.1437
      18    H12     20.104505   18.777040   24.818921 H          1 MOL1         0.0947
      19    H13     18.407896   18.291078   24.785175 H          1 MOL1         0.0947
      20    C7      18.906594   19.647042   26.411324 C.3        1 MOL1        -0.1477
      21    H14     19.593773   20.481616   26.604358 H          1 MOL1         0.0947
      22    H15     17.890023   20.041643   26.540953 H          1 MOL1         0.0947
      23    C8      19.135627   18.539217   27.457450 C.3        1 MOL1         0.0145
      24    H16     18.458371   17.703260   27.262796 H          1 MOL1         0.0921
      25    H17     18.916358   18.930963   28.454443 H          1 MOL1         0.0921
      26    N1      20.553099   18.001803   27.476702 N.4        1 MOL1        -0.5969
      27    H18     20.675342   17.276371   28.191841 H          1 MOL1         0.3603
      28    H19     21.236663   18.739130   27.677701 H          1 MOL1         0.3603
      29    H20     20.812514   17.584118   26.577601 H          1 MOL1         0.3603
@<TRIPOS>BOND
    1     1     2    1
    2     1     3    1
    3     1     4    1
    4     1     5    1
    5     5     6    1
    6     5     7    1
    7     5     8    1
    8     8     9    1
    9     8    10    1
   10     8    11    1
   11    11    12    1
   12    11    13    1
   13    11    14    1
   14    14    15    1
   15    14    16    1
   16    14    17    1
   17    17    18    1
   18    17    19    1
   19    17    20    1
   20    20    21    1
   21    20    22    1
   22    20    23    1
   23    23    24    1
   24    23    25    1
   25    23    26    1
   26    26    27    1
   27    26    28    1
   28    26    29    1
@<TRIPOS>SUBSTRUCTURE
       1 MOL1            1 RESIDUE      1      MOL     
@<SCITEGIC>MOL_PROPERTY
VM2 Rank
SciTegic.value.IntegerValue
73

@<SCITEGIC>MOL_PROPERTY
Conf_Id
SciTegic.value.IntegerValue
2152

@<SCITEGIC>MOL_PROPERTY
Probability
SciTegic.value.DoubleValue
0.39

@<SCITEGIC>MOL_PROPERTY
Sum Probability
SciTegic.value.DoubleValue
74.71

@<SCITEGIC>MOL_PROPERTY
Delta G
SciTegic.value.DoubleValue
1.558

@<SCITEGIC>MOL_PROPERTY
G
SciTegic.value.DoubleValue
59.706

@<SCITEGIC>MOL_PROPERTY
E
SciTegic.value.DoubleValue
22.185

@<SCITEGIC>MOL_PROPERTY
-TS
SciTegic.value.DoubleValue
37.522

@<SCITEGIC>MOL_PROPERTY
U+W
SciTegic.value.DoubleValue
-1.960

@<SCITEGIC>MOL_PROPERTY
U
SciTegic.value.DoubleValue
50.021

@<SCITEGIC>MOL_PROPERTY
W
SciTegic.value.DoubleValue
-51.980

@<SCITEGIC>MOL_PROPERTY
W(PB)
SciTegic.value.DoubleValue
-54.506

@<SCITEGIC>MOL_PROPERTY
W(SA)
SciTegic.value.DoubleValue
2.526

@<SCITEGIC>MOL_PROPERTY
Valence
SciTegic.value.DoubleValue
3.697

@<SCITEGIC>MOL_PROPERTY
Coulomb
SciTegic.value.DoubleValue
45.280

@<SCITEGIC>MOL_PROPERTY
VdW
SciTegic.value.DoubleValue
1.043

@<SCITEGIC>MOL_PROPERTY
VdW6
SciTegic.value.DoubleValue
-8.789

@<SCITEGIC>MOL_PROPERTY
VdW12
SciTegic.value.DoubleValue
9.832

@<SCITEGIC>MOL_PROPERTY
Bond
SciTegic.value.DoubleValue
0.241

@<SCITEGIC>MOL_PROPERTY
Angle
SciTegic.value.DoubleValue
0.886

@<SCITEGIC>MOL_PROPERTY
Pdih
SciTegic.value.DoubleValue
2.571

@<SCITEGIC>MOL_PROPERTY
Idih
SciTegic.value.DoubleValue
0.000

@<SCITEGIC>MOL_PROPERTY
Tether
SciTegic.value.DoubleValue
0.000

@<TRIPOS>MOLECULE
guest-3_vm2.mol2 : vm2 ligand conformer 74
          29          28           1
SMALL
USER_CHARGES
 
@<TRIPOS>ATOM
       1    C1      18.789105   18.130143   20.229120 C.3        1 MOL1        -0.2427
       2    H1      18.257881   17.824562   21.139153 H          1 MOL1         0.0958
       3    H2      18.139121   18.809263   19.662321 H          1 MOL1         0.0958
       4    H3      18.947479   17.230271   19.620857 H          1 MOL1         0.0958
       5    C2      20.139705   18.803312   20.561852 C.3        1 MOL1        -0.1412
       6    H4      20.685758   18.982416   19.625171 H          1 MOL1         0.0947
       7    H5      20.763819   18.113577   21.145582 H          1 MOL1         0.0947
       8    C3      19.988247   20.152498   21.309659 C.3        1 MOL1        -0.1437
       9    H6      20.987390   20.576492   21.480075 H          1 MOL1         0.0947
      10    H7      19.467489   20.864414   20.654619 H          1 MOL1         0.0947
      11    C4      19.234539   20.079739   22.662750 C.3        1 MOL1        -0.1437
      12    H8      18.196378   19.763110   22.496467 H          1 MOL1         0.0947
      13    H9      19.177468   21.094262   23.080577 H          1 MOL1         0.0947
      14    C5      19.907879   19.146058   23.696756 C.3        1 MOL1        -0.1437
      15    H10     19.907073   18.113705   23.322979 H          1 MOL1         0.0947
      16    H11     20.958850   19.439154   23.826048 H          1 MOL1         0.0947
      17    C6      19.187478   19.189637   25.063148 C.3        1 MOL1        -0.1437
      18    H12     18.136068   18.897945   24.932448 H          1 MOL1         0.0947
      19    H13     19.188115   20.221124   25.439961 H          1 MOL1         0.0947
      20    C7      19.857594   18.252340   26.095349 C.3        1 MOL1        -0.1477
      21    H14     19.885136   17.230323   25.694494 H          1 MOL1         0.0947
      22    H15     20.901145   18.554243   26.256098 H          1 MOL1         0.0947
      23    C8      19.115649   18.226568   27.445447 C.3        1 MOL1         0.0145
      24    H16     19.583221   17.488136   28.102438 H          1 MOL1         0.0921
      25    H17     18.074479   17.932429   27.287845 H          1 MOL1         0.0921
      26    N1      19.123805   19.557704   28.170919 N.4        1 MOL1        -0.5969
      27    H18     18.632861   19.504269   29.070207 H          1 MOL1         0.3603
      28    H19     18.665643   20.291581   27.621591 H          1 MOL1         0.3603
      29    H20     20.077771   19.877377   28.368544 H          1 MOL1         0.3603
@<TRIPOS>BOND
    1     1     2    1
    2     1     3    1
    3     1     4    1
    4     1     5    1
    5     5     6    1
    6     5     7    1
    7     5     8    1
    8     8     9    1
    9     8    10    1
   10     8    11    1
   11    11    12    1
   12    11    13    1
   13    11    14    1
   14    14    15    1
   15    14    16    1
   16    14    17    1
   17    17    18    1
   18    17    19    1
   19    17    20    1
   20    20    21    1
   21    20    22    1
   22    20    23    1
   23    23    24    1
   24    23    25    1
   25    23    26    1
   26    26    27    1
   27    26    28    1
   28    26    29    1
@<TRIPOS>SUBSTRUCTURE
       1 MOL1            1 RESIDUE      1      MOL     
@<SCITEGIC>MOL_PROPERTY
VM2 Rank
SciTegic.value.IntegerValue
74

@<SCITEGIC>MOL_PROPERTY
Conf_Id
SciTegic.value.IntegerValue
2146

@<SCITEGIC>MOL_PROPERTY
Probability
SciTegic.value.DoubleValue
0.39

@<SCITEGIC>MOL_PROPERTY
Sum Probability
SciTegic.value.DoubleValue
75.10

@<SCITEGIC>MOL_PROPERTY
Delta G
SciTegic.value.DoubleValue
1.568

@<SCITEGIC>MOL_PROPERTY
G
SciTegic.value.DoubleValue
59.716

@<SCITEGIC>MOL_PROPERTY
E
SciTegic.value.DoubleValue
21.996

@<SCITEGIC>MOL_PROPERTY
-TS
SciTegic.value.DoubleValue
37.720

@<SCITEGIC>MOL_PROPERTY
U+W
SciTegic.value.DoubleValue
-2.149

@<SCITEGIC>MOL_PROPERTY
U
SciTegic.value.DoubleValue
49.446

@<SCITEGIC>MOL_PROPERTY
W
SciTegic.value.DoubleValue
-51.595

@<SCITEGIC>MOL_PROPERTY
W(PB)
SciTegic.value.DoubleValue
-54.068

@<SCITEGIC>MOL_PROPERTY
W(SA)
SciTegic.value.DoubleValue
2.472

@<SCITEGIC>MOL_PROPERTY
Valence
SciTegic.value.DoubleValue
3.641

@<SCITEGIC>MOL_PROPERTY
Coulomb
SciTegic.value.DoubleValue
44.872

@<SCITEGIC>MOL_PROPERTY
VdW
SciTegic.value.DoubleValue
0.934

@<SCITEGIC>MOL_PROPERTY
VdW6
SciTegic.value.DoubleValue
-9.029

@<SCITEGIC>MOL_PROPERTY
VdW12
SciTegic.value.DoubleValue
9.963

@<SCITEGIC>MOL_PROPERTY
Bond
SciTegic.value.DoubleValue
0.244

@<SCITEGIC>MOL_PROPERTY
Angle
SciTegic.value.DoubleValue
1.082

@<SCITEGIC>MOL_PROPERTY
Pdih
SciTegic.value.DoubleValue
2.315

@<SCITEGIC>MOL_PROPERTY
Idih
SciTegic.value.DoubleValue
0.000

@<SCITEGIC>MOL_PROPERTY
Tether
SciTegic.value.DoubleValue
0.000

@<TRIPOS>MOLECULE
guest-3_vm2.mol2 : vm2 ligand conformer 75
          29          28           1
SMALL
USER_CHARGES
 
@<TRIPOS>ATOM
       1    C1      20.680159   17.972231   20.368139 C.3        1 MOL1        -0.2427
       2    H1      20.782968   17.274461   19.527022 H          1 MOL1         0.0958
       3    H2      21.486977   18.712563   20.290801 H          1 MOL1         0.0958
       4    H3      20.826378   17.398647   21.291744 H          1 MOL1         0.0958
       5    C2      19.294235   18.655530   20.337284 C.3        1 MOL1        -0.1412
       6    H4      18.506000   17.897857   20.448338 H          1 MOL1         0.0947
       7    H5      19.146129   19.110583   19.347968 H          1 MOL1         0.0947
       8    C3      19.123490   19.750649   21.417633 C.3        1 MOL1        -0.1437
       9    H6      19.901738   20.515793   21.290722 H          1 MOL1         0.0947
      10    H7      18.162438   20.256594   21.251373 H          1 MOL1         0.0947
      11    C4      19.162681   19.201653   22.863975 C.3        1 MOL1        -0.1437
      12    H8      20.144004   18.751613   23.057138 H          1 MOL1         0.0947
      13    H9      18.415463   18.403756   22.973262 H          1 MOL1         0.0947
      14    C5      18.888412   20.313285   23.905241 C.3        1 MOL1        -0.1437
      15    H10     19.662798   21.089273   23.831410 H          1 MOL1         0.0947
      16    H11     17.935825   20.804301   23.662794 H          1 MOL1         0.0947
      17    C6      18.813479   19.791618   25.361142 C.3        1 MOL1        -0.1437
      18    H12     18.022851   19.032864   25.433825 H          1 MOL1         0.0947
      19    H13     18.507435   20.621703   26.012948 H          1 MOL1         0.0947
      20    C7      20.154010   19.213720   25.879512 C.3        1 MOL1        -0.1477
      21    H14     20.429362   18.314821   25.313653 H          1 MOL1         0.0947
      22    H15     20.954431   19.947418   25.715865 H          1 MOL1         0.0947
      23    C8      20.107577   18.868798   27.380327 C.3        1 MOL1         0.0145
      24    H16     19.836621   19.758930   27.954458 H          1 MOL1         0.0921
      25    H17     21.097217   18.539219   27.708230 H          1 MOL1         0.0921
      26    N1      19.119959   17.770516   27.721746 N.4        1 MOL1        -0.5969
      27    H18     18.161533   18.031281   27.469367 H          1 MOL1         0.3603
      28    H19     19.119461   17.557347   28.725306 H          1 MOL1         0.3603
      29    H20     19.336632   16.897538   27.229644 H          1 MOL1         0.3603
@<TRIPOS>BOND
    1     1     2    1
    2     1     3    1
    3     1     4    1
    4     1     5    1
    5     5     6    1
    6     5     7    1
    7     5     8    1
    8     8     9    1
    9     8    10    1
   10     8    11    1
   11    11    12    1
   12    11    13    1
   13    11    14    1
   14    14    15    1
   15    14    16    1
   16    14    17    1
   17    17    18    1
   18    17    19    1
   19    17    20    1
   20    20    21    1
   21    20    22    1
   22    20    23    1
   23    23    24    1
   24    23    25    1
   25    23    26    1
   26    26    27    1
   27    26    28    1
   28    26    29    1
@<TRIPOS>SUBSTRUCTURE
       1 MOL1            1 RESIDUE      1      MOL     
@<SCITEGIC>MOL_PROPERTY
VM2 Rank
SciTegic.value.IntegerValue
75

@<SCITEGIC>MOL_PROPERTY
Conf_Id
SciTegic.value.IntegerValue
2239

@<SCITEGIC>MOL_PROPERTY
Probability
SciTegic.value.DoubleValue
0.38

@<SCITEGIC>MOL_PROPERTY
Sum Probability
SciTegic.value.DoubleValue
75.48

@<SCITEGIC>MOL_PROPERTY
Delta G
SciTegic.value.DoubleValue
1.573

@<SCITEGIC>MOL_PROPERTY
G
SciTegic.value.DoubleValue
59.721

@<SCITEGIC>MOL_PROPERTY
E
SciTegic.value.DoubleValue
22.212

@<SCITEGIC>MOL_PROPERTY
-TS
SciTegic.value.DoubleValue
37.508

@<SCITEGIC>MOL_PROPERTY
U+W
SciTegic.value.DoubleValue
-1.932

@<SCITEGIC>MOL_PROPERTY
U
SciTegic.value.DoubleValue
49.862

@<SCITEGIC>MOL_PROPERTY
W
SciTegic.value.DoubleValue
-51.794

@<SCITEGIC>MOL_PROPERTY
W(PB)
SciTegic.value.DoubleValue
-54.284

@<SCITEGIC>MOL_PROPERTY
W(SA)
SciTegic.value.DoubleValue
2.490

@<SCITEGIC>MOL_PROPERTY
Valence
SciTegic.value.DoubleValue
3.720

@<SCITEGIC>MOL_PROPERTY
Coulomb
SciTegic.value.DoubleValue
45.090

@<SCITEGIC>MOL_PROPERTY
VdW
SciTegic.value.DoubleValue
1.051

@<SCITEGIC>MOL_PROPERTY
VdW6
SciTegic.value.DoubleValue
-8.777

@<SCITEGIC>MOL_PROPERTY
VdW12
SciTegic.value.DoubleValue
9.828

@<SCITEGIC>MOL_PROPERTY
Bond
SciTegic.value.DoubleValue
0.242

@<SCITEGIC>MOL_PROPERTY
Angle
SciTegic.value.DoubleValue
0.912

@<SCITEGIC>MOL_PROPERTY
Pdih
SciTegic.value.DoubleValue
2.566

@<SCITEGIC>MOL_PROPERTY
Idih
SciTegic.value.DoubleValue
0.000

@<SCITEGIC>MOL_PROPERTY
Tether
SciTegic.value.DoubleValue
0.000

@<TRIPOS>MOLECULE
guest-3_vm2.mol2 : vm2 ligand conformer 76
          29          28           1
SMALL
USER_CHARGES
 
@<TRIPOS>ATOM
       1    C1      21.148298   19.284695   20.397931 C.3        1 MOL1        -0.2427
       2    H1      21.306509   18.204812   20.280250 H          1 MOL1         0.0958
       3    H2      21.681118   19.792801   19.583770 H          1 MOL1         0.0958
       4    H3      21.610863   19.599782   21.341424 H          1 MOL1         0.0958
       5    C2      19.643086   19.633212   20.359117 C.3        1 MOL1        -0.1412
       6    H4      19.254916   19.413643   19.354692 H          1 MOL1         0.0947
       7    H5      19.509756   20.713441   20.510921 H          1 MOL1         0.0947
       8    C3      18.803026   18.851154   21.397519 C.3        1 MOL1        -0.1437
       9    H6      17.741049   19.073859   21.224748 H          1 MOL1         0.0947
      10    H7      18.923946   17.772081   21.229582 H          1 MOL1         0.0947
      11    C4      19.159885   19.194052   22.863775 C.3        1 MOL1        -0.1437
      12    H8      19.084303   20.279579   23.014894 H          1 MOL1         0.0947
      13    H9      20.201741   18.913893   23.060977 H          1 MOL1         0.0947
      14    C5      18.229482   18.466597   23.863941 C.3        1 MOL1        -0.1437
      15    H10     17.184691   18.699127   23.615660 H          1 MOL1         0.0947
      16    H11     18.339177   17.379430   23.748539 H          1 MOL1         0.0947
      17    C6      18.480886   18.859876   25.340264 C.3        1 MOL1        -0.1437
      18    H12     17.709253   18.386088   25.962890 H          1 MOL1         0.0947
      19    H13     18.348161   19.944098   25.453967 H          1 MOL1         0.0947
      20    C7      19.876879   18.437628   25.862387 C.3        1 MOL1        -0.1477
      21    H14     20.034163   17.370079   25.658990 H          1 MOL1         0.0947
      22    H15     20.667146   18.980357   25.328573 H          1 MOL1         0.0947
      23    C8      20.037951   18.674897   27.376102 C.3        1 MOL1         0.0145
      24    H16     21.007723   18.290002   27.703100 H          1 MOL1         0.0921
      25    H17     19.256332   18.136092   27.918447 H          1 MOL1         0.0921
      26    N1      19.964507   20.135889   27.773965 N.4        1 MOL1        -0.5969
      27    H18     19.061400   20.551261   27.524694 H          1 MOL1         0.3603
      28    H19     20.692098   20.692601   27.313652 H          1 MOL1         0.3603
      29    H20     20.084774   20.261700   28.785044 H          1 MOL1         0.3603
@<TRIPOS>BOND
    1     1     2    1
    2     1     3    1
    3     1     4    1
    4     1     5    1
    5     5     6    1
    6     5     7    1
    7     5     8    1
    8     8     9    1
    9     8    10    1
   10     8    11    1
   11    11    12    1
   12    11    13    1
   13    11    14    1
   14    14    15    1
   15    14    16    1
   16    14    17    1
   17    17    18    1
   18    17    19    1
   19    17    20    1
   20    20    21    1
   21    20    22    1
   22    20    23    1
   23    23    24    1
   24    23    25    1
   25    23    26    1
   26    26    27    1
   27    26    28    1
   28    26    29    1
@<TRIPOS>SUBSTRUCTURE
       1 MOL1            1 RESIDUE      1      MOL     
@<SCITEGIC>MOL_PROPERTY
VM2 Rank
SciTegic.value.IntegerValue
76

@<SCITEGIC>MOL_PROPERTY
Conf_Id
SciTegic.value.IntegerValue
2318

@<SCITEGIC>MOL_PROPERTY
Probability
SciTegic.value.DoubleValue
0.38

@<SCITEGIC>MOL_PROPERTY
Sum Probability
SciTegic.value.DoubleValue
75.87

@<SCITEGIC>MOL_PROPERTY
Delta G
SciTegic.value.DoubleValue
1.574

@<SCITEGIC>MOL_PROPERTY
G
SciTegic.value.DoubleValue
59.722

@<SCITEGIC>MOL_PROPERTY
E
SciTegic.value.DoubleValue
22.213

@<SCITEGIC>MOL_PROPERTY
-TS
SciTegic.value.DoubleValue
37.509

@<SCITEGIC>MOL_PROPERTY
U+W
SciTegic.value.DoubleValue
-1.931

@<SCITEGIC>MOL_PROPERTY
U
SciTegic.value.DoubleValue
49.862

@<SCITEGIC>MOL_PROPERTY
W
SciTegic.value.DoubleValue
-51.794

@<SCITEGIC>MOL_PROPERTY
W(PB)
SciTegic.value.DoubleValue
-54.296

@<SCITEGIC>MOL_PROPERTY
W(SA)
SciTegic.value.DoubleValue
2.502

@<SCITEGIC>MOL_PROPERTY
Valence
SciTegic.value.DoubleValue
3.720

@<SCITEGIC>MOL_PROPERTY
Coulomb
SciTegic.value.DoubleValue
45.091

@<SCITEGIC>MOL_PROPERTY
VdW
SciTegic.value.DoubleValue
1.051

@<SCITEGIC>MOL_PROPERTY
VdW6
SciTegic.value.DoubleValue
-8.777

@<SCITEGIC>MOL_PROPERTY
VdW12
SciTegic.value.DoubleValue
9.828

@<SCITEGIC>MOL_PROPERTY
Bond
SciTegic.value.DoubleValue
0.242

@<SCITEGIC>MOL_PROPERTY
Angle
SciTegic.value.DoubleValue
0.912

@<SCITEGIC>MOL_PROPERTY
Pdih
SciTegic.value.DoubleValue
2.566

@<SCITEGIC>MOL_PROPERTY
Idih
SciTegic.value.DoubleValue
0.000

@<SCITEGIC>MOL_PROPERTY
Tether
SciTegic.value.DoubleValue
0.000

@<TRIPOS>MOLECULE
guest-3_vm2.mol2 : vm2 ligand conformer 77
          29          28           1
SMALL
USER_CHARGES
 
@<TRIPOS>ATOM
       1    C1      19.430417   19.434113   19.276281 C.3        1 MOL1        -0.2427
       2    H1      20.378087   19.893442   18.966176 H          1 MOL1         0.0958
       3    H2      19.431730   18.388322   18.942264 H          1 MOL1         0.0958
       4    H3      18.617159   19.954057   18.753497 H          1 MOL1         0.0958
       5    C2      19.242455   19.527172   20.805315 C.3        1 MOL1        -0.1412
       6    H4      18.268648   19.095215   21.071587 H          1 MOL1         0.0947
       7    H5      19.215544   20.584005   21.105378 H          1 MOL1         0.0947
       8    C3      20.375663   18.797370   21.564277 C.3        1 MOL1        -0.1437
       9    H6      20.369978   17.730468   21.301812 H          1 MOL1         0.0947
      10    H7      21.343814   19.192466   21.226838 H          1 MOL1         0.0947
      11    C4      20.290413   18.954399   23.102250 C.3        1 MOL1        -0.1437
      12    H8      20.322558   20.021944   23.356794 H          1 MOL1         0.0947
      13    H9      21.186308   18.501289   23.548501 H          1 MOL1         0.0947
      14    C5      19.030368   18.296659   23.719516 C.3        1 MOL1        -0.1437
      15    H10     18.126624   18.820151   23.380920 H          1 MOL1         0.0947
      16    H11     18.947847   17.264667   23.351639 H          1 MOL1         0.0947
      17    C6      19.049465   18.266599   25.267300 C.3        1 MOL1        -0.1437
      18    H12     19.935053   17.713861   25.608277 H          1 MOL1         0.0947
      19    H13     18.176034   17.698203   25.615994 H          1 MOL1         0.0947
      20    C7      19.022419   19.675818   25.909797 C.3        1 MOL1        -0.1477
      21    H14     19.936350   20.229257   25.659543 H          1 MOL1         0.0947
      22    H15     18.182794   20.249077   25.494859 H          1 MOL1         0.0947
      23    C8      18.868223   19.624011   27.441812 C.3        1 MOL1         0.0145
      24    H16     17.958688   19.075898   27.701991 H          1 MOL1         0.0921
      25    H17     18.777399   20.641195   27.832472 H          1 MOL1         0.0921
      26    N1      20.034577   18.961859   28.148453 N.4        1 MOL1        -0.5969
      27    H18     19.907051   18.951705   29.166394 H          1 MOL1         0.3603
      28    H19     20.917997   19.447492   27.961528 H          1 MOL1         0.3603
      29    H20     20.154515   17.988572   27.850801 H          1 MOL1         0.3603
@<TRIPOS>BOND
    1     1     2    1
    2     1     3    1
    3     1     4    1
    4     1     5    1
    5     5     6    1
    6     5     7    1
    7     5     8    1
    8     8     9    1
    9     8    10    1
   10     8    11    1
   11    11    12    1
   12    11    13    1
   13    11    14    1
   14    14    15    1
   15    14    16    1
   16    14    17    1
   17    17    18    1
   18    17    19    1
   19    17    20    1
   20    20    21    1
   21    20    22    1
   22    20    23    1
   23    23    24    1
   24    23    25    1
   25    23    26    1
   26    26    27    1
   27    26    28    1
   28    26    29    1
@<TRIPOS>SUBSTRUCTURE
       1 MOL1            1 RESIDUE      1      MOL     
@<SCITEGIC>MOL_PROPERTY
VM2 Rank
SciTegic.value.IntegerValue
77

@<SCITEGIC>MOL_PROPERTY
Conf_Id
SciTegic.value.IntegerValue
1566

@<SCITEGIC>MOL_PROPERTY
Probability
SciTegic.value.DoubleValue
0.38

@<SCITEGIC>MOL_PROPERTY
Sum Probability
SciTegic.value.DoubleValue
76.25

@<SCITEGIC>MOL_PROPERTY
Delta G
SciTegic.value.DoubleValue
1.580

@<SCITEGIC>MOL_PROPERTY
G
SciTegic.value.DoubleValue
59.728

@<SCITEGIC>MOL_PROPERTY
E
SciTegic.value.DoubleValue
22.200

@<SCITEGIC>MOL_PROPERTY
-TS
SciTegic.value.DoubleValue
37.527

@<SCITEGIC>MOL_PROPERTY
U+W
SciTegic.value.DoubleValue
-1.944

@<SCITEGIC>MOL_PROPERTY
U
SciTegic.value.DoubleValue
49.798

@<SCITEGIC>MOL_PROPERTY
W
SciTegic.value.DoubleValue
-51.742

@<SCITEGIC>MOL_PROPERTY
W(PB)
SciTegic.value.DoubleValue
-54.234

@<SCITEGIC>MOL_PROPERTY
W(SA)
SciTegic.value.DoubleValue
2.492

@<SCITEGIC>MOL_PROPERTY
Valence
SciTegic.value.DoubleValue
3.728

@<SCITEGIC>MOL_PROPERTY
Coulomb
SciTegic.value.DoubleValue
45.048

@<SCITEGIC>MOL_PROPERTY
VdW
SciTegic.value.DoubleValue
1.022

@<SCITEGIC>MOL_PROPERTY
VdW6
SciTegic.value.DoubleValue
-8.813

@<SCITEGIC>MOL_PROPERTY
VdW12
SciTegic.value.DoubleValue
9.835

@<SCITEGIC>MOL_PROPERTY
Bond
SciTegic.value.DoubleValue
0.243

@<SCITEGIC>MOL_PROPERTY
Angle
SciTegic.value.DoubleValue
0.890

@<SCITEGIC>MOL_PROPERTY
Pdih
SciTegic.value.DoubleValue
2.595

@<SCITEGIC>MOL_PROPERTY
Idih
SciTegic.value.DoubleValue
0.000

@<SCITEGIC>MOL_PROPERTY
Tether
SciTegic.value.DoubleValue
0.000

@<TRIPOS>MOLECULE
guest-3_vm2.mol2 : vm2 ligand conformer 78
          29          28           1
SMALL
USER_CHARGES
 
@<TRIPOS>ATOM
       1    C1      20.931579   19.170210   19.868526 C.3        1 MOL1        -0.2427
       2    H1      20.326773   19.660815   19.094736 H          1 MOL1         0.0958
       3    H2      21.961996   19.536522   19.773183 H          1 MOL1         0.0958
       4    H3      20.937055   18.091320   19.665504 H          1 MOL1         0.0958
       5    C2      20.376358   19.466005   21.277858 C.3        1 MOL1        -0.1412
       6    H4      20.410527   20.548714   21.462868 H          1 MOL1         0.0947
       7    H5      21.029557   18.994067   22.023637 H          1 MOL1         0.0947
       8    C3      18.925246   18.954194   21.437431 C.3        1 MOL1        -0.1437
       9    H6      18.308166   19.375239   20.631682 H          1 MOL1         0.0947
      10    H7      18.900533   17.863576   21.306463 H          1 MOL1         0.0947
      11    C4      18.280760   19.328804   22.794639 C.3        1 MOL1        -0.1437
      12    H8      17.222712   19.033556   22.769393 H          1 MOL1         0.0947
      13    H9      18.293430   20.420440   22.918622 H          1 MOL1         0.0947
      14    C5      18.962794   18.656574   24.010275 C.3        1 MOL1        -0.1437
      15    H10     18.992689   17.568846   23.858347 H          1 MOL1         0.0947
      16    H11     20.002552   18.998193   24.084326 H          1 MOL1         0.0947
      17    C6      18.218743   18.972553   25.329836 C.3        1 MOL1        -0.1437
      18    H12     17.168600   18.663743   25.234343 H          1 MOL1         0.0947
      19    H13     18.203236   20.057927   25.496561 H          1 MOL1         0.0947
      20    C7      18.830884   18.258486   26.561031 C.3        1 MOL1        -0.1477
      21    H14     18.230484   18.490745   27.450625 H          1 MOL1         0.0947
      22    H15     18.761622   17.171628   26.420329 H          1 MOL1         0.0947
      23    C8      20.302571   18.628843   26.835312 C.3        1 MOL1         0.0145
      24    H16     20.919184   18.357636   25.974592 H          1 MOL1         0.0921
      25    H17     20.662960   18.067088   27.701356 H          1 MOL1         0.0921
      26    N1      20.515065   20.102330   27.120093 N.4        1 MOL1        -0.5969
      27    H18     21.501133   20.316716   27.304859 H          1 MOL1         0.3603
      28    H19     19.981824   20.411593   27.939358 H          1 MOL1         0.3603
      29    H20     20.221963   20.684755   26.329417 H          1 MOL1         0.3603
@<TRIPOS>BOND
    1     1     2    1
    2     1     3    1
    3     1     4    1
    4     1     5    1
    5     5     6    1
    6     5     7    1
    7     5     8    1
    8     8     9    1
    9     8    10    1
   10     8    11    1
   11    11    12    1
   12    11    13    1
   13    11    14    1
   14    14    15    1
   15    14    16    1
   16    14    17    1
   17    17    18    1
   18    17    19    1
   19    17    20    1
   20    20    21    1
   21    20    22    1
   22    20    23    1
   23    23    24    1
   24    23    25    1
   25    23    26    1
   26    26    27    1
   27    26    28    1
   28    26    29    1
@<TRIPOS>SUBSTRUCTURE
       1 MOL1            1 RESIDUE      1      MOL     
@<SCITEGIC>MOL_PROPERTY
VM2 Rank
SciTegic.value.IntegerValue
78

@<SCITEGIC>MOL_PROPERTY
Conf_Id
SciTegic.value.IntegerValue
1363

@<SCITEGIC>MOL_PROPERTY
Probability
SciTegic.value.DoubleValue
0.38

@<SCITEGIC>MOL_PROPERTY
Sum Probability
SciTegic.value.DoubleValue
76.62

@<SCITEGIC>MOL_PROPERTY
Delta G
SciTegic.value.DoubleValue
1.585

@<SCITEGIC>MOL_PROPERTY
G
SciTegic.value.DoubleValue
59.733

@<SCITEGIC>MOL_PROPERTY
E
SciTegic.value.DoubleValue
22.162

@<SCITEGIC>MOL_PROPERTY
-TS
SciTegic.value.DoubleValue
37.571

@<SCITEGIC>MOL_PROPERTY
U+W
SciTegic.value.DoubleValue
-1.983

@<SCITEGIC>MOL_PROPERTY
U
SciTegic.value.DoubleValue
50.142

@<SCITEGIC>MOL_PROPERTY
W
SciTegic.value.DoubleValue
-52.124

@<SCITEGIC>MOL_PROPERTY
W(PB)
SciTegic.value.DoubleValue
-54.604

@<SCITEGIC>MOL_PROPERTY
W(SA)
SciTegic.value.DoubleValue
2.480

@<SCITEGIC>MOL_PROPERTY
Valence
SciTegic.value.DoubleValue
3.507

@<SCITEGIC>MOL_PROPERTY
Coulomb
SciTegic.value.DoubleValue
45.743

@<SCITEGIC>MOL_PROPERTY
VdW
SciTegic.value.DoubleValue
0.893

@<SCITEGIC>MOL_PROPERTY
VdW6
SciTegic.value.DoubleValue
-8.958

@<SCITEGIC>MOL_PROPERTY
VdW12
SciTegic.value.DoubleValue
9.850

@<SCITEGIC>MOL_PROPERTY
Bond
SciTegic.value.DoubleValue
0.232

@<SCITEGIC>MOL_PROPERTY
Angle
SciTegic.value.DoubleValue
0.893

@<SCITEGIC>MOL_PROPERTY
Pdih
SciTegic.value.DoubleValue
2.382

@<SCITEGIC>MOL_PROPERTY
Idih
SciTegic.value.DoubleValue
0.000

@<SCITEGIC>MOL_PROPERTY
Tether
SciTegic.value.DoubleValue
0.000

@<TRIPOS>MOLECULE
guest-3_vm2.mol2 : vm2 ligand conformer 79
          29          28           1
SMALL
USER_CHARGES
 
@<TRIPOS>ATOM
       1    C1      20.520238   17.914384   20.220338 C.3        1 MOL1        -0.2427
       2    H1      20.788002   17.363474   21.130437 H          1 MOL1         0.0958
       3    H2      20.474299   17.189398   19.397411 H          1 MOL1         0.0958
       4    H3      21.327058   18.624627   19.997575 H          1 MOL1         0.0958
       5    C2      19.166033   18.642764   20.375457 C.3        1 MOL1        -0.1412
       6    H4      18.381880   17.915248   20.627518 H          1 MOL1         0.0947
       7    H5      18.883654   19.075610   19.405582 H          1 MOL1         0.0947
       8    C3      19.192595   19.771573   21.434021 C.3        1 MOL1        -0.1437
       9    H6      19.962204   20.508154   21.165029 H          1 MOL1         0.0947
      10    H7      18.231307   20.302781   21.401678 H          1 MOL1         0.0947
      11    C4      19.438851   19.260796   22.873845 C.3        1 MOL1        -0.1437
      12    H8      20.430324   18.794126   22.939776 H          1 MOL1         0.0947
      13    H9      18.700921   18.482994   23.109300 H          1 MOL1         0.0947
      14    C5      19.347919   20.406725   23.909972 C.3        1 MOL1        -0.1437
      15    H10     20.035852   21.211042   23.614690 H          1 MOL1         0.0947
      16    H11     18.339301   20.842268   23.894170 H          1 MOL1         0.0947
      17    C6      19.699457   19.965255   25.351772 C.3        1 MOL1        -0.1437
      18    H12     19.714883   20.856199   25.994836 H          1 MOL1         0.0947
      19    H13     20.717912   19.554645   25.366719 H          1 MOL1         0.0947
      20    C7      18.702965   18.936494   25.941852 C.3        1 MOL1        -0.1477
      21    H14     17.679359   19.320200   25.838086 H          1 MOL1         0.0947
      22    H15     18.745395   17.994823   25.380131 H          1 MOL1         0.0947
      23    C8      18.966592   18.646098   27.431732 C.3        1 MOL1         0.0145
      24    H16     18.191264   17.976676   27.814182 H          1 MOL1         0.0921
      25    H17     18.924339   19.578207   28.001614 H          1 MOL1         0.0921
      26    N1      20.309351   17.993910   27.696010 N.4        1 MOL1        -0.5969
      27    H18     21.085897   18.588506   27.389910 H          1 MOL1         0.3603
      28    H19     20.400653   17.098559   27.204871 H          1 MOL1         0.3603
      29    H20     20.450756   17.804533   28.694366 H          1 MOL1         0.3603
@<TRIPOS>BOND
    1     1     2    1
    2     1     3    1
    3     1     4    1
    4     1     5    1
    5     5     6    1
    6     5     7    1
    7     5     8    1
    8     8     9    1
    9     8    10    1
   10     8    11    1
   11    11    12    1
   12    11    13    1
   13    11    14    1
   14    14    15    1
   15    14    16    1
   16    14    17    1
   17    17    18    1
   18    17    19    1
   19    17    20    1
   20    20    21    1
   21    20    22    1
   22    20    23    1
   23    23    24    1
   24    23    25    1
   25    23    26    1
   26    26    27    1
   27    26    28    1
   28    26    29    1
@<TRIPOS>SUBSTRUCTURE
       1 MOL1            1 RESIDUE      1      MOL     
@<SCITEGIC>MOL_PROPERTY
VM2 Rank
SciTegic.value.IntegerValue
79

@<SCITEGIC>MOL_PROPERTY
Conf_Id
SciTegic.value.IntegerValue
1016

@<SCITEGIC>MOL_PROPERTY
Probability
SciTegic.value.DoubleValue
0.38

@<SCITEGIC>MOL_PROPERTY
Sum Probability
SciTegic.value.DoubleValue
77.00

@<SCITEGIC>MOL_PROPERTY
Delta G
SciTegic.value.DoubleValue
1.586

@<SCITEGIC>MOL_PROPERTY
G
SciTegic.value.DoubleValue
59.734

@<SCITEGIC>MOL_PROPERTY
E
SciTegic.value.DoubleValue
22.221

@<SCITEGIC>MOL_PROPERTY
-TS
SciTegic.value.DoubleValue
37.514

@<SCITEGIC>MOL_PROPERTY
U+W
SciTegic.value.DoubleValue
-1.924

@<SCITEGIC>MOL_PROPERTY
U
SciTegic.value.DoubleValue
49.857

@<SCITEGIC>MOL_PROPERTY
W
SciTegic.value.DoubleValue
-51.781

@<SCITEGIC>MOL_PROPERTY
W(PB)
SciTegic.value.DoubleValue
-54.284

@<SCITEGIC>MOL_PROPERTY
W(SA)
SciTegic.value.DoubleValue
2.503

@<SCITEGIC>MOL_PROPERTY
Valence
SciTegic.value.DoubleValue
3.719

@<SCITEGIC>MOL_PROPERTY
Coulomb
SciTegic.value.DoubleValue
45.090

@<SCITEGIC>MOL_PROPERTY
VdW
SciTegic.value.DoubleValue
1.048

@<SCITEGIC>MOL_PROPERTY
VdW6
SciTegic.value.DoubleValue
-8.764

@<SCITEGIC>MOL_PROPERTY
VdW12
SciTegic.value.DoubleValue
9.812

@<SCITEGIC>MOL_PROPERTY
Bond
SciTegic.value.DoubleValue
0.240

@<SCITEGIC>MOL_PROPERTY
Angle
SciTegic.value.DoubleValue
0.911

@<SCITEGIC>MOL_PROPERTY
Pdih
SciTegic.value.DoubleValue
2.568

@<SCITEGIC>MOL_PROPERTY
Idih
SciTegic.value.DoubleValue
0.000

@<SCITEGIC>MOL_PROPERTY
Tether
SciTegic.value.DoubleValue
0.000

@<TRIPOS>MOLECULE
guest-3_vm2.mol2 : vm2 ligand conformer 80
          29          28           1
SMALL
USER_CHARGES
 
@<TRIPOS>ATOM
       1    C1      21.082612   19.465881   20.261364 C.3        1 MOL1        -0.2427
       2    H1      20.901432   18.779984   19.423552 H          1 MOL1         0.0958
       3    H2      21.357803   20.442891   19.843356 H          1 MOL1         0.0958
       4    H3      21.941372   19.089310   20.832274 H          1 MOL1         0.0958
       5    C2      19.832536   19.589497   21.157891 C.3        1 MOL1        -0.1412
       6    H4      18.999098   19.995826   20.568084 H          1 MOL1         0.0947
       7    H5      20.038730   20.311849   21.958901 H          1 MOL1         0.0947
       8    C3      19.427450   18.224732   21.762578 C.3        1 MOL1        -0.1437
       9    H6      19.299703   17.497999   20.948506 H          1 MOL1         0.0947
      10    H7      20.244371   17.837310   22.385493 H          1 MOL1         0.0947
      11    C4      18.111872   18.274113   22.581983 C.3        1 MOL1        -0.1437
      12    H8      17.885331   17.262464   22.945787 H          1 MOL1         0.0947
      13    H9      17.284933   18.543429   21.910588 H          1 MOL1         0.0947
      14    C5      18.113637   19.251849   23.785539 C.3        1 MOL1        -0.1437
      15    H10     18.212965   20.285542   23.428852 H          1 MOL1         0.0947
      16    H11     17.132248   19.195858   24.276441 H          1 MOL1         0.0947
      17    C6      19.215962   18.948360   24.828155 C.3        1 MOL1        -0.1437
      18    H12     20.206713   19.075667   24.372126 H          1 MOL1         0.0947
      19    H13     19.138519   17.898608   25.140803 H          1 MOL1         0.0947
      20    C7      19.106620   19.875051   26.061870 C.3        1 MOL1        -0.1477
      21    H14     19.143475   20.922442   25.733885 H          1 MOL1         0.0947
      22    H15     18.134986   19.734480   26.553930 H          1 MOL1         0.0947
      23    C8      20.237783   19.643220   27.081951 C.3        1 MOL1         0.0145
      24    H16     20.156668   20.378454   27.887178 H          1 MOL1         0.0921
      25    H17     21.206922   19.777096   26.593860 H          1 MOL1         0.0921
      26    N1      20.215529   18.265298   27.713670 N.4        1 MOL1        -0.5969
      27    H18     19.335467   18.088320   28.209108 H          1 MOL1         0.3603
      28    H19     20.972879   18.146725   28.395532 H          1 MOL1         0.3603
      29    H20     20.323264   17.525320   27.012932 H          1 MOL1         0.3603
@<TRIPOS>BOND
    1     1     2    1
    2     1     3    1
    3     1     4    1
    4     1     5    1
    5     5     6    1
    6     5     7    1
    7     5     8    1
    8     8     9    1
    9     8    10    1
   10     8    11    1
   11    11    12    1
   12    11    13    1
   13    11    14    1
   14    14    15    1
   15    14    16    1
   16    14    17    1
   17    17    18    1
   18    17    19    1
   19    17    20    1
   20    20    21    1
   21    20    22    1
   22    20    23    1
   23    23    24    1
   24    23    25    1
   25    23    26    1
   26    26    27    1
   27    26    28    1
   28    26    29    1
@<TRIPOS>SUBSTRUCTURE
       1 MOL1            1 RESIDUE      1      MOL     
@<SCITEGIC>MOL_PROPERTY
VM2 Rank
SciTegic.value.IntegerValue
80

@<SCITEGIC>MOL_PROPERTY
Conf_Id
SciTegic.value.IntegerValue
942

@<SCITEGIC>MOL_PROPERTY
Probability
SciTegic.value.DoubleValue
0.37

@<SCITEGIC>MOL_PROPERTY
Sum Probability
SciTegic.value.DoubleValue
77.37

@<SCITEGIC>MOL_PROPERTY
Delta G
SciTegic.value.DoubleValue
1.600

@<SCITEGIC>MOL_PROPERTY
G
SciTegic.value.DoubleValue
59.748

@<SCITEGIC>MOL_PROPERTY
E
SciTegic.value.DoubleValue
22.007

@<SCITEGIC>MOL_PROPERTY
-TS
SciTegic.value.DoubleValue
37.740

@<SCITEGIC>MOL_PROPERTY
U+W
SciTegic.value.DoubleValue
-2.137

@<SCITEGIC>MOL_PROPERTY
U
SciTegic.value.DoubleValue
49.772

@<SCITEGIC>MOL_PROPERTY
W
SciTegic.value.DoubleValue
-51.909

@<SCITEGIC>MOL_PROPERTY
W(PB)
SciTegic.value.DoubleValue
-54.379

@<SCITEGIC>MOL_PROPERTY
W(SA)
SciTegic.value.DoubleValue
2.470

@<SCITEGIC>MOL_PROPERTY
Valence
SciTegic.value.DoubleValue
3.673

@<SCITEGIC>MOL_PROPERTY
Coulomb
SciTegic.value.DoubleValue
45.240

@<SCITEGIC>MOL_PROPERTY
VdW
SciTegic.value.DoubleValue
0.859

@<SCITEGIC>MOL_PROPERTY
VdW6
SciTegic.value.DoubleValue
-9.177

@<SCITEGIC>MOL_PROPERTY
VdW12
SciTegic.value.DoubleValue
10.036

@<SCITEGIC>MOL_PROPERTY
Bond
SciTegic.value.DoubleValue
0.248

@<SCITEGIC>MOL_PROPERTY
Angle
SciTegic.value.DoubleValue
1.115

@<SCITEGIC>MOL_PROPERTY
Pdih
SciTegic.value.DoubleValue
2.310

@<SCITEGIC>MOL_PROPERTY
Idih
SciTegic.value.DoubleValue
0.000

@<SCITEGIC>MOL_PROPERTY
Tether
SciTegic.value.DoubleValue
0.000

@<TRIPOS>MOLECULE
guest-3_vm2.mol2 : vm2 ligand conformer 81
          29          28           1
SMALL
USER_CHARGES
 
@<TRIPOS>ATOM
       1    C1      20.802642   18.196892   20.529540 C.3        1 MOL1        -0.2427
       2    H1      20.245965   17.456424   19.940675 H          1 MOL1         0.0958
       3    H2      21.777899   18.345243   20.048190 H          1 MOL1         0.0958
       4    H3      20.986575   17.776597   21.526164 H          1 MOL1         0.0958
       5    C2      20.031229   19.533283   20.613014 C.3        1 MOL1        -0.1412
       6    H4      19.975665   19.972903   19.607393 H          1 MOL1         0.0947
       7    H5      20.596822   20.250315   21.222906 H          1 MOL1         0.0947
       8    C3      18.590654   19.380019   21.164108 C.3        1 MOL1        -0.1437
       9    H6      18.104616   20.365344   21.162322 H          1 MOL1         0.0947
      10    H7      18.009840   18.757249   20.469915 H          1 MOL1         0.0947
      11    C4      18.486002   18.769389   22.585509 C.3        1 MOL1        -0.1437
      12    H8      18.866767   17.739512   22.579406 H          1 MOL1         0.0947
      13    H9      17.422650   18.696529   22.852140 H          1 MOL1         0.0947
      14    C5      19.221582   19.593779   23.668831 C.3        1 MOL1        -0.1437
      15    H10     20.298400   19.613897   23.455375 H          1 MOL1         0.0947
      16    H11     18.869688   20.634188   23.639565 H          1 MOL1         0.0947
      17    C6      18.997923   19.011466   25.082606 C.3        1 MOL1        -0.1437
      18    H12     19.342604   17.968965   25.102343 H          1 MOL1         0.0947
      19    H13     17.922452   18.996663   25.307847 H          1 MOL1         0.0947
      20    C7      19.739120   19.831478   26.164822 C.3        1 MOL1        -0.1477
      21    H14     20.819339   19.826284   25.967113 H          1 MOL1         0.0947
      22    H15     19.415766   20.879614   26.111759 H          1 MOL1         0.0947
      23    C8      19.474645   19.311213   27.590758 C.3        1 MOL1         0.0145
      24    H16     18.399340   19.309541   27.788518 H          1 MOL1         0.0921
      25    H17     19.953711   19.976328   28.314400 H          1 MOL1         0.0921
      26    N1      20.000203   17.910482   27.835811 N.4        1 MOL1        -0.5969
      27    H18     19.562753   17.226692   27.210264 H          1 MOL1         0.3603
      28    H19     19.819100   17.598509   28.796269 H          1 MOL1         0.3603
      29    H20     21.013146   17.852920   27.687751 H          1 MOL1         0.3603
@<TRIPOS>BOND
    1     1     2    1
    2     1     3    1
    3     1     4    1
    4     1     5    1
    5     5     6    1
    6     5     7    1
    7     5     8    1
    8     8     9    1
    9     8    10    1
   10     8    11    1
   11    11    12    1
   12    11    13    1
   13    11    14    1
   14    14    15    1
   15    14    16    1
   16    14    17    1
   17    17    18    1
   18    17    19    1
   19    17    20    1
   20    20    21    1
   21    20    22    1
   22    20    23    1
   23    23    24    1
   24    23    25    1
   25    23    26    1
   26    26    27    1
   27    26    28    1
   28    26    29    1
@<TRIPOS>SUBSTRUCTURE
       1 MOL1            1 RESIDUE      1      MOL     
@<SCITEGIC>MOL_PROPERTY
VM2 Rank
SciTegic.value.IntegerValue
81

@<SCITEGIC>MOL_PROPERTY
Conf_Id
SciTegic.value.IntegerValue
1972

@<SCITEGIC>MOL_PROPERTY
Probability
SciTegic.value.DoubleValue
0.37

@<SCITEGIC>MOL_PROPERTY
Sum Probability
SciTegic.value.DoubleValue
77.73

@<SCITEGIC>MOL_PROPERTY
Delta G
SciTegic.value.DoubleValue
1.602

@<SCITEGIC>MOL_PROPERTY
G
SciTegic.value.DoubleValue
59.750

@<SCITEGIC>MOL_PROPERTY
E
SciTegic.value.DoubleValue
22.030

@<SCITEGIC>MOL_PROPERTY
-TS
SciTegic.value.DoubleValue
37.720

@<SCITEGIC>MOL_PROPERTY
U+W
SciTegic.value.DoubleValue
-2.115

@<SCITEGIC>MOL_PROPERTY
U
SciTegic.value.DoubleValue
49.569

@<SCITEGIC>MOL_PROPERTY
W
SciTegic.value.DoubleValue
-51.684

@<SCITEGIC>MOL_PROPERTY
W(PB)
SciTegic.value.DoubleValue
-54.164

@<SCITEGIC>MOL_PROPERTY
W(SA)
SciTegic.value.DoubleValue
2.480

@<SCITEGIC>MOL_PROPERTY
Valence
SciTegic.value.DoubleValue
3.641

@<SCITEGIC>MOL_PROPERTY
Coulomb
SciTegic.value.DoubleValue
45.000

@<SCITEGIC>MOL_PROPERTY
VdW
SciTegic.value.DoubleValue
0.928

@<SCITEGIC>MOL_PROPERTY
VdW6
SciTegic.value.DoubleValue
-9.033

@<SCITEGIC>MOL_PROPERTY
VdW12
SciTegic.value.DoubleValue
9.961

@<SCITEGIC>MOL_PROPERTY
Bond
SciTegic.value.DoubleValue
0.244

@<SCITEGIC>MOL_PROPERTY
Angle
SciTegic.value.DoubleValue
1.081

@<SCITEGIC>MOL_PROPERTY
Pdih
SciTegic.value.DoubleValue
2.316

@<SCITEGIC>MOL_PROPERTY
Idih
SciTegic.value.DoubleValue
0.000

@<SCITEGIC>MOL_PROPERTY
Tether
SciTegic.value.DoubleValue
0.000

@<TRIPOS>MOLECULE
guest-3_vm2.mol2 : vm2 ligand conformer 82
          29          28           1
SMALL
USER_CHARGES
 
@<TRIPOS>ATOM
       1    C1      19.782097   18.953720   19.488482 C.3        1 MOL1        -0.2427
       2    H1      20.828183   18.621470   19.506715 H          1 MOL1         0.0958
       3    H2      19.370422   18.711822   18.500079 H          1 MOL1         0.0958
       4    H3      19.765569   20.045480   19.593249 H          1 MOL1         0.0958
       5    C2      18.959942   18.262503   20.599885 C.3        1 MOL1        -0.1412
       6    H4      18.900715   17.187915   20.377343 H          1 MOL1         0.0947
       7    H5      17.926880   18.636984   20.583589 H          1 MOL1         0.0947
       8    C3      19.559998   18.442312   22.015434 C.3        1 MOL1        -0.1437
       9    H6      18.990725   17.808148   22.706745 H          1 MOL1         0.0947
      10    H7      20.592004   18.065711   22.026604 H          1 MOL1         0.0947
      11    C4      19.532629   19.909345   22.514944 C.3        1 MOL1        -0.1437
      12    H8      18.500146   20.284695   22.508058 H          1 MOL1         0.0947
      13    H9      20.096084   20.542239   21.817443 H          1 MOL1         0.0947
      14    C5      20.142875   20.095112   23.926172 C.3        1 MOL1        -0.1437
      15    H10     21.173960   19.715508   23.933996 H          1 MOL1         0.0947
      16    H11     20.209562   21.171876   24.134661 H          1 MOL1         0.0947
      17    C6      19.326234   19.415528   25.051716 C.3        1 MOL1        -0.1437
      18    H12     19.316709   18.329429   24.898553 H          1 MOL1         0.0947
      19    H13     18.282534   19.755942   25.004593 H          1 MOL1         0.0947
      20    C7      19.907642   19.731987   26.450013 C.3        1 MOL1        -0.1477
      21    H14     20.942755   19.371435   26.517424 H          1 MOL1         0.0947
      22    H15     19.945052   20.820406   26.591001 H          1 MOL1         0.0947
      23    C8      19.074527   19.121729   27.593548 C.3        1 MOL1         0.0145
      24    H16     18.041246   19.472277   27.523979 H          1 MOL1         0.0921
      25    H17     19.482027   19.449308   28.553849 H          1 MOL1         0.0921
      26    N1      19.058056   17.605764   27.594806 N.4        1 MOL1        -0.5969
      27    H18     18.651325   17.230224   26.732434 H          1 MOL1         0.3603
      28    H19     18.506718   17.231842   28.375083 H          1 MOL1         0.3603
      29    H20     20.002213   17.215228   27.680607 H          1 MOL1         0.3603
@<TRIPOS>BOND
    1     1     2    1
    2     1     3    1
    3     1     4    1
    4     1     5    1
    5     5     6    1
    6     5     7    1
    7     5     8    1
    8     8     9    1
    9     8    10    1
   10     8    11    1
   11    11    12    1
   12    11    13    1
   13    11    14    1
   14    14    15    1
   15    14    16    1
   16    14    17    1
   17    17    18    1
   18    17    19    1
   19    17    20    1
   20    20    21    1
   21    20    22    1
   22    20    23    1
   23    23    24    1
   24    23    25    1
   25    23    26    1
   26    26    27    1
   27    26    28    1
   28    26    29    1
@<TRIPOS>SUBSTRUCTURE
       1 MOL1            1 RESIDUE      1      MOL     
@<SCITEGIC>MOL_PROPERTY
VM2 Rank
SciTegic.value.IntegerValue
82

@<SCITEGIC>MOL_PROPERTY
Conf_Id
SciTegic.value.IntegerValue
235

@<SCITEGIC>MOL_PROPERTY
Probability
SciTegic.value.DoubleValue
0.36

@<SCITEGIC>MOL_PROPERTY
Sum Probability
SciTegic.value.DoubleValue
78.10

@<SCITEGIC>MOL_PROPERTY
Delta G
SciTegic.value.DoubleValue
1.608

@<SCITEGIC>MOL_PROPERTY
G
SciTegic.value.DoubleValue
59.756

@<SCITEGIC>MOL_PROPERTY
E
SciTegic.value.DoubleValue
22.321

@<SCITEGIC>MOL_PROPERTY
-TS
SciTegic.value.DoubleValue
37.435

@<SCITEGIC>MOL_PROPERTY
U+W
SciTegic.value.DoubleValue
-1.824

@<SCITEGIC>MOL_PROPERTY
U
SciTegic.value.DoubleValue
50.173

@<SCITEGIC>MOL_PROPERTY
W
SciTegic.value.DoubleValue
-51.996

@<SCITEGIC>MOL_PROPERTY
W(PB)
SciTegic.value.DoubleValue
-54.483

@<SCITEGIC>MOL_PROPERTY
W(SA)
SciTegic.value.DoubleValue
2.487

@<SCITEGIC>MOL_PROPERTY
Valence
SciTegic.value.DoubleValue
3.804

@<SCITEGIC>MOL_PROPERTY
Coulomb
SciTegic.value.DoubleValue
45.246

@<SCITEGIC>MOL_PROPERTY
VdW
SciTegic.value.DoubleValue
1.123

@<SCITEGIC>MOL_PROPERTY
VdW6
SciTegic.value.DoubleValue
-8.691

@<SCITEGIC>MOL_PROPERTY
VdW12
SciTegic.value.DoubleValue
9.815

@<SCITEGIC>MOL_PROPERTY
Bond
SciTegic.value.DoubleValue
0.250

@<SCITEGIC>MOL_PROPERTY
Angle
SciTegic.value.DoubleValue
0.987

@<SCITEGIC>MOL_PROPERTY
Pdih
SciTegic.value.DoubleValue
2.567

@<SCITEGIC>MOL_PROPERTY
Idih
SciTegic.value.DoubleValue
0.000

@<SCITEGIC>MOL_PROPERTY
Tether
SciTegic.value.DoubleValue
0.000

@<TRIPOS>MOLECULE
guest-3_vm2.mol2 : vm2 ligand conformer 83
          29          28           1
SMALL
USER_CHARGES
 
@<TRIPOS>ATOM
       1    C1      19.709841   19.212847   19.451979 C.3        1 MOL1        -0.2427
       2    H1      20.655637   19.712367   19.695169 H          1 MOL1         0.0958
       3    H2      19.910092   18.141851   19.318231 H          1 MOL1         0.0958
       4    H3      19.364722   19.612395   18.489593 H          1 MOL1         0.0958
       5    C2      18.644462   19.446550   20.547092 C.3        1 MOL1        -0.1412
       6    H4      17.685370   19.039120   20.197926 H          1 MOL1         0.0947
       7    H5      18.487397   20.525225   20.686751 H          1 MOL1         0.0947
       8    C3      18.997202   18.788705   21.903179 C.3        1 MOL1        -0.1437
       9    H6      18.127921   18.891449   22.565040 H          1 MOL1         0.0947
      10    H7      19.151687   17.710663   21.758446 H          1 MOL1         0.0947
      11    C4      20.243685   19.409374   22.583903 C.3        1 MOL1        -0.1437
      12    H8      20.088057   20.486821   22.731653 H          1 MOL1         0.0947
      13    H9      21.110012   19.310894   21.917320 H          1 MOL1         0.0947
      14    C5      20.605007   18.746964   23.936327 C.3        1 MOL1        -0.1437
      15    H10     20.759762   17.669309   23.788029 H          1 MOL1         0.0947
      16    H11     21.568609   19.152966   24.273984 H          1 MOL1         0.0947
      17    C6      19.548487   18.977170   25.043649 C.3        1 MOL1        -0.1437
      18    H12     18.599533   18.502343   24.762411 H          1 MOL1         0.0947
      19    H13     19.353305   20.053538   25.139165 H          1 MOL1         0.0947
      20    C7      20.012921   18.404599   26.403662 C.3        1 MOL1        -0.1477
      21    H14     20.245407   17.337539   26.288237 H          1 MOL1         0.0947
      22    H15     20.942397   18.895407   26.721710 H          1 MOL1         0.0947
      23    C8      18.948543   18.555386   27.507450 C.3        1 MOL1         0.0145
      24    H16     19.297773   18.061454   28.418279 H          1 MOL1         0.0921
      25    H17     18.019839   18.072349   27.191903 H          1 MOL1         0.0921
      26    N1      18.633851   19.996406   27.857759 N.4        1 MOL1        -0.5969
      27    H18     17.931528   20.062512   28.602725 H          1 MOL1         0.3603
      28    H19     18.266032   20.510904   27.051387 H          1 MOL1         0.3603
      29    H20     19.465819   20.498754   28.184532 H          1 MOL1         0.3603
@<TRIPOS>BOND
    1     1     2    1
    2     1     3    1
    3     1     4    1
    4     1     5    1
    5     5     6    1
    6     5     7    1
    7     5     8    1
    8     8     9    1
    9     8    10    1
   10     8    11    1
   11    11    12    1
   12    11    13    1
   13    11    14    1
   14    14    15    1
   15    14    16    1
   16    14    17    1
   17    17    18    1
   18    17    19    1
   19    17    20    1
   20    20    21    1
   21    20    22    1
   22    20    23    1
   23    23    24    1
   24    23    25    1
   25    23    26    1
   26    26    27    1
   27    26    28    1
   28    26    29    1
@<TRIPOS>SUBSTRUCTURE
       1 MOL1            1 RESIDUE      1      MOL     
@<SCITEGIC>MOL_PROPERTY
VM2 Rank
SciTegic.value.IntegerValue
83

@<SCITEGIC>MOL_PROPERTY
Conf_Id
SciTegic.value.IntegerValue
541

@<SCITEGIC>MOL_PROPERTY
Probability
SciTegic.value.DoubleValue
0.36

@<SCITEGIC>MOL_PROPERTY
Sum Probability
SciTegic.value.DoubleValue
78.46

@<SCITEGIC>MOL_PROPERTY
Delta G
SciTegic.value.DoubleValue
1.609

@<SCITEGIC>MOL_PROPERTY
G
SciTegic.value.DoubleValue
59.757

@<SCITEGIC>MOL_PROPERTY
E
SciTegic.value.DoubleValue
22.313

@<SCITEGIC>MOL_PROPERTY
-TS
SciTegic.value.DoubleValue
37.444

@<SCITEGIC>MOL_PROPERTY
U+W
SciTegic.value.DoubleValue
-1.831

@<SCITEGIC>MOL_PROPERTY
U
SciTegic.value.DoubleValue
49.938

@<SCITEGIC>MOL_PROPERTY
W
SciTegic.value.DoubleValue
-51.769

@<SCITEGIC>MOL_PROPERTY
W(PB)
SciTegic.value.DoubleValue
-54.249

@<SCITEGIC>MOL_PROPERTY
W(SA)
SciTegic.value.DoubleValue
2.481

@<SCITEGIC>MOL_PROPERTY
Valence
SciTegic.value.DoubleValue
3.804

@<SCITEGIC>MOL_PROPERTY
Coulomb
SciTegic.value.DoubleValue
45.009

@<SCITEGIC>MOL_PROPERTY
VdW
SciTegic.value.DoubleValue
1.125

@<SCITEGIC>MOL_PROPERTY
VdW6
SciTegic.value.DoubleValue
-8.684

@<SCITEGIC>MOL_PROPERTY
VdW12
SciTegic.value.DoubleValue
9.808

@<SCITEGIC>MOL_PROPERTY
Bond
SciTegic.value.DoubleValue
0.248

@<SCITEGIC>MOL_PROPERTY
Angle
SciTegic.value.DoubleValue
0.989

@<SCITEGIC>MOL_PROPERTY
Pdih
SciTegic.value.DoubleValue
2.567

@<SCITEGIC>MOL_PROPERTY
Idih
SciTegic.value.DoubleValue
0.000

@<SCITEGIC>MOL_PROPERTY
Tether
SciTegic.value.DoubleValue
0.000

@<TRIPOS>MOLECULE
guest-3_vm2.mol2 : vm2 ligand conformer 84
          29          28           1
SMALL
USER_CHARGES
 
@<TRIPOS>ATOM
       1    C1      21.062466   19.436697   20.253946 C.3        1 MOL1        -0.2427
       2    H1      21.241715   18.385886   19.991852 H          1 MOL1         0.0958
       3    H2      21.496600   20.059362   19.461014 H          1 MOL1         0.0958
       4    H3      21.605468   19.657757   21.181180 H          1 MOL1         0.0958
       5    C2      19.550713   19.722867   20.399462 C.3        1 MOL1        -0.1412
       6    H4      19.071852   19.604823   19.417368 H          1 MOL1         0.0947
       7    H5      19.399540   20.771547   20.691226 H          1 MOL1         0.0947
       8    C3      18.843003   18.790579   21.412107 C.3        1 MOL1        -0.1437
       9    H6      17.762916   18.988435   21.372516 H          1 MOL1         0.0947
      10    H7      18.977381   17.744748   21.103262 H          1 MOL1         0.0947
      11    C4      19.336581   18.973112   22.867338 C.3        1 MOL1        -0.1437
      12    H8      19.253318   20.032155   23.143837 H          1 MOL1         0.0947
      13    H9      20.398774   18.704840   22.937543 H          1 MOL1         0.0947
      14    C5      18.527211   18.102801   23.858526 C.3        1 MOL1        -0.1437
      15    H10     17.470692   18.403920   23.839725 H          1 MOL1         0.0947
      16    H11     18.555938   17.057193   23.522001 H          1 MOL1         0.0947
      17    C6      19.058262   18.165216   25.311575 C.3        1 MOL1        -0.1437
      18    H12     20.106614   17.838489   25.328465 H          1 MOL1         0.0947
      19    H13     18.497857   17.440654   25.918619 H          1 MOL1         0.0947
      20    C7      18.928349   19.567944   25.955792 C.3        1 MOL1        -0.1477
      21    H14     19.564853   20.291849   25.431481 H          1 MOL1         0.0947
      22    H15     17.894394   19.922478   25.850891 H          1 MOL1         0.0947
      23    C8      19.294449   19.567012   27.452303 C.3        1 MOL1         0.0145
      24    H16     18.663866   18.850201   27.985148 H          1 MOL1         0.0921
      25    H17     19.111817   20.560139   27.871675 H          1 MOL1         0.0921
      26    N1      20.742965   19.211771   27.723950 N.4        1 MOL1        -0.5969
      27    H18     21.387146   19.865997   27.267636 H          1 MOL1         0.3603
      28    H19     20.972737   18.272727   27.383848 H          1 MOL1         0.3603
      29    H20     20.957671   19.229418   28.727028 H          1 MOL1         0.3603
@<TRIPOS>BOND
    1     1     2    1
    2     1     3    1
    3     1     4    1
    4     1     5    1
    5     5     6    1
    6     5     7    1
    7     5     8    1
    8     8     9    1
    9     8    10    1
   10     8    11    1
   11    11    12    1
   12    11    13    1
   13    11    14    1
   14    14    15    1
   15    14    16    1
   16    14    17    1
   17    17    18    1
   18    17    19    1
   19    17    20    1
   20    20    21    1
   21    20    22    1
   22    20    23    1
   23    23    24    1
   24    23    25    1
   25    23    26    1
   26    26    27    1
   27    26    28    1
   28    26    29    1
@<TRIPOS>SUBSTRUCTURE
       1 MOL1            1 RESIDUE      1      MOL     
@<SCITEGIC>MOL_PROPERTY
VM2 Rank
SciTegic.value.IntegerValue
84

@<SCITEGIC>MOL_PROPERTY
Conf_Id
SciTegic.value.IntegerValue
2321

@<SCITEGIC>MOL_PROPERTY
Probability
SciTegic.value.DoubleValue
0.36

@<SCITEGIC>MOL_PROPERTY
Sum Probability
SciTegic.value.DoubleValue
78.82

@<SCITEGIC>MOL_PROPERTY
Delta G
SciTegic.value.DoubleValue
1.609

@<SCITEGIC>MOL_PROPERTY
G
SciTegic.value.DoubleValue
59.757

@<SCITEGIC>MOL_PROPERTY
E
SciTegic.value.DoubleValue
22.244

@<SCITEGIC>MOL_PROPERTY
-TS
SciTegic.value.DoubleValue
37.513

@<SCITEGIC>MOL_PROPERTY
U+W
SciTegic.value.DoubleValue
-1.901

@<SCITEGIC>MOL_PROPERTY
U
SciTegic.value.DoubleValue
49.857

@<SCITEGIC>MOL_PROPERTY
W
SciTegic.value.DoubleValue
-51.757

@<SCITEGIC>MOL_PROPERTY
W(PB)
SciTegic.value.DoubleValue
-54.269

@<SCITEGIC>MOL_PROPERTY
W(SA)
SciTegic.value.DoubleValue
2.511

@<SCITEGIC>MOL_PROPERTY
Valence
SciTegic.value.DoubleValue
3.719

@<SCITEGIC>MOL_PROPERTY
Coulomb
SciTegic.value.DoubleValue
45.090

@<SCITEGIC>MOL_PROPERTY
VdW
SciTegic.value.DoubleValue
1.048

@<SCITEGIC>MOL_PROPERTY
VdW6
SciTegic.value.DoubleValue
-8.764

@<SCITEGIC>MOL_PROPERTY
VdW12
SciTegic.value.DoubleValue
9.812

@<SCITEGIC>MOL_PROPERTY
Bond
SciTegic.value.DoubleValue
0.239

@<SCITEGIC>MOL_PROPERTY
Angle
SciTegic.value.DoubleValue
0.912

@<SCITEGIC>MOL_PROPERTY
Pdih
SciTegic.value.DoubleValue
2.568

@<SCITEGIC>MOL_PROPERTY
Idih
SciTegic.value.DoubleValue
0.000

@<SCITEGIC>MOL_PROPERTY
Tether
SciTegic.value.DoubleValue
0.000

@<TRIPOS>MOLECULE
guest-3_vm2.mol2 : vm2 ligand conformer 85
          29          28           1
SMALL
USER_CHARGES
 
@<TRIPOS>ATOM
       1    C1      19.271224   18.986946   19.266240 C.3        1 MOL1        -0.2427
       2    H1      19.719960   18.045007   18.924754 H          1 MOL1         0.0958
       3    H2      18.319850   19.118954   18.734736 H          1 MOL1         0.0958
       4    H3      19.937627   19.809018   18.974087 H          1 MOL1         0.0958
       5    C2      19.045072   18.972863   20.792870 C.3        1 MOL1        -0.1412
       6    H4      18.352372   18.159730   21.051019 H          1 MOL1         0.0947
       7    H5      18.559362   19.911840   21.089843 H          1 MOL1         0.0947
       8    C3      20.373663   18.791874   21.564158 C.3        1 MOL1        -0.1437
       9    H6      20.879217   17.887771   21.197696 H          1 MOL1         0.0947
      10    H7      21.046973   19.631834   21.344343 H          1 MOL1         0.0947
      11    C4      20.186620   18.663183   23.095740 C.3        1 MOL1        -0.1437
      12    H8      21.160886   18.430144   23.546932 H          1 MOL1         0.0947
      13    H9      19.533390   17.806427   23.307254 H          1 MOL1         0.0947
      14    C5      19.617016   19.944016   23.756323 C.3        1 MOL1        -0.1437
      15    H10     20.210311   20.809585   23.430832 H          1 MOL1         0.0947
      16    H11     18.590657   20.123232   23.410042 H          1 MOL1         0.0947
      17    C6      19.628976   19.893893   25.303659 C.3        1 MOL1        -0.1437
      18    H12     19.306205   20.871899   25.686892 H          1 MOL1         0.0947
      19    H13     20.659724   19.748804   25.653743 H          1 MOL1         0.0947
      20    C7      18.708667   18.794573   25.890132 C.3        1 MOL1        -0.1477
      21    H14     17.701631   18.897637   25.464661 H          1 MOL1         0.0947
      22    H15     19.070915   17.798658   25.605310 H          1 MOL1         0.0947
      23    C8      18.600234   18.871432   27.425013 C.3        1 MOL1         0.0145
      24    H16     17.881716   18.125875   27.776302 H          1 MOL1         0.0921
      25    H17     18.237890   19.860057   27.719468 H          1 MOL1         0.0921
      26    N1      19.912528   18.619220   28.140865 N.4        1 MOL1        -0.5969
      27    H18     20.293081   17.692574   27.922417 H          1 MOL1         0.3603
      28    H19     19.805693   18.667307   29.160102 H          1 MOL1         0.3603
      29    H20     20.624563   19.308734   27.880389 H          1 MOL1         0.3603
@<TRIPOS>BOND
    1     1     2    1
    2     1     3    1
    3     1     4    1
    4     1     5    1
    5     5     6    1
    6     5     7    1
    7     5     8    1
    8     8     9    1
    9     8    10    1
   10     8    11    1
   11    11    12    1
   12    11    13    1
   13    11    14    1
   14    14    15    1
   15    14    16    1
   16    14    17    1
   17    17    18    1
   18    17    19    1
   19    17    20    1
   20    20    21    1
   21    20    22    1
   22    20    23    1
   23    23    24    1
   24    23    25    1
   25    23    26    1
   26    26    27    1
   27    26    28    1
   28    26    29    1
@<TRIPOS>SUBSTRUCTURE
       1 MOL1            1 RESIDUE      1      MOL     
@<SCITEGIC>MOL_PROPERTY
VM2 Rank
SciTegic.value.IntegerValue
85

@<SCITEGIC>MOL_PROPERTY
Conf_Id
SciTegic.value.IntegerValue
1970

@<SCITEGIC>MOL_PROPERTY
Probability
SciTegic.value.DoubleValue
0.35

@<SCITEGIC>MOL_PROPERTY
Sum Probability
SciTegic.value.DoubleValue
79.17

@<SCITEGIC>MOL_PROPERTY
Delta G
SciTegic.value.DoubleValue
1.620

@<SCITEGIC>MOL_PROPERTY
G
SciTegic.value.DoubleValue
59.768

@<SCITEGIC>MOL_PROPERTY
E
SciTegic.value.DoubleValue
22.241

@<SCITEGIC>MOL_PROPERTY
-TS
SciTegic.value.DoubleValue
37.527

@<SCITEGIC>MOL_PROPERTY
U+W
SciTegic.value.DoubleValue
-1.904

@<SCITEGIC>MOL_PROPERTY
U
SciTegic.value.DoubleValue
49.798

@<SCITEGIC>MOL_PROPERTY
W
SciTegic.value.DoubleValue
-51.702

@<SCITEGIC>MOL_PROPERTY
W(PB)
SciTegic.value.DoubleValue
-54.200

@<SCITEGIC>MOL_PROPERTY
W(SA)
SciTegic.value.DoubleValue
2.498

@<SCITEGIC>MOL_PROPERTY
Valence
SciTegic.value.DoubleValue
3.728

@<SCITEGIC>MOL_PROPERTY
Coulomb
SciTegic.value.DoubleValue
45.048

@<SCITEGIC>MOL_PROPERTY
VdW
SciTegic.value.DoubleValue
1.022

@<SCITEGIC>MOL_PROPERTY
VdW6
SciTegic.value.DoubleValue
-8.813

@<SCITEGIC>MOL_PROPERTY
VdW12
SciTegic.value.DoubleValue
9.835

@<SCITEGIC>MOL_PROPERTY
Bond
SciTegic.value.DoubleValue
0.243

@<SCITEGIC>MOL_PROPERTY
Angle
SciTegic.value.DoubleValue
0.890

@<SCITEGIC>MOL_PROPERTY
Pdih
SciTegic.value.DoubleValue
2.595

@<SCITEGIC>MOL_PROPERTY
Idih
SciTegic.value.DoubleValue
0.000

@<SCITEGIC>MOL_PROPERTY
Tether
SciTegic.value.DoubleValue
0.000

@<TRIPOS>MOLECULE
guest-3_vm2.mol2 : vm2 ligand conformer 86
          29          28           1
SMALL
USER_CHARGES
 
@<TRIPOS>ATOM
       1    C1      20.812714   19.883301   20.001024 C.3        1 MOL1        -0.2427
       2    H1      21.282786   18.932480   19.717808 H          1 MOL1         0.0958
       3    H2      20.650606   20.465389   19.084549 H          1 MOL1         0.0958
       4    H3      21.518063   20.438739   20.632847 H          1 MOL1         0.0958
       5    C2      19.477873   19.644037   20.737759 C.3        1 MOL1        -0.1412
       6    H4      18.782030   19.117905   20.069299 H          1 MOL1         0.0947
       7    H5      19.015831   20.611649   20.978815 H          1 MOL1         0.0947
       8    C3      19.678058   18.825359   22.032159 C.3        1 MOL1        -0.1437
       9    H6      20.137214   17.857863   21.786710 H          1 MOL1         0.0947
      10    H7      20.381767   19.356743   22.686201 H          1 MOL1         0.0947
      11    C4      18.341417   18.590013   22.775417 C.3        1 MOL1        -0.1437
      12    H8      17.625373   18.125306   22.083654 H          1 MOL1         0.0947
      13    H9      17.900035   19.553786   23.061337 H          1 MOL1         0.0947
      14    C5      18.475803   17.676595   24.021359 C.3        1 MOL1        -0.1437
      15    H10     17.481358   17.543020   24.469027 H          1 MOL1         0.0947
      16    H11     18.794279   16.676875   23.695277 H          1 MOL1         0.0947
      17    C6      19.455204   18.177454   25.114475 C.3        1 MOL1        -0.1437
      18    H12     20.479053   18.202713   24.718462 H          1 MOL1         0.0947
      19    H13     19.464280   17.437205   25.925261 H          1 MOL1         0.0947
      20    C7      19.082691   19.566460   25.690510 C.3        1 MOL1        -0.1477
      21    H14     19.114292   20.319068   24.892788 H          1 MOL1         0.0947
      22    H15     18.052632   19.552640   26.070624 H          1 MOL1         0.0947
      23    C8      20.038762   20.020998   26.810037 C.3        1 MOL1         0.0145
      24    H16     19.787516   21.042491   27.108288 H          1 MOL1         0.0921
      25    H17     21.067543   20.016960   26.439945 H          1 MOL1         0.0921
      26    N1      19.981476   19.153784   28.052261 N.4        1 MOL1        -0.5969
      27    H18     20.618767   19.491304   28.781982 H          1 MOL1         0.3603
      28    H19     20.243024   18.183785   27.850198 H          1 MOL1         0.3603
      29    H20     19.041034   19.135677   28.460315 H          1 MOL1         0.3603
@<TRIPOS>BOND
    1     1     2    1
    2     1     3    1
    3     1     4    1
    4     1     5    1
    5     5     6    1
    6     5     7    1
    7     5     8    1
    8     8     9    1
    9     8    10    1
   10     8    11    1
   11    11    12    1
   12    11    13    1
   13    11    14    1
   14    14    15    1
   15    14    16    1
   16    14    17    1
   17    17    18    1
   18    17    19    1
   19    17    20    1
   20    20    21    1
   21    20    22    1
   22    20    23    1
   23    23    24    1
   24    23    25    1
   25    23    26    1
   26    26    27    1
   27    26    28    1
   28    26    29    1
@<TRIPOS>SUBSTRUCTURE
       1 MOL1            1 RESIDUE      1      MOL     
@<SCITEGIC>MOL_PROPERTY
VM2 Rank
SciTegic.value.IntegerValue
86

@<SCITEGIC>MOL_PROPERTY
Conf_Id
SciTegic.value.IntegerValue
2611

@<SCITEGIC>MOL_PROPERTY
Probability
SciTegic.value.DoubleValue
0.35

@<SCITEGIC>MOL_PROPERTY
Sum Probability
SciTegic.value.DoubleValue
79.53

@<SCITEGIC>MOL_PROPERTY
Delta G
SciTegic.value.DoubleValue
1.621

@<SCITEGIC>MOL_PROPERTY
G
SciTegic.value.DoubleValue
59.769

@<SCITEGIC>MOL_PROPERTY
E
SciTegic.value.DoubleValue
22.037

@<SCITEGIC>MOL_PROPERTY
-TS
SciTegic.value.DoubleValue
37.732

@<SCITEGIC>MOL_PROPERTY
U+W
SciTegic.value.DoubleValue
-2.108

@<SCITEGIC>MOL_PROPERTY
U
SciTegic.value.DoubleValue
49.725

@<SCITEGIC>MOL_PROPERTY
W
SciTegic.value.DoubleValue
-51.832

@<SCITEGIC>MOL_PROPERTY
W(PB)
SciTegic.value.DoubleValue
-54.326

@<SCITEGIC>MOL_PROPERTY
W(SA)
SciTegic.value.DoubleValue
2.493

@<SCITEGIC>MOL_PROPERTY
Valence
SciTegic.value.DoubleValue
3.695

@<SCITEGIC>MOL_PROPERTY
Coulomb
SciTegic.value.DoubleValue
45.138

@<SCITEGIC>MOL_PROPERTY
VdW
SciTegic.value.DoubleValue
0.892

@<SCITEGIC>MOL_PROPERTY
VdW6
SciTegic.value.DoubleValue
-9.155

@<SCITEGIC>MOL_PROPERTY
VdW12
SciTegic.value.DoubleValue
10.047

@<SCITEGIC>MOL_PROPERTY
Bond
SciTegic.value.DoubleValue
0.255

@<SCITEGIC>MOL_PROPERTY
Angle
SciTegic.value.DoubleValue
1.154

@<SCITEGIC>MOL_PROPERTY
Pdih
SciTegic.value.DoubleValue
2.287

@<SCITEGIC>MOL_PROPERTY
Idih
SciTegic.value.DoubleValue
0.000

@<SCITEGIC>MOL_PROPERTY
Tether
SciTegic.value.DoubleValue
0.000

@<TRIPOS>MOLECULE
guest-3_vm2.mol2 : vm2 ligand conformer 87
          29          28           1
SMALL
USER_CHARGES
 
@<TRIPOS>ATOM
       1    C1      20.371588   20.329738   20.215647 C.3        1 MOL1        -0.2427
       2    H1      20.245792   21.004522   21.071370 H          1 MOL1         0.0958
       3    H2      21.384651   19.908777   20.254664 H          1 MOL1         0.0958
       4    H3      20.294790   20.935969   19.303771 H          1 MOL1         0.0958
       5    C2      19.304901   19.211344   20.212595 C.3        1 MOL1        -0.1412
       6    H4      19.393785   18.640309   19.277836 H          1 MOL1         0.0947
       7    H5      18.300887   19.658139   20.205651 H          1 MOL1         0.0947
       8    C3      19.434430   18.233590   21.405425 C.3        1 MOL1        -0.1437
       9    H6      18.716621   17.414024   21.262933 H          1 MOL1         0.0947
      10    H7      20.432869   17.775031   21.397266 H          1 MOL1         0.0947
      11    C4      19.177084   18.898614   22.778914 C.3        1 MOL1        -0.1437
      12    H8      18.197949   19.396689   22.766856 H          1 MOL1         0.0947
      13    H9      19.930894   19.675479   22.954417 H          1 MOL1         0.0947
      14    C5      19.217853   17.865663   23.930841 C.3        1 MOL1        -0.1437
      15    H10     18.512333   17.053544   23.707182 H          1 MOL1         0.0947
      16    H11     20.213698   17.403931   23.979713 H          1 MOL1         0.0947
      17    C6      18.853673   18.461363   25.313104 C.3        1 MOL1        -0.1437
      18    H12     18.779906   17.634641   26.031876 H          1 MOL1         0.0947
      19    H13     17.855697   18.918699   25.265105 H          1 MOL1         0.0947
      20    C7      19.879824   19.501161   25.829356 C.3        1 MOL1        -0.1477
      21    H14     20.884851   19.059379   25.852276 H          1 MOL1         0.0947
      22    H15     19.925872   20.352797   25.139478 H          1 MOL1         0.0947
      23    C8      19.524288   20.042373   27.227591 C.3        1 MOL1         0.0145
      24    H16     18.516078   20.465107   27.213444 H          1 MOL1         0.0921
      25    H17     20.224103   20.838282   27.496527 H          1 MOL1         0.0921
      26    N1      19.580360   18.994155   28.321526 N.4        1 MOL1        -0.5969
      27    H18     19.352289   19.390009   29.240152 H          1 MOL1         0.3603
      28    H19     20.512710   18.574604   28.398931 H          1 MOL1         0.3603
      29    H20     18.917802   18.231315   28.150460 H          1 MOL1         0.3603
@<TRIPOS>BOND
    1     1     2    1
    2     1     3    1
    3     1     4    1
    4     1     5    1
    5     5     6    1
    6     5     7    1
    7     5     8    1
    8     8     9    1
    9     8    10    1
   10     8    11    1
   11    11    12    1
   12    11    13    1
   13    11    14    1
   14    14    15    1
   15    14    16    1
   16    14    17    1
   17    17    18    1
   18    17    19    1
   19    17    20    1
   20    20    21    1
   21    20    22    1
   22    20    23    1
   23    23    24    1
   24    23    25    1
   25    23    26    1
   26    26    27    1
   27    26    28    1
   28    26    29    1
@<TRIPOS>SUBSTRUCTURE
       1 MOL1            1 RESIDUE      1      MOL     
@<SCITEGIC>MOL_PROPERTY
VM2 Rank
SciTegic.value.IntegerValue
87

@<SCITEGIC>MOL_PROPERTY
Conf_Id
SciTegic.value.IntegerValue
426

@<SCITEGIC>MOL_PROPERTY
Probability
SciTegic.value.DoubleValue
0.35

@<SCITEGIC>MOL_PROPERTY
Sum Probability
SciTegic.value.DoubleValue
79.88

@<SCITEGIC>MOL_PROPERTY
Delta G
SciTegic.value.DoubleValue
1.621

@<SCITEGIC>MOL_PROPERTY
G
SciTegic.value.DoubleValue
59.769

@<SCITEGIC>MOL_PROPERTY
E
SciTegic.value.DoubleValue
22.295

@<SCITEGIC>MOL_PROPERTY
-TS
SciTegic.value.DoubleValue
37.474

@<SCITEGIC>MOL_PROPERTY
U+W
SciTegic.value.DoubleValue
-1.849

@<SCITEGIC>MOL_PROPERTY
U
SciTegic.value.DoubleValue
49.690

@<SCITEGIC>MOL_PROPERTY
W
SciTegic.value.DoubleValue
-51.539

@<SCITEGIC>MOL_PROPERTY
W(PB)
SciTegic.value.DoubleValue
-54.030

@<SCITEGIC>MOL_PROPERTY
W(SA)
SciTegic.value.DoubleValue
2.490

@<SCITEGIC>MOL_PROPERTY
Valence
SciTegic.value.DoubleValue
3.753

@<SCITEGIC>MOL_PROPERTY
Coulomb
SciTegic.value.DoubleValue
44.825

@<SCITEGIC>MOL_PROPERTY
VdW
SciTegic.value.DoubleValue
1.112

@<SCITEGIC>MOL_PROPERTY
VdW6
SciTegic.value.DoubleValue
-8.728

@<SCITEGIC>MOL_PROPERTY
VdW12
SciTegic.value.DoubleValue
9.840

@<SCITEGIC>MOL_PROPERTY
Bond
SciTegic.value.DoubleValue
0.247

@<SCITEGIC>MOL_PROPERTY
Angle
SciTegic.value.DoubleValue
0.961

@<SCITEGIC>MOL_PROPERTY
Pdih
SciTegic.value.DoubleValue
2.545

@<SCITEGIC>MOL_PROPERTY
Idih
SciTegic.value.DoubleValue
0.000

@<SCITEGIC>MOL_PROPERTY
Tether
SciTegic.value.DoubleValue
0.000

@<TRIPOS>MOLECULE
guest-3_vm2.mol2 : vm2 ligand conformer 88
          29          28           1
SMALL
USER_CHARGES
 
@<TRIPOS>ATOM
       1    C1      20.048454   17.737009   19.953186 C.3        1 MOL1        -0.2427
       2    H1      21.017399   18.187417   19.701154 H          1 MOL1         0.0958
       3    H2      20.235443   16.836439   20.552549 H          1 MOL1         0.0958
       4    H3      19.567965   17.424987   19.016807 H          1 MOL1         0.0958
       5    C2      19.154628   18.736317   20.717569 C.3        1 MOL1        -0.1412
       6    H4      18.181876   18.269528   20.926667 H          1 MOL1         0.0947
       7    H5      18.957047   19.609665   20.080328 H          1 MOL1         0.0947
       8    C3      19.808758   19.192459   22.040378 C.3        1 MOL1        -0.1437
       9    H6      20.009307   18.310646   22.662898 H          1 MOL1         0.0947
      10    H7      20.779271   19.661141   21.826930 H          1 MOL1         0.0947
      11    C4      18.910989   20.189632   22.811145 C.3        1 MOL1        -0.1437
      12    H8      17.956005   19.711030   23.064867 H          1 MOL1         0.0947
      13    H9      18.659352   21.029144   22.148494 H          1 MOL1         0.0947
      14    C5      19.574617   20.762521   24.090271 C.3        1 MOL1        -0.1437
      15    H10     20.457601   21.348212   23.799581 H          1 MOL1         0.0947
      16    H11     18.881932   21.476414   24.556868 H          1 MOL1         0.0947
      17    C6      20.001903   19.712744   25.148755 C.3        1 MOL1        -0.1437
      18    H12     20.465017   20.247982   25.988083 H          1 MOL1         0.0947
      19    H13     20.785177   19.062184   24.737676 H          1 MOL1         0.0947
      20    C7      18.827639   18.849752   25.674370 C.3        1 MOL1        -0.1477
      21    H14     18.032500   19.495992   26.069124 H          1 MOL1         0.0947
      22    H15     18.388132   18.278674   24.847036 H          1 MOL1         0.0947
      23    C8      19.265729   17.849584   26.761460 C.3        1 MOL1         0.0145
      24    H16     20.071069   17.217645   26.377462 H          1 MOL1         0.0921
      25    H17     18.421572   17.205485   27.022348 H          1 MOL1         0.0921
      26    N1      19.751284   18.507981   28.037867 N.4        1 MOL1        -0.5969
      27    H18     19.027836   19.099690   28.459499 H          1 MOL1         0.3603
      28    H19     20.569476   19.101960   27.870887 H          1 MOL1         0.3603
      29    H20     20.021816   17.815197   28.744560 H          1 MOL1         0.3603
@<TRIPOS>BOND
    1     1     2    1
    2     1     3    1
    3     1     4    1
    4     1     5    1
    5     5     6    1
    6     5     7    1
    7     5     8    1
    8     8     9    1
    9     8    10    1
   10     8    11    1
   11    11    12    1
   12    11    13    1
   13    11    14    1
   14    14    15    1
   15    14    16    1
   16    14    17    1
   17    17    18    1
   18    17    19    1
   19    17    20    1
   20    20    21    1
   21    20    22    1
   22    20    23    1
   23    23    24    1
   24    23    25    1
   25    23    26    1
   26    26    27    1
   27    26    28    1
   28    26    29    1
@<TRIPOS>SUBSTRUCTURE
       1 MOL1            1 RESIDUE      1      MOL     
@<SCITEGIC>MOL_PROPERTY
VM2 Rank
SciTegic.value.IntegerValue
88

@<SCITEGIC>MOL_PROPERTY
Conf_Id
SciTegic.value.IntegerValue
291

@<SCITEGIC>MOL_PROPERTY
Probability
SciTegic.value.DoubleValue
0.35

@<SCITEGIC>MOL_PROPERTY
Sum Probability
SciTegic.value.DoubleValue
80.23

@<SCITEGIC>MOL_PROPERTY
Delta G
SciTegic.value.DoubleValue
1.627

@<SCITEGIC>MOL_PROPERTY
G
SciTegic.value.DoubleValue
59.775

@<SCITEGIC>MOL_PROPERTY
E
SciTegic.value.DoubleValue
22.043

@<SCITEGIC>MOL_PROPERTY
-TS
SciTegic.value.DoubleValue
37.732

@<SCITEGIC>MOL_PROPERTY
U+W
SciTegic.value.DoubleValue
-2.102

@<SCITEGIC>MOL_PROPERTY
U
SciTegic.value.DoubleValue
49.725

@<SCITEGIC>MOL_PROPERTY
W
SciTegic.value.DoubleValue
-51.827

@<SCITEGIC>MOL_PROPERTY
W(PB)
SciTegic.value.DoubleValue
-54.310

@<SCITEGIC>MOL_PROPERTY
W(SA)
SciTegic.value.DoubleValue
2.483

@<SCITEGIC>MOL_PROPERTY
Valence
SciTegic.value.DoubleValue
3.695

@<SCITEGIC>MOL_PROPERTY
Coulomb
SciTegic.value.DoubleValue
45.138

@<SCITEGIC>MOL_PROPERTY
VdW
SciTegic.value.DoubleValue
0.892

@<SCITEGIC>MOL_PROPERTY
VdW6
SciTegic.value.DoubleValue
-9.156

@<SCITEGIC>MOL_PROPERTY
VdW12
SciTegic.value.DoubleValue
10.047

@<SCITEGIC>MOL_PROPERTY
Bond
SciTegic.value.DoubleValue
0.255

@<SCITEGIC>MOL_PROPERTY
Angle
SciTegic.value.DoubleValue
1.154

@<SCITEGIC>MOL_PROPERTY
Pdih
SciTegic.value.DoubleValue
2.287

@<SCITEGIC>MOL_PROPERTY
Idih
SciTegic.value.DoubleValue
0.000

@<SCITEGIC>MOL_PROPERTY
Tether
SciTegic.value.DoubleValue
0.000

@<TRIPOS>MOLECULE
guest-3_vm2.mol2 : vm2 ligand conformer 89
          29          28           1
SMALL
USER_CHARGES
 
@<TRIPOS>ATOM
       1    C1      20.812462   19.088225   19.928350 C.3        1 MOL1        -0.2427
       2    H1      21.626776   18.493476   20.362390 H          1 MOL1         0.0958
       3    H2      20.155338   18.410672   19.367677 H          1 MOL1         0.0958
       4    H3      21.254878   19.795655   19.215021 H          1 MOL1         0.0958
       5    C2      20.028444   19.839151   21.025272 C.3        1 MOL1        -0.1412
       6    H4      19.244101   20.451194   20.558309 H          1 MOL1         0.0947
       7    H5      20.703598   20.532246   21.546467 H          1 MOL1         0.0947
       8    C3      19.394311   18.865499   22.042898 C.3        1 MOL1        -0.1437
       9    H6      18.718351   18.176148   21.518513 H          1 MOL1         0.0947
      10    H7      20.186149   18.254068   22.495011 H          1 MOL1         0.0947
      11    C4      18.612163   19.617232   23.146240 C.3        1 MOL1        -0.1437
      12    H8      17.867266   20.271669   22.672953 H          1 MOL1         0.0947
      13    H9      19.291217   20.281928   23.696363 H          1 MOL1         0.0947
      14    C5      17.876178   18.675503   24.133776 C.3        1 MOL1        -0.1437
      15    H10     17.306428   19.286321   24.846950 H          1 MOL1         0.0947
      16    H11     17.126621   18.094708   23.578817 H          1 MOL1         0.0947
      17    C6      18.787697   17.690765   24.914748 C.3        1 MOL1        -0.1437
      18    H12     19.223124   16.961508   24.218763 H          1 MOL1         0.0947
      19    H13     18.161683   17.105354   25.602288 H          1 MOL1         0.0947
      20    C7      19.925605   18.361280   25.723475 C.3        1 MOL1        -0.1477
      21    H14     20.493286   17.582344   26.249525 H          1 MOL1         0.0947
      22    H15     20.632873   18.850716   25.041768 H          1 MOL1         0.0947
      23    C8      19.401798   19.382911   26.749518 C.3        1 MOL1         0.0145
      24    H16     18.708571   18.891260   27.437277 H          1 MOL1         0.0921
      25    H17     18.865391   20.182839   26.232506 H          1 MOL1         0.0921
      26    N1      20.505342   20.017434   27.570722 N.4        1 MOL1        -0.5969
      27    H18     21.178467   20.519704   26.982582 H          1 MOL1         0.3603
      28    H19     21.032870   19.319035   28.104929 H          1 MOL1         0.3603
      29    H20     20.135455   20.694210   28.247294 H          1 MOL1         0.3603
@<TRIPOS>BOND
    1     1     2    1
    2     1     3    1
    3     1     4    1
    4     1     5    1
    5     5     6    1
    6     5     7    1
    7     5     8    1
    8     8     9    1
    9     8    10    1
   10     8    11    1
   11    11    12    1
   12    11    13    1
   13    11    14    1
   14    14    15    1
   15    14    16    1
   16    14    17    1
   17    17    18    1
   18    17    19    1
   19    17    20    1
   20    20    21    1
   21    20    22    1
   22    20    23    1
   23    23    24    1
   24    23    25    1
   25    23    26    1
   26    26    27    1
   27    26    28    1
   28    26    29    1
@<TRIPOS>SUBSTRUCTURE
       1 MOL1            1 RESIDUE      1      MOL     
@<SCITEGIC>MOL_PROPERTY
VM2 Rank
SciTegic.value.IntegerValue
89

@<SCITEGIC>MOL_PROPERTY
Conf_Id
SciTegic.value.IntegerValue
1429

@<SCITEGIC>MOL_PROPERTY
Probability
SciTegic.value.DoubleValue
0.35

@<SCITEGIC>MOL_PROPERTY
Sum Probability
SciTegic.value.DoubleValue
80.58

@<SCITEGIC>MOL_PROPERTY
Delta G
SciTegic.value.DoubleValue
1.634

@<SCITEGIC>MOL_PROPERTY
G
SciTegic.value.DoubleValue
59.782

@<SCITEGIC>MOL_PROPERTY
E
SciTegic.value.DoubleValue
21.903

@<SCITEGIC>MOL_PROPERTY
-TS
SciTegic.value.DoubleValue
37.879

@<SCITEGIC>MOL_PROPERTY
U+W
SciTegic.value.DoubleValue
-2.241

@<SCITEGIC>MOL_PROPERTY
U
SciTegic.value.DoubleValue
50.029

@<SCITEGIC>MOL_PROPERTY
W
SciTegic.value.DoubleValue
-52.270

@<SCITEGIC>MOL_PROPERTY
W(PB)
SciTegic.value.DoubleValue
-54.754

@<SCITEGIC>MOL_PROPERTY
W(SA)
SciTegic.value.DoubleValue
2.484

@<SCITEGIC>MOL_PROPERTY
Valence
SciTegic.value.DoubleValue
3.797

@<SCITEGIC>MOL_PROPERTY
Coulomb
SciTegic.value.DoubleValue
45.605

@<SCITEGIC>MOL_PROPERTY
VdW
SciTegic.value.DoubleValue
0.628

@<SCITEGIC>MOL_PROPERTY
VdW6
SciTegic.value.DoubleValue
-9.561

@<SCITEGIC>MOL_PROPERTY
VdW12
SciTegic.value.DoubleValue
10.189

@<SCITEGIC>MOL_PROPERTY
Bond
SciTegic.value.DoubleValue
0.256

@<SCITEGIC>MOL_PROPERTY
Angle
SciTegic.value.DoubleValue
1.236

@<SCITEGIC>MOL_PROPERTY
Pdih
SciTegic.value.DoubleValue
2.305

@<SCITEGIC>MOL_PROPERTY
Idih
SciTegic.value.DoubleValue
0.000

@<SCITEGIC>MOL_PROPERTY
Tether
SciTegic.value.DoubleValue
0.000

@<TRIPOS>MOLECULE
guest-3_vm2.mol2 : vm2 ligand conformer 90
          29          28           1
SMALL
USER_CHARGES
 
@<TRIPOS>ATOM
       1    C1      20.307094   19.204189   19.378617 C.3        1 MOL1        -0.2427
       2    H1      20.035091   19.658846   18.417190 H          1 MOL1         0.0958
       3    H2      21.300486   19.577939   19.659195 H          1 MOL1         0.0958
       4    H3      20.379455   18.118886   19.229847 H          1 MOL1         0.0958
       5    C2      19.259833   19.547112   20.459165 C.3        1 MOL1        -0.1412
       6    H4      18.271831   19.191764   20.134438 H          1 MOL1         0.0947
       7    H5      19.186170   20.638824   20.562281 H          1 MOL1         0.0947
       8    C3      19.618645   18.917934   21.823554 C.3        1 MOL1        -0.1437
       9    H6      19.688654   17.826744   21.715969 H          1 MOL1         0.0947
      10    H7      20.610752   19.273332   22.130584 H          1 MOL1         0.0947
      11    C4      18.571219   19.265194   22.908750 C.3        1 MOL1        -0.1437
      12    H8      17.574693   18.976349   22.547023 H          1 MOL1         0.0947
      13    H9      18.540496   20.352986   23.060239 H          1 MOL1         0.0947
      14    C5      18.822071   18.559153   24.263946 C.3        1 MOL1        -0.1437
      15    H10     17.960567   18.758471   24.914614 H          1 MOL1         0.0947
      16    H11     18.848655   17.471347   24.111904 H          1 MOL1         0.0947
      17    C6      20.122113   19.020066   24.970751 C.3        1 MOL1        -0.1437
      18    H12     20.111052   20.111063   25.094765 H          1 MOL1         0.0947
      19    H13     20.987269   18.793191   24.334672 H          1 MOL1         0.0947
      20    C7      20.344918   18.335477   26.342907 C.3        1 MOL1        -0.1477
      21    H14     20.429424   17.250476   26.196319 H          1 MOL1         0.0947
      22    H15     21.306714   18.663602   26.758955 H          1 MOL1         0.0947
      23    C8      19.231656   18.610410   27.374205 C.3        1 MOL1         0.0145
      24    H16     19.457276   18.078021   28.302177 H          1 MOL1         0.0921
      25    H17     18.275624   18.240428   26.995293 H          1 MOL1         0.0921
      26    N1      19.066451   20.078466   27.713105 N.4        1 MOL1        -0.5969
      27    H18     19.926836   20.477802   28.102244 H          1 MOL1         0.3603
      28    H19     18.324998   20.228815   28.405982 H          1 MOL1         0.3603
      29    H20     18.822646   20.630788   26.884952 H          1 MOL1         0.3603
@<TRIPOS>BOND
    1     1     2    1
    2     1     3    1
    3     1     4    1
    4     1     5    1
    5     5     6    1
    6     5     7    1
    7     5     8    1
    8     8     9    1
    9     8    10    1
   10     8    11    1
   11    11    12    1
   12    11    13    1
   13    11    14    1
   14    14    15    1
   15    14    16    1
   16    14    17    1
   17    17    18    1
   18    17    19    1
   19    17    20    1
   20    20    21    1
   21    20    22    1
   22    20    23    1
   23    23    24    1
   24    23    25    1
   25    23    26    1
   26    26    27    1
   27    26    28    1
   28    26    29    1
@<TRIPOS>SUBSTRUCTURE
       1 MOL1            1 RESIDUE      1      MOL     
@<SCITEGIC>MOL_PROPERTY
VM2 Rank
SciTegic.value.IntegerValue
90

@<SCITEGIC>MOL_PROPERTY
Conf_Id
SciTegic.value.IntegerValue
1603

@<SCITEGIC>MOL_PROPERTY
Probability
SciTegic.value.DoubleValue
0.34

@<SCITEGIC>MOL_PROPERTY
Sum Probability
SciTegic.value.DoubleValue
80.92

@<SCITEGIC>MOL_PROPERTY
Delta G
SciTegic.value.DoubleValue
1.645

@<SCITEGIC>MOL_PROPERTY
G
SciTegic.value.DoubleValue
59.793

@<SCITEGIC>MOL_PROPERTY
E
SciTegic.value.DoubleValue
22.251

@<SCITEGIC>MOL_PROPERTY
-TS
SciTegic.value.DoubleValue
37.542

@<SCITEGIC>MOL_PROPERTY
U+W
SciTegic.value.DoubleValue
-1.893

@<SCITEGIC>MOL_PROPERTY
U
SciTegic.value.DoubleValue
49.850

@<SCITEGIC>MOL_PROPERTY
W
SciTegic.value.DoubleValue
-51.742

@<SCITEGIC>MOL_PROPERTY
W(PB)
SciTegic.value.DoubleValue
-54.214

@<SCITEGIC>MOL_PROPERTY
W(SA)
SciTegic.value.DoubleValue
2.472

@<SCITEGIC>MOL_PROPERTY
Valence
SciTegic.value.DoubleValue
3.554

@<SCITEGIC>MOL_PROPERTY
Coulomb
SciTegic.value.DoubleValue
45.337

@<SCITEGIC>MOL_PROPERTY
VdW
SciTegic.value.DoubleValue
0.959

@<SCITEGIC>MOL_PROPERTY
VdW6
SciTegic.value.DoubleValue
-8.885

@<SCITEGIC>MOL_PROPERTY
VdW12
SciTegic.value.DoubleValue
9.844

@<SCITEGIC>MOL_PROPERTY
Bond
SciTegic.value.DoubleValue
0.239

@<SCITEGIC>MOL_PROPERTY
Angle
SciTegic.value.DoubleValue
0.938

@<SCITEGIC>MOL_PROPERTY
Pdih
SciTegic.value.DoubleValue
2.377

@<SCITEGIC>MOL_PROPERTY
Idih
SciTegic.value.DoubleValue
0.000

@<SCITEGIC>MOL_PROPERTY
Tether
SciTegic.value.DoubleValue
0.000

@<TRIPOS>MOLECULE
guest-3_vm2.mol2 : vm2 ligand conformer 91
          29          28           1
SMALL
USER_CHARGES
 
@<TRIPOS>ATOM
       1    C1      21.316242   19.164159   20.364669 C.3        1 MOL1        -0.2427
       2    H1      22.121382   19.260806   21.104691 H          1 MOL1         0.0958
       3    H2      21.270331   18.115148   20.044189 H          1 MOL1         0.0958
       4    H3      21.586314   19.771957   19.491357 H          1 MOL1         0.0958
       5    C2      19.965099   19.624107   20.951760 C.3        1 MOL1        -0.1412
       6    H4      19.187424   19.548772   20.178847 H          1 MOL1         0.0947
       7    H5      20.031599   20.684542   21.232681 H          1 MOL1         0.0947
       8    C3      19.560888   18.783364   22.182793 C.3        1 MOL1        -0.1437
       9    H6      19.492196   17.724672   21.897202 H          1 MOL1         0.0947
      10    H7      20.349938   18.859372   22.942244 H          1 MOL1         0.0947
      11    C4      18.209666   19.247765   22.776936 C.3        1 MOL1        -0.1437
      12    H8      17.448200   19.235478   21.984970 H          1 MOL1         0.0947
      13    H9      18.287032   20.293177   23.103613 H          1 MOL1         0.0947
      14    C5      17.708681   18.362187   23.947092 C.3        1 MOL1        -0.1437
      15    H10     16.734892   18.742650   24.284950 H          1 MOL1         0.0947
      16    H11     17.519739   17.347639   23.570035 H          1 MOL1         0.0947
      17    C6      18.662727   18.270659   25.165906 C.3        1 MOL1        -0.1437
      18    H12     19.593854   17.770982   24.869920 H          1 MOL1         0.0947
      19    H13     18.197814   17.621360   25.920687 H          1 MOL1         0.0947
      20    C7      18.975142   19.644597   25.809090 C.3        1 MOL1        -0.1477
      21    H14     19.529113   20.279664   25.106132 H          1 MOL1         0.0947
      22    H15     18.033849   20.164929   26.030271 H          1 MOL1         0.0947
      23    C8      19.781663   19.516419   27.115360 C.3        1 MOL1         0.0145
      24    H16     19.238390   18.884400   27.823008 H          1 MOL1         0.0921
      25    H17     19.904098   20.505436   27.565211 H          1 MOL1         0.0921
      26    N1      21.163892   18.924743   26.921395 N.4        1 MOL1        -0.5969
      27    H18     21.119170   17.977806   26.532212 H          1 MOL1         0.3603
      28    H19     21.678414   18.862112   27.806788 H          1 MOL1         0.3603
      29    H20     21.733250   19.489686   26.282828 H          1 MOL1         0.3603
@<TRIPOS>BOND
    1     1     2    1
    2     1     3    1
    3     1     4    1
    4     1     5    1
    5     5     6    1
    6     5     7    1
    7     5     8    1
    8     8     9    1
    9     8    10    1
   10     8    11    1
   11    11    12    1
   12    11    13    1
   13    11    14    1
   14    14    15    1
   15    14    16    1
   16    14    17    1
   17    17    18    1
   18    17    19    1
   19    17    20    1
   20    20    21    1
   21    20    22    1
   22    20    23    1
   23    23    24    1
   24    23    25    1
   25    23    26    1
   26    26    27    1
   27    26    28    1
   28    26    29    1
@<TRIPOS>SUBSTRUCTURE
       1 MOL1            1 RESIDUE      1      MOL     
@<SCITEGIC>MOL_PROPERTY
VM2 Rank
SciTegic.value.IntegerValue
91

@<SCITEGIC>MOL_PROPERTY
Conf_Id
SciTegic.value.IntegerValue
1482

@<SCITEGIC>MOL_PROPERTY
Probability
SciTegic.value.DoubleValue
0.33

@<SCITEGIC>MOL_PROPERTY
Sum Probability
SciTegic.value.DoubleValue
81.25

@<SCITEGIC>MOL_PROPERTY
Delta G
SciTegic.value.DoubleValue
1.666

@<SCITEGIC>MOL_PROPERTY
G
SciTegic.value.DoubleValue
59.814

@<SCITEGIC>MOL_PROPERTY
E
SciTegic.value.DoubleValue
22.067

@<SCITEGIC>MOL_PROPERTY
-TS
SciTegic.value.DoubleValue
37.746

@<SCITEGIC>MOL_PROPERTY
U+W
SciTegic.value.DoubleValue
-2.077

@<SCITEGIC>MOL_PROPERTY
U
SciTegic.value.DoubleValue
50.323

@<SCITEGIC>MOL_PROPERTY
W
SciTegic.value.DoubleValue
-52.400

@<SCITEGIC>MOL_PROPERTY
W(PB)
SciTegic.value.DoubleValue
-54.872

@<SCITEGIC>MOL_PROPERTY
W(SA)
SciTegic.value.DoubleValue
2.472

@<SCITEGIC>MOL_PROPERTY
Valence
SciTegic.value.DoubleValue
3.655

@<SCITEGIC>MOL_PROPERTY
Coulomb
SciTegic.value.DoubleValue
45.885

@<SCITEGIC>MOL_PROPERTY
VdW
SciTegic.value.DoubleValue
0.784

@<SCITEGIC>MOL_PROPERTY
VdW6
SciTegic.value.DoubleValue
-9.262

@<SCITEGIC>MOL_PROPERTY
VdW12
SciTegic.value.DoubleValue
10.046

@<SCITEGIC>MOL_PROPERTY
Bond
SciTegic.value.DoubleValue
0.250

@<SCITEGIC>MOL_PROPERTY
Angle
SciTegic.value.DoubleValue
1.077

@<SCITEGIC>MOL_PROPERTY
Pdih
SciTegic.value.DoubleValue
2.328

@<SCITEGIC>MOL_PROPERTY
Idih
SciTegic.value.DoubleValue
0.000

@<SCITEGIC>MOL_PROPERTY
Tether
SciTegic.value.DoubleValue
0.000

@<TRIPOS>MOLECULE
guest-3_vm2.mol2 : vm2 ligand conformer 92
          29          28           1
SMALL
USER_CHARGES
 
@<TRIPOS>ATOM
       1    C1      18.437569   18.740020   19.891803 C.3        1 MOL1        -0.2427
       2    H1      17.906734   19.104535   19.002832 H          1 MOL1         0.0958
       3    H2      18.863205   17.757597   19.649510 H          1 MOL1         0.0958
       4    H3      17.694550   18.606532   20.687784 H          1 MOL1         0.0958
       5    C2      19.542709   19.736857   20.308265 C.3        1 MOL1        -0.1412
       6    H4      19.088901   20.701761   20.574218 H          1 MOL1         0.0947
       7    H5      20.190211   19.930047   19.441564 H          1 MOL1         0.0947
       8    C3      20.418716   19.229924   21.479211 C.3        1 MOL1        -0.1437
       9    H6      20.888446   18.276868   21.199478 H          1 MOL1         0.0947
      10    H7      21.238519   19.944457   21.636280 H          1 MOL1         0.0947
      11    C4      19.637785   19.058504   22.804162 C.3        1 MOL1        -0.1437
      12    H8      18.863051   18.290078   22.683833 H          1 MOL1         0.0947
      13    H9      19.124130   19.999179   23.040776 H          1 MOL1         0.0947
      14    C5      20.572920   18.657627   23.970430 C.3        1 MOL1        -0.1437
      15    H10     21.141030   17.763064   23.679913 H          1 MOL1         0.0947
      16    H11     21.313594   19.450854   24.142079 H          1 MOL1         0.0947
      17    C6      19.823739   18.353524   25.291131 C.3        1 MOL1        -0.1437
      18    H12     20.550668   17.957144   26.012244 H          1 MOL1         0.0947
      19    H13     19.089423   17.553850   25.121662 H          1 MOL1         0.0947
      20    C7      19.116827   19.590243   25.900479 C.3        1 MOL1        -0.1477
      21    H14     19.839976   20.403529   26.046750 H          1 MOL1         0.0947
      22    H15     18.357512   19.965647   25.203410 H          1 MOL1         0.0947
      23    C8      18.419044   19.276126   27.237936 C.3        1 MOL1         0.0145
      24    H16     17.712407   18.453261   27.100285 H          1 MOL1         0.0921
      25    H17     17.859008   20.154806   27.569323 H          1 MOL1         0.0921
      26    N1      19.374691   18.895176   28.351582 N.4        1 MOL1        -0.5969
      27    H18     19.909309   18.051867   28.120959 H          1 MOL1         0.3603
      28    H19     18.879605   18.706308   29.230110 H          1 MOL1         0.3603
      29    H20     20.051913   19.640754   28.543359 H          1 MOL1         0.3603
@<TRIPOS>BOND
    1     1     2    1
    2     1     3    1
    3     1     4    1
    4     1     5    1
    5     5     6    1
    6     5     7    1
    7     5     8    1
    8     8     9    1
    9     8    10    1
   10     8    11    1
   11    11    12    1
   12    11    13    1
   13    11    14    1
   14    14    15    1
   15    14    16    1
   16    14    17    1
   17    17    18    1
   18    17    19    1
   19    17    20    1
   20    20    21    1
   21    20    22    1
   22    20    23    1
   23    23    24    1
   24    23    25    1
   25    23    26    1
   26    26    27    1
   27    26    28    1
   28    26    29    1
@<TRIPOS>SUBSTRUCTURE
       1 MOL1            1 RESIDUE      1      MOL     
@<SCITEGIC>MOL_PROPERTY
VM2 Rank
SciTegic.value.IntegerValue
92

@<SCITEGIC>MOL_PROPERTY
Conf_Id
SciTegic.value.IntegerValue
675

@<SCITEGIC>MOL_PROPERTY
Probability
SciTegic.value.DoubleValue
0.33

@<SCITEGIC>MOL_PROPERTY
Sum Probability
SciTegic.value.DoubleValue
81.57

@<SCITEGIC>MOL_PROPERTY
Delta G
SciTegic.value.DoubleValue
1.669

@<SCITEGIC>MOL_PROPERTY
G
SciTegic.value.DoubleValue
59.817

@<SCITEGIC>MOL_PROPERTY
E
SciTegic.value.DoubleValue
22.335

@<SCITEGIC>MOL_PROPERTY
-TS
SciTegic.value.DoubleValue
37.482

@<SCITEGIC>MOL_PROPERTY
U+W
SciTegic.value.DoubleValue
-1.809

@<SCITEGIC>MOL_PROPERTY
U
SciTegic.value.DoubleValue
49.648

@<SCITEGIC>MOL_PROPERTY
W
SciTegic.value.DoubleValue
-51.457

@<SCITEGIC>MOL_PROPERTY
W(PB)
SciTegic.value.DoubleValue
-53.943

@<SCITEGIC>MOL_PROPERTY
W(SA)
SciTegic.value.DoubleValue
2.486

@<SCITEGIC>MOL_PROPERTY
Valence
SciTegic.value.DoubleValue
3.752

@<SCITEGIC>MOL_PROPERTY
Coulomb
SciTegic.value.DoubleValue
44.787

@<SCITEGIC>MOL_PROPERTY
VdW
SciTegic.value.DoubleValue
1.108

@<SCITEGIC>MOL_PROPERTY
VdW6
SciTegic.value.DoubleValue
-8.716

@<SCITEGIC>MOL_PROPERTY
VdW12
SciTegic.value.DoubleValue
9.824

@<SCITEGIC>MOL_PROPERTY
Bond
SciTegic.value.DoubleValue
0.245

@<SCITEGIC>MOL_PROPERTY
Angle
SciTegic.value.DoubleValue
0.961

@<SCITEGIC>MOL_PROPERTY
Pdih
SciTegic.value.DoubleValue
2.547

@<SCITEGIC>MOL_PROPERTY
Idih
SciTegic.value.DoubleValue
0.000

@<SCITEGIC>MOL_PROPERTY
Tether
SciTegic.value.DoubleValue
0.000

@<TRIPOS>MOLECULE
guest-3_vm2.mol2 : vm2 ligand conformer 93
          29          28           1
SMALL
USER_CHARGES
 
@<TRIPOS>ATOM
       1    C1      19.548556   19.204452   19.175574 C.3        1 MOL1        -0.2427
       2    H1      20.484180   19.697946   18.881799 H          1 MOL1         0.0958
       3    H2      19.654615   18.128594   18.984435 H          1 MOL1         0.0958
       4    H3      18.749009   19.584993   18.526765 H          1 MOL1         0.0958
       5    C2      19.220712   19.473892   20.659486 C.3        1 MOL1        -0.1412
       6    H4      18.260435   19.000519   20.902558 H          1 MOL1         0.0947
       7    H5      19.092135   20.554359   20.813478 H          1 MOL1         0.0947
       8    C3      20.332718   18.941526   21.594083 C.3        1 MOL1        -0.1437
       9    H6      20.422559   17.852319   21.481111 H          1 MOL1         0.0947
      10    H7      21.295839   19.364342   21.276362 H          1 MOL1         0.0947
      11    C4      20.113587   19.292733   23.086393 C.3        1 MOL1        -0.1437
      12    H8      20.018828   20.381633   23.197420 H          1 MOL1         0.0947
      13    H9      21.017606   19.003085   23.637044 H          1 MOL1         0.0947
      14    C5      18.880614   18.592595   23.712614 C.3        1 MOL1        -0.1437
      15    H10     17.976141   18.883180   23.163215 H          1 MOL1         0.0947
      16    H11     18.974854   17.503814   23.599788 H          1 MOL1         0.0947
      17    C6      18.664136   18.942618   25.205473 C.3        1 MOL1        -0.1437
      18    H12     17.705357   18.512673   25.527160 H          1 MOL1         0.0947
      19    H13     18.566493   20.031283   25.312106 H          1 MOL1         0.0947
      20    C7      19.785759   18.415121   26.134855 C.3        1 MOL1        -0.1477
      21    H14     19.938294   17.343555   25.949834 H          1 MOL1         0.0947
      22    H15     20.737535   18.912746   25.910735 H          1 MOL1         0.0947
      23    C8      19.456330   18.610363   27.627156 C.3        1 MOL1         0.0145
      24    H16     20.241797   18.153714   28.235468 H          1 MOL1         0.0921
      25    H17     18.510485   18.115376   27.863252 H          1 MOL1         0.0921
      26    N1      19.341588   20.064700   28.039366 N.4        1 MOL1        -0.5969
      27    H18     18.595420   20.545658   27.527323 H          1 MOL1         0.3603
      28    H19     20.210708   20.579547   27.863919 H          1 MOL1         0.3603
      29    H20     19.131626   20.161794   29.038897 H          1 MOL1         0.3603
@<TRIPOS>BOND
    1     1     2    1
    2     1     3    1
    3     1     4    1
    4     1     5    1
    5     5     6    1
    6     5     7    1
    7     5     8    1
    8     8     9    1
    9     8    10    1
   10     8    11    1
   11    11    12    1
   12    11    13    1
   13    11    14    1
   14    14    15    1
   15    14    16    1
   16    14    17    1
   17    17    18    1
   18    17    19    1
   19    17    20    1
   20    20    21    1
   21    20    22    1
   22    20    23    1
   23    23    24    1
   24    23    25    1
   25    23    26    1
   26    26    27    1
   27    26    28    1
   28    26    29    1
@<TRIPOS>SUBSTRUCTURE
       1 MOL1            1 RESIDUE      1      MOL     
@<SCITEGIC>MOL_PROPERTY
VM2 Rank
SciTegic.value.IntegerValue
93

@<SCITEGIC>MOL_PROPERTY
Conf_Id
SciTegic.value.IntegerValue
1038

@<SCITEGIC>MOL_PROPERTY
Probability
SciTegic.value.DoubleValue
0.32

@<SCITEGIC>MOL_PROPERTY
Sum Probability
SciTegic.value.DoubleValue
81.90

@<SCITEGIC>MOL_PROPERTY
Delta G
SciTegic.value.DoubleValue
1.676

@<SCITEGIC>MOL_PROPERTY
G
SciTegic.value.DoubleValue
59.824

@<SCITEGIC>MOL_PROPERTY
E
SciTegic.value.DoubleValue
22.386

@<SCITEGIC>MOL_PROPERTY
-TS
SciTegic.value.DoubleValue
37.438

@<SCITEGIC>MOL_PROPERTY
U+W
SciTegic.value.DoubleValue
-1.759

@<SCITEGIC>MOL_PROPERTY
U
SciTegic.value.DoubleValue
49.985

@<SCITEGIC>MOL_PROPERTY
W
SciTegic.value.DoubleValue
-51.744

@<SCITEGIC>MOL_PROPERTY
W(PB)
SciTegic.value.DoubleValue
-54.257

@<SCITEGIC>MOL_PROPERTY
W(SA)
SciTegic.value.DoubleValue
2.513

@<SCITEGIC>MOL_PROPERTY
Valence
SciTegic.value.DoubleValue
3.839

@<SCITEGIC>MOL_PROPERTY
Coulomb
SciTegic.value.DoubleValue
45.043

@<SCITEGIC>MOL_PROPERTY
VdW
SciTegic.value.DoubleValue
1.103

@<SCITEGIC>MOL_PROPERTY
VdW6
SciTegic.value.DoubleValue
-8.716

@<SCITEGIC>MOL_PROPERTY
VdW12
SciTegic.value.DoubleValue
9.819

@<SCITEGIC>MOL_PROPERTY
Bond
SciTegic.value.DoubleValue
0.253

@<SCITEGIC>MOL_PROPERTY
Angle
SciTegic.value.DoubleValue
0.991

@<SCITEGIC>MOL_PROPERTY
Pdih
SciTegic.value.DoubleValue
2.595

@<SCITEGIC>MOL_PROPERTY
Idih
SciTegic.value.DoubleValue
0.000

@<SCITEGIC>MOL_PROPERTY
Tether
SciTegic.value.DoubleValue
0.000

@<TRIPOS>MOLECULE
guest-3_vm2.mol2 : vm2 ligand conformer 94
          29          28           1
SMALL
USER_CHARGES
 
@<TRIPOS>ATOM
       1    C1      20.911244   18.511662   19.899990 C.3        1 MOL1        -0.2427
       2    H1      21.827443   19.042657   20.189585 H          1 MOL1         0.0958
       3    H2      21.016556   17.460278   20.197879 H          1 MOL1         0.0958
       4    H3      20.833517   18.545720   18.805530 H          1 MOL1         0.0958
       5    C2      19.668860   19.151907   20.554580 C.3        1 MOL1        -0.1412
       6    H4      18.766283   18.620995   20.220829 H          1 MOL1         0.0947
       7    H5      19.570905   20.191190   20.210830 H          1 MOL1         0.0947
       8    C3      19.753260   19.117656   22.096555 C.3        1 MOL1        -0.1437
       9    H6      19.859654   18.075791   22.425625 H          1 MOL1         0.0947
      10    H7      20.655722   19.651227   22.425135 H          1 MOL1         0.0947
      11    C4      18.506048   19.755907   22.753901 C.3        1 MOL1        -0.1437
      12    H8      17.607055   19.191963   22.469257 H          1 MOL1         0.0947
      13    H9      18.372048   20.771129   22.355551 H          1 MOL1         0.0947
      14    C5      18.596926   19.843329   24.296975 C.3        1 MOL1        -0.1437
      15    H10     19.485793   20.425814   24.573760 H          1 MOL1         0.0947
      16    H11     17.729704   20.408880   24.664815 H          1 MOL1         0.0947
      17    C6      18.626883   18.458864   24.992284 C.3        1 MOL1        -0.1437
      18    H12     19.536272   17.912811   24.711627 H          1 MOL1         0.0947
      19    H13     17.782704   17.855674   24.630851 H          1 MOL1         0.0947
      20    C7      18.539119   18.554928   26.535973 C.3        1 MOL1        -0.1477
      21    H14     17.581937   19.014291   26.816388 H          1 MOL1         0.0947
      22    H15     18.529806   17.543330   26.963036 H          1 MOL1         0.0947
      23    C8      19.683297   19.364486   27.179036 C.3        1 MOL1         0.0145
      24    H16     19.534033   19.407687   28.261312 H          1 MOL1         0.0921
      25    H17     19.674283   20.387386   26.793943 H          1 MOL1         0.0921
      26    N1      21.058363   18.779262   26.925706 N.4        1 MOL1        -0.5969
      27    H18     21.138508   17.825176   27.292430 H          1 MOL1         0.3603
      28    H19     21.797016   19.335212   27.370422 H          1 MOL1         0.3603
      29    H20     21.271503   18.738993   25.924135 H          1 MOL1         0.3603
@<TRIPOS>BOND
    1     1     2    1
    2     1     3    1
    3     1     4    1
    4     1     5    1
    5     5     6    1
    6     5     7    1
    7     5     8    1
    8     8     9    1
    9     8    10    1
   10     8    11    1
   11    11    12    1
   12    11    13    1
   13    11    14    1
   14    14    15    1
   15    14    16    1
   16    14    17    1
   17    17    18    1
   18    17    19    1
   19    17    20    1
   20    20    21    1
   21    20    22    1
   22    20    23    1
   23    23    24    1
   24    23    25    1
   25    23    26    1
   26    26    27    1
   27    26    28    1
   28    26    29    1
@<TRIPOS>SUBSTRUCTURE
       1 MOL1            1 RESIDUE      1      MOL     
@<SCITEGIC>MOL_PROPERTY
VM2 Rank
SciTegic.value.IntegerValue
94

@<SCITEGIC>MOL_PROPERTY
Conf_Id
SciTegic.value.IntegerValue
1669

@<SCITEGIC>MOL_PROPERTY
Probability
SciTegic.value.DoubleValue
0.32

@<SCITEGIC>MOL_PROPERTY
Sum Probability
SciTegic.value.DoubleValue
82.21

@<SCITEGIC>MOL_PROPERTY
Delta G
SciTegic.value.DoubleValue
1.686

@<SCITEGIC>MOL_PROPERTY
G
SciTegic.value.DoubleValue
59.834

@<SCITEGIC>MOL_PROPERTY
E
SciTegic.value.DoubleValue
22.248

@<SCITEGIC>MOL_PROPERTY
-TS
SciTegic.value.DoubleValue
37.586

@<SCITEGIC>MOL_PROPERTY
U+W
SciTegic.value.DoubleValue
-1.897

@<SCITEGIC>MOL_PROPERTY
U
SciTegic.value.DoubleValue
50.207

@<SCITEGIC>MOL_PROPERTY
W
SciTegic.value.DoubleValue
-52.103

@<SCITEGIC>MOL_PROPERTY
W(PB)
SciTegic.value.DoubleValue
-54.586

@<SCITEGIC>MOL_PROPERTY
W(SA)
SciTegic.value.DoubleValue
2.482

@<SCITEGIC>MOL_PROPERTY
Valence
SciTegic.value.DoubleValue
3.485

@<SCITEGIC>MOL_PROPERTY
Coulomb
SciTegic.value.DoubleValue
45.881

@<SCITEGIC>MOL_PROPERTY
VdW
SciTegic.value.DoubleValue
0.841

@<SCITEGIC>MOL_PROPERTY
VdW6
SciTegic.value.DoubleValue
-9.001

@<SCITEGIC>MOL_PROPERTY
VdW12
SciTegic.value.DoubleValue
9.842

@<SCITEGIC>MOL_PROPERTY
Bond
SciTegic.value.DoubleValue
0.232

@<SCITEGIC>MOL_PROPERTY
Angle
SciTegic.value.DoubleValue
0.851

@<SCITEGIC>MOL_PROPERTY
Pdih
SciTegic.value.DoubleValue
2.403

@<SCITEGIC>MOL_PROPERTY
Idih
SciTegic.value.DoubleValue
0.000

@<SCITEGIC>MOL_PROPERTY
Tether
SciTegic.value.DoubleValue
0.000

@<TRIPOS>MOLECULE
guest-3_vm2.mol2 : vm2 ligand conformer 95
          29          28           1
SMALL
USER_CHARGES
 
@<TRIPOS>ATOM
       1    C1      19.422367   17.661457   20.156184 C.3        1 MOL1        -0.2427
       2    H1      20.473134   17.346486   20.197523 H          1 MOL1         0.0958
       3    H2      18.886848   17.184327   20.986234 H          1 MOL1         0.0958
       4    H3      18.992935   17.276453   19.222218 H          1 MOL1         0.0958
       5    C2      19.301229   19.201197   20.212419 C.3        1 MOL1        -0.1412
       6    H4      18.240724   19.489188   20.201984 H          1 MOL1         0.0947
       7    H5      19.743739   19.624385   19.299812 H          1 MOL1         0.0947
       8    C3      20.002159   19.829548   21.441035 C.3        1 MOL1        -0.1437
       9    H6      21.065954   19.554686   21.436968 H          1 MOL1         0.0947
      10    H7      19.964995   20.923114   21.341171 H          1 MOL1         0.0947
      11    C4      19.363439   19.422650   22.790637 C.3        1 MOL1        -0.1437
      12    H8      19.454795   18.338092   22.924565 H          1 MOL1         0.0947
      13    H9      18.289997   19.655741   22.772749 H          1 MOL1         0.0947
      14    C5      20.031200   20.151134   23.981851 C.3        1 MOL1        -0.1437
      15    H10     21.094114   19.877829   24.034865 H          1 MOL1         0.0947
      16    H11     20.000284   21.234406   23.800512 H          1 MOL1         0.0947
      17    C6      19.353280   19.865080   25.344474 C.3        1 MOL1        -0.1437
      18    H12     18.291512   20.143243   25.292594 H          1 MOL1         0.0947
      19    H13     19.808216   20.523244   26.096403 H          1 MOL1         0.0947
      20    C7      19.484678   18.391376   25.804488 C.3        1 MOL1        -0.1477
      21    H14     18.992080   17.730293   25.080852 H          1 MOL1         0.0947
      22    H15     20.542433   18.097694   25.830559 H          1 MOL1         0.0947
      23    C8      18.847687   18.141413   27.185118 C.3        1 MOL1         0.0145
      24    H16     18.883649   17.072478   27.412324 H          1 MOL1         0.0921
      25    H17     17.799371   18.451493   27.168613 H          1 MOL1         0.0921
      26    N1      19.537961   18.874145   28.318793 N.4        1 MOL1        -0.5969
      27    H18     19.508608   19.890060   28.187539 H          1 MOL1         0.3603
      28    H19     20.524585   18.607017   28.399441 H          1 MOL1         0.3603
      29    H20     19.098310   18.675230   29.224183 H          1 MOL1         0.3603
@<TRIPOS>BOND
    1     1     2    1
    2     1     3    1
    3     1     4    1
    4     1     5    1
    5     5     6    1
    6     5     7    1
    7     5     8    1
    8     8     9    1
    9     8    10    1
   10     8    11    1
   11    11    12    1
   12    11    13    1
   13    11    14    1
   14    14    15    1
   15    14    16    1
   16    14    17    1
   17    17    18    1
   18    17    19    1
   19    17    20    1
   20    20    21    1
   21    20    22    1
   22    20    23    1
   23    23    24    1
   24    23    25    1
   25    23    26    1
   26    26    27    1
   27    26    28    1
   28    26    29    1
@<TRIPOS>SUBSTRUCTURE
       1 MOL1            1 RESIDUE      1      MOL     
@<SCITEGIC>MOL_PROPERTY
VM2 Rank
SciTegic.value.IntegerValue
95

@<SCITEGIC>MOL_PROPERTY
Conf_Id
SciTegic.value.IntegerValue
425

@<SCITEGIC>MOL_PROPERTY
Probability
SciTegic.value.DoubleValue
0.32

@<SCITEGIC>MOL_PROPERTY
Sum Probability
SciTegic.value.DoubleValue
82.53

@<SCITEGIC>MOL_PROPERTY
Delta G
SciTegic.value.DoubleValue
1.689

@<SCITEGIC>MOL_PROPERTY
G
SciTegic.value.DoubleValue
59.837

@<SCITEGIC>MOL_PROPERTY
E
SciTegic.value.DoubleValue
22.364

@<SCITEGIC>MOL_PROPERTY
-TS
SciTegic.value.DoubleValue
37.473

@<SCITEGIC>MOL_PROPERTY
U+W
SciTegic.value.DoubleValue
-1.781

@<SCITEGIC>MOL_PROPERTY
U
SciTegic.value.DoubleValue
49.690

@<SCITEGIC>MOL_PROPERTY
W
SciTegic.value.DoubleValue
-51.471

@<SCITEGIC>MOL_PROPERTY
W(PB)
SciTegic.value.DoubleValue
-53.992

@<SCITEGIC>MOL_PROPERTY
W(SA)
SciTegic.value.DoubleValue
2.521

@<SCITEGIC>MOL_PROPERTY
Valence
SciTegic.value.DoubleValue
3.753

@<SCITEGIC>MOL_PROPERTY
Coulomb
SciTegic.value.DoubleValue
44.825

@<SCITEGIC>MOL_PROPERTY
VdW
SciTegic.value.DoubleValue
1.112

@<SCITEGIC>MOL_PROPERTY
VdW6
SciTegic.value.DoubleValue
-8.728

@<SCITEGIC>MOL_PROPERTY
VdW12
SciTegic.value.DoubleValue
9.840

@<SCITEGIC>MOL_PROPERTY
Bond
SciTegic.value.DoubleValue
0.247

@<SCITEGIC>MOL_PROPERTY
Angle
SciTegic.value.DoubleValue
0.961

@<SCITEGIC>MOL_PROPERTY
Pdih
SciTegic.value.DoubleValue
2.544

@<SCITEGIC>MOL_PROPERTY
Idih
SciTegic.value.DoubleValue
0.000

@<SCITEGIC>MOL_PROPERTY
Tether
SciTegic.value.DoubleValue
0.000

@<TRIPOS>MOLECULE
guest-3_vm2.mol2 : vm2 ligand conformer 96
          29          28           1
SMALL
USER_CHARGES
 
@<TRIPOS>ATOM
       1    C1      19.979345   19.287956   19.172557 C.3        1 MOL1        -0.2427
       2    H1      20.948656   18.773881   19.134932 H          1 MOL1         0.0958
       3    H2      19.230964   18.642358   18.694685 H          1 MOL1         0.0958
       4    H3      20.061384   20.206372   18.576887 H          1 MOL1         0.0958
       5    C2      19.582160   19.615836   20.627484 C.3        1 MOL1        -0.1412
       6    H4      18.624183   20.154284   20.630721 H          1 MOL1         0.0947
       7    H5      20.331190   20.294827   21.055508 H          1 MOL1         0.0947
       8    C3      19.464918   18.335524   21.488042 C.3        1 MOL1        -0.1437
       9    H6      18.774927   17.637799   20.993651 H          1 MOL1         0.0947
      10    H7      20.437951   17.827061   21.531428 H          1 MOL1         0.0947
      11    C4      18.949937   18.595397   22.925314 C.3        1 MOL1        -0.1437
      12    H8      18.762791   17.622263   23.396491 H          1 MOL1         0.0947
      13    H9      17.980052   19.109531   22.880510 H          1 MOL1         0.0947
      14    C5      19.936645   19.412422   23.798169 C.3        1 MOL1        -0.1437
      15    H10     20.906229   18.897761   23.843964 H          1 MOL1         0.0947
      16    H11     20.124715   20.384022   23.323893 H          1 MOL1         0.0947
      17    C6      19.421613   19.677094   25.234624 C.3        1 MOL1        -0.1437
      18    H12     18.443926   20.176548   25.188910 H          1 MOL1         0.0947
      19    H13     20.107648   20.386174   25.716408 H          1 MOL1         0.0947
      20    C7      19.315334   18.397962   26.102721 C.3        1 MOL1        -0.1477
      21    H14     18.595798   17.701750   25.654918 H          1 MOL1         0.0947
      22    H15     20.282428   17.878495   26.128204 H          1 MOL1         0.0947
      23    C8      18.853553   18.694650   27.542585 C.3        1 MOL1         0.0145
      24    H16     18.702737   17.752107   28.075881 H          1 MOL1         0.0921
      25    H17     17.900692   19.230343   27.520721 H          1 MOL1         0.0921
      26    N1      19.840494   19.521157   28.343504 N.4        1 MOL1        -0.5969
      27    H18     20.752051   19.057762   28.418509 H          1 MOL1         0.3603
      28    H19     19.509214   19.688112   29.300048 H          1 MOL1         0.3603
      29    H20     20.001050   20.438988   27.916921 H          1 MOL1         0.3603
@<TRIPOS>BOND
    1     1     2    1
    2     1     3    1
    3     1     4    1
    4     1     5    1
    5     5     6    1
    6     5     7    1
    7     5     8    1
    8     8     9    1
    9     8    10    1
   10     8    11    1
   11    11    12    1
   12    11    13    1
   13    11    14    1
   14    14    15    1
   15    14    16    1
   16    14    17    1
   17    17    18    1
   18    17    19    1
   19    17    20    1
   20    20    21    1
   21    20    22    1
   22    20    23    1
   23    23    24    1
   24    23    25    1
   25    23    26    1
   26    26    27    1
   27    26    28    1
   28    26    29    1
@<TRIPOS>SUBSTRUCTURE
       1 MOL1            1 RESIDUE      1      MOL     
@<SCITEGIC>MOL_PROPERTY
VM2 Rank
SciTegic.value.IntegerValue
96

@<SCITEGIC>MOL_PROPERTY
Conf_Id
SciTegic.value.IntegerValue
1521

@<SCITEGIC>MOL_PROPERTY
Probability
SciTegic.value.DoubleValue
0.32

@<SCITEGIC>MOL_PROPERTY
Sum Probability
SciTegic.value.DoubleValue
82.85

@<SCITEGIC>MOL_PROPERTY
Delta G
SciTegic.value.DoubleValue
1.690

@<SCITEGIC>MOL_PROPERTY
G
SciTegic.value.DoubleValue
59.838

@<SCITEGIC>MOL_PROPERTY
E
SciTegic.value.DoubleValue
22.448

@<SCITEGIC>MOL_PROPERTY
-TS
SciTegic.value.DoubleValue
37.390

@<SCITEGIC>MOL_PROPERTY
U+W
SciTegic.value.DoubleValue
-1.696

@<SCITEGIC>MOL_PROPERTY
U
SciTegic.value.DoubleValue
49.901

@<SCITEGIC>MOL_PROPERTY
W
SciTegic.value.DoubleValue
-51.597

@<SCITEGIC>MOL_PROPERTY
W(PB)
SciTegic.value.DoubleValue
-54.070

@<SCITEGIC>MOL_PROPERTY
W(SA)
SciTegic.value.DoubleValue
2.473

@<SCITEGIC>MOL_PROPERTY
Valence
SciTegic.value.DoubleValue
3.877

@<SCITEGIC>MOL_PROPERTY
Coulomb
SciTegic.value.DoubleValue
44.864

@<SCITEGIC>MOL_PROPERTY
VdW
SciTegic.value.DoubleValue
1.159

@<SCITEGIC>MOL_PROPERTY
VdW6
SciTegic.value.DoubleValue
-8.668

@<SCITEGIC>MOL_PROPERTY
VdW12
SciTegic.value.DoubleValue
9.827

@<SCITEGIC>MOL_PROPERTY
Bond
SciTegic.value.DoubleValue
0.259

@<SCITEGIC>MOL_PROPERTY
Angle
SciTegic.value.DoubleValue
1.041

@<SCITEGIC>MOL_PROPERTY
Pdih
SciTegic.value.DoubleValue
2.578

@<SCITEGIC>MOL_PROPERTY
Idih
SciTegic.value.DoubleValue
0.000

@<SCITEGIC>MOL_PROPERTY
Tether
SciTegic.value.DoubleValue
0.000

@<TRIPOS>MOLECULE
guest-3_vm2.mol2 : vm2 ligand conformer 97
          29          28           1
SMALL
USER_CHARGES
 
@<TRIPOS>ATOM
       1    C1      20.027812   18.506104   19.332302 C.3        1 MOL1        -0.2427
       2    H1      20.562421   17.620101   18.965936 H          1 MOL1         0.0958
       3    H2      19.057706   18.549825   18.820237 H          1 MOL1         0.0958
       4    H3      20.607186   19.392847   19.043754 H          1 MOL1         0.0958
       5    C2      19.844938   18.437777   20.863258 C.3        1 MOL1        -0.1412
       6    H4      20.832183   18.354480   21.336767 H          1 MOL1         0.0947
       7    H5      19.288409   17.526576   21.123347 H          1 MOL1         0.0947
       8    C3      19.096689   19.679038   21.403800 C.3        1 MOL1        -0.1437
       9    H6      19.678270   20.585651   21.186956 H          1 MOL1         0.0947
      10    H7      18.145919   19.786455   20.863628 H          1 MOL1         0.0947
      11    C4      18.794256   19.606282   22.920569 C.3        1 MOL1        -0.1437
      12    H8      18.190661   18.711951   23.123315 H          1 MOL1         0.0947
      13    H9      18.172226   20.469910   23.193166 H          1 MOL1         0.0947
      14    C5      20.068460   19.602192   23.802656 C.3        1 MOL1        -0.1437
      15    H10     20.638743   18.678453   23.638386 H          1 MOL1         0.0947
      16    H11     20.721056   20.429505   23.491457 H          1 MOL1         0.0947
      17    C6      19.772789   19.753656   25.315031 C.3        1 MOL1        -0.1437
      18    H12     19.217389   20.685498   25.489992 H          1 MOL1         0.0947
      19    H13     20.730333   19.861741   25.841331 H          1 MOL1         0.0947
      20    C7      18.988437   18.558807   25.912919 C.3        1 MOL1        -0.1477
      21    H14     18.013267   18.469678   25.418299 H          1 MOL1         0.0947
      22    H15     19.526205   17.620986   25.720377 H          1 MOL1         0.0947
      23    C8      18.741525   18.708417   27.426506 C.3        1 MOL1         0.0145
      24    H16     18.104817   17.889529   27.772279 H          1 MOL1         0.0921
      25    H17     18.222738   19.650430   27.623640 H          1 MOL1         0.0921
      26    N1      20.009094   18.685726   28.257960 N.4        1 MOL1        -0.5969
      27    H18     20.639628   19.454413   28.009518 H          1 MOL1         0.3603
      28    H19     20.531097   17.812272   28.131970 H          1 MOL1         0.3603
      29    H20     19.808525   18.773492   29.260286 H          1 MOL1         0.3603
@<TRIPOS>BOND
    1     1     2    1
    2     1     3    1
    3     1     4    1
    4     1     5    1
    5     5     6    1
    6     5     7    1
    7     5     8    1
    8     8     9    1
    9     8    10    1
   10     8    11    1
   11    11    12    1
   12    11    13    1
   13    11    14    1
   14    14    15    1
   15    14    16    1
   16    14    17    1
   17    17    18    1
   18    17    19    1
   19    17    20    1
   20    20    21    1
   21    20    22    1
   22    20    23    1
   23    23    24    1
   24    23    25    1
   25    23    26    1
   26    26    27    1
   27    26    28    1
   28    26    29    1
@<TRIPOS>SUBSTRUCTURE
       1 MOL1            1 RESIDUE      1      MOL     
@<SCITEGIC>MOL_PROPERTY
VM2 Rank
SciTegic.value.IntegerValue
97

@<SCITEGIC>MOL_PROPERTY
Conf_Id
SciTegic.value.IntegerValue
1315

@<SCITEGIC>MOL_PROPERTY
Probability
SciTegic.value.DoubleValue
0.32

@<SCITEGIC>MOL_PROPERTY
Sum Probability
SciTegic.value.DoubleValue
83.16

@<SCITEGIC>MOL_PROPERTY
Delta G
SciTegic.value.DoubleValue
1.691

@<SCITEGIC>MOL_PROPERTY
G
SciTegic.value.DoubleValue
59.839

@<SCITEGIC>MOL_PROPERTY
E
SciTegic.value.DoubleValue
22.336

@<SCITEGIC>MOL_PROPERTY
-TS
SciTegic.value.DoubleValue
37.502

@<SCITEGIC>MOL_PROPERTY
U+W
SciTegic.value.DoubleValue
-1.808

@<SCITEGIC>MOL_PROPERTY
U
SciTegic.value.DoubleValue
49.751

@<SCITEGIC>MOL_PROPERTY
W
SciTegic.value.DoubleValue
-51.559

@<SCITEGIC>MOL_PROPERTY
W(PB)
SciTegic.value.DoubleValue
-54.048

@<SCITEGIC>MOL_PROPERTY
W(SA)
SciTegic.value.DoubleValue
2.489

@<SCITEGIC>MOL_PROPERTY
Valence
SciTegic.value.DoubleValue
3.759

@<SCITEGIC>MOL_PROPERTY
Coulomb
SciTegic.value.DoubleValue
44.916

@<SCITEGIC>MOL_PROPERTY
VdW
SciTegic.value.DoubleValue
1.076

@<SCITEGIC>MOL_PROPERTY
VdW6
SciTegic.value.DoubleValue
-8.772

@<SCITEGIC>MOL_PROPERTY
VdW12
SciTegic.value.DoubleValue
9.848

@<SCITEGIC>MOL_PROPERTY
Bond
SciTegic.value.DoubleValue
0.248

@<SCITEGIC>MOL_PROPERTY
Angle
SciTegic.value.DoubleValue
0.934

@<SCITEGIC>MOL_PROPERTY
Pdih
SciTegic.value.DoubleValue
2.577

@<SCITEGIC>MOL_PROPERTY
Idih
SciTegic.value.DoubleValue
0.000

@<SCITEGIC>MOL_PROPERTY
Tether
SciTegic.value.DoubleValue
0.000

@<TRIPOS>MOLECULE
guest-3_vm2.mol2 : vm2 ligand conformer 98
          29          28           1
SMALL
USER_CHARGES
 
@<TRIPOS>ATOM
       1    C1      19.625483   18.975225   19.446622 C.3        1 MOL1        -0.2427
       2    H1      20.457987   19.684565   19.352844 H          1 MOL1         0.0958
       3    H2      20.041171   17.982035   19.656306 H          1 MOL1         0.0958
       4    H3      19.119371   18.921417   18.474055 H          1 MOL1         0.0958
       5    C2      18.635793   19.422078   20.546512 C.3        1 MOL1        -0.1412
       6    H4      17.831824   18.679379   20.645230 H          1 MOL1         0.0947
       7    H5      18.153307   20.356534   20.227490 H          1 MOL1         0.0947
       8    C3      19.305090   19.655531   21.922630 C.3        1 MOL1        -0.1437
       9    H6      20.106916   20.399360   21.818787 H          1 MOL1         0.0947
      10    H7      18.556390   20.097814   22.592034 H          1 MOL1         0.0947
      11    C4      19.871112   18.361284   22.560506 C.3        1 MOL1        -0.1437
      12    H8      20.614721   17.917597   21.886160 H          1 MOL1         0.0947
      13    H9      19.068667   17.618619   22.667609 H          1 MOL1         0.0947
      14    C5      20.550288   18.593036   23.932879 C.3        1 MOL1        -0.1437
      15    H10     21.036860   17.657124   24.240604 H          1 MOL1         0.0947
      16    H11     21.352346   19.336262   23.825181 H          1 MOL1         0.0947
      17    C6      19.569938   19.037446   25.045000 C.3        1 MOL1        -0.1437
      18    H12     18.738058   18.322833   25.100603 H          1 MOL1         0.0947
      19    H13     19.137384   20.015223   24.796164 H          1 MOL1         0.0947
      20    C7      20.272371   19.134227   26.419920 C.3        1 MOL1        -0.1477
      21    H14     20.679148   18.154883   26.705212 H          1 MOL1         0.0947
      22    H15     21.127644   19.818812   26.343501 H          1 MOL1         0.0947
      23    C8      19.336155   19.645410   27.531759 C.3        1 MOL1         0.0145
      24    H16     18.925119   20.618192   27.248685 H          1 MOL1         0.0921
      25    H17     19.905913   19.771631   28.456413 H          1 MOL1         0.0921
      26    N1      18.177770   18.713761   27.829173 N.4        1 MOL1        -0.5969
      27    H18     17.579136   18.579213   27.008339 H          1 MOL1         0.3603
      28    H19     17.580867   19.076287   28.580759 H          1 MOL1         0.3603
      29    H20     18.501422   17.786619   28.124065 H          1 MOL1         0.3603
@<TRIPOS>BOND
    1     1     2    1
    2     1     3    1
    3     1     4    1
    4     1     5    1
    5     5     6    1
    6     5     7    1
    7     5     8    1
    8     8     9    1
    9     8    10    1
   10     8    11    1
   11    11    12    1
   12    11    13    1
   13    11    14    1
   14    14    15    1
   15    14    16    1
   16    14    17    1
   17    17    18    1
   18    17    19    1
   19    17    20    1
   20    20    21    1
   21    20    22    1
   22    20    23    1
   23    23    24    1
   24    23    25    1
   25    23    26    1
   26    26    27    1
   27    26    28    1
   28    26    29    1
@<TRIPOS>SUBSTRUCTURE
       1 MOL1            1 RESIDUE      1      MOL     
@<SCITEGIC>MOL_PROPERTY
VM2 Rank
SciTegic.value.IntegerValue
98

@<SCITEGIC>MOL_PROPERTY
Conf_Id
SciTegic.value.IntegerValue
856

@<SCITEGIC>MOL_PROPERTY
Probability
SciTegic.value.DoubleValue
0.31

@<SCITEGIC>MOL_PROPERTY
Sum Probability
SciTegic.value.DoubleValue
83.47

@<SCITEGIC>MOL_PROPERTY
Delta G
SciTegic.value.DoubleValue
1.696

@<SCITEGIC>MOL_PROPERTY
G
SciTegic.value.DoubleValue
59.844

@<SCITEGIC>MOL_PROPERTY
E
SciTegic.value.DoubleValue
22.400

@<SCITEGIC>MOL_PROPERTY
-TS
SciTegic.value.DoubleValue
37.444

@<SCITEGIC>MOL_PROPERTY
U+W
SciTegic.value.DoubleValue
-1.744

@<SCITEGIC>MOL_PROPERTY
U
SciTegic.value.DoubleValue
49.938

@<SCITEGIC>MOL_PROPERTY
W
SciTegic.value.DoubleValue
-51.682

@<SCITEGIC>MOL_PROPERTY
W(PB)
SciTegic.value.DoubleValue
-54.166

@<SCITEGIC>MOL_PROPERTY
W(SA)
SciTegic.value.DoubleValue
2.484

@<SCITEGIC>MOL_PROPERTY
Valence
SciTegic.value.DoubleValue
3.804

@<SCITEGIC>MOL_PROPERTY
Coulomb
SciTegic.value.DoubleValue
45.009

@<SCITEGIC>MOL_PROPERTY
VdW
SciTegic.value.DoubleValue
1.125

@<SCITEGIC>MOL_PROPERTY
VdW6
SciTegic.value.DoubleValue
-8.683

@<SCITEGIC>MOL_PROPERTY
VdW12
SciTegic.value.DoubleValue
9.808

@<SCITEGIC>MOL_PROPERTY
Bond
SciTegic.value.DoubleValue
0.248

@<SCITEGIC>MOL_PROPERTY
Angle
SciTegic.value.DoubleValue
0.990

@<SCITEGIC>MOL_PROPERTY
Pdih
SciTegic.value.DoubleValue
2.567

@<SCITEGIC>MOL_PROPERTY
Idih
SciTegic.value.DoubleValue
0.000

@<SCITEGIC>MOL_PROPERTY
Tether
SciTegic.value.DoubleValue
0.000

@<TRIPOS>MOLECULE
guest-3_vm2.mol2 : vm2 ligand conformer 99
          29          28           1
SMALL
USER_CHARGES
 
@<TRIPOS>ATOM
       1    C1      20.538275   18.469261   20.135942 C.3        1 MOL1        -0.2427
       2    H1      20.794067   17.681700   20.855524 H          1 MOL1         0.0958
       3    H2      19.625408   18.168260   19.605752 H          1 MOL1         0.0958
       4    H3      21.351859   18.521381   19.400902 H          1 MOL1         0.0958
       5    C2      20.350884   19.835848   20.832911 C.3        1 MOL1        -0.1412
       6    H4      20.218090   20.610075   20.064354 H          1 MOL1         0.0947
       7    H5      21.266337   20.099955   21.380548 H          1 MOL1         0.0947
       8    C3      19.137160   19.875467   21.792434 C.3        1 MOL1        -0.1437
       9    H6      19.014738   20.904531   22.157570 H          1 MOL1         0.0947
      10    H7      18.221464   19.633879   21.235358 H          1 MOL1         0.0947
      11    C4      19.278125   18.923290   23.003985 C.3        1 MOL1        -0.1437
      12    H8      20.225644   19.134008   23.516765 H          1 MOL1         0.0947
      13    H9      19.323812   17.882437   22.658016 H          1 MOL1         0.0947
      14    C5      18.097553   19.077360   23.992413 C.3        1 MOL1        -0.1437
      15    H10     18.074134   20.102708   24.385234 H          1 MOL1         0.0947
      16    H11     17.154101   18.941189   23.445900 H          1 MOL1         0.0947
      17    C6      18.133360   18.062086   25.163854 C.3        1 MOL1        -0.1437
      18    H12     18.046443   17.043761   24.760519 H          1 MOL1         0.0947
      19    H13     17.243696   18.215769   25.790183 H          1 MOL1         0.0947
      20    C7      19.395434   18.142257   26.058284 C.3        1 MOL1        -0.1477
      21    H14     19.303491   17.404774   26.866667 H          1 MOL1         0.0947
      22    H15     20.284103   17.856149   25.481379 H          1 MOL1         0.0947
      23    C8      19.602381   19.539142   26.672336 C.3        1 MOL1         0.0145
      24    H16     18.721407   19.818601   27.256374 H          1 MOL1         0.0921
      25    H17     19.736409   20.275893   25.875966 H          1 MOL1         0.0921
      26    N1      20.810829   19.613290   27.582840 N.4        1 MOL1        -0.5969
      27    H18     20.735108   18.961795   28.371044 H          1 MOL1         0.3603
      28    H19     20.930747   20.551234   27.980941 H          1 MOL1         0.3603
      29    H20     21.678248   19.386289   27.085472 H          1 MOL1         0.3603
@<TRIPOS>BOND
    1     1     2    1
    2     1     3    1
    3     1     4    1
    4     1     5    1
    5     5     6    1
    6     5     7    1
    7     5     8    1
    8     8     9    1
    9     8    10    1
   10     8    11    1
   11    11    12    1
   12    11    13    1
   13    11    14    1
   14    14    15    1
   15    14    16    1
   16    14    17    1
   17    17    18    1
   18    17    19    1
   19    17    20    1
   20    20    21    1
   21    20    22    1
   22    20    23    1
   23    23    24    1
   24    23    25    1
   25    23    26    1
   26    26    27    1
   27    26    28    1
   28    26    29    1
@<TRIPOS>SUBSTRUCTURE
       1 MOL1            1 RESIDUE      1      MOL     
@<SCITEGIC>MOL_PROPERTY
VM2 Rank
SciTegic.value.IntegerValue
99

@<SCITEGIC>MOL_PROPERTY
Conf_Id
SciTegic.value.IntegerValue
1170

@<SCITEGIC>MOL_PROPERTY
Probability
SciTegic.value.DoubleValue
0.31

@<SCITEGIC>MOL_PROPERTY
Sum Probability
SciTegic.value.DoubleValue
83.78

@<SCITEGIC>MOL_PROPERTY
Delta G
SciTegic.value.DoubleValue
1.702

@<SCITEGIC>MOL_PROPERTY
G
SciTegic.value.DoubleValue
59.850

@<SCITEGIC>MOL_PROPERTY
E
SciTegic.value.DoubleValue
22.211

@<SCITEGIC>MOL_PROPERTY
-TS
SciTegic.value.DoubleValue
37.639

@<SCITEGIC>MOL_PROPERTY
U+W
SciTegic.value.DoubleValue
-1.933

@<SCITEGIC>MOL_PROPERTY
U
SciTegic.value.DoubleValue
50.132

@<SCITEGIC>MOL_PROPERTY
W
SciTegic.value.DoubleValue
-52.066

@<SCITEGIC>MOL_PROPERTY
W(PB)
SciTegic.value.DoubleValue
-54.534

@<SCITEGIC>MOL_PROPERTY
W(SA)
SciTegic.value.DoubleValue
2.468

@<SCITEGIC>MOL_PROPERTY
Valence
SciTegic.value.DoubleValue
3.843

@<SCITEGIC>MOL_PROPERTY
Coulomb
SciTegic.value.DoubleValue
45.437

@<SCITEGIC>MOL_PROPERTY
VdW
SciTegic.value.DoubleValue
0.852

@<SCITEGIC>MOL_PROPERTY
VdW6
SciTegic.value.DoubleValue
-9.163

@<SCITEGIC>MOL_PROPERTY
VdW12
SciTegic.value.DoubleValue
10.016

@<SCITEGIC>MOL_PROPERTY
Bond
SciTegic.value.DoubleValue
0.247

@<SCITEGIC>MOL_PROPERTY
Angle
SciTegic.value.DoubleValue
1.127

@<SCITEGIC>MOL_PROPERTY
Pdih
SciTegic.value.DoubleValue
2.470

@<SCITEGIC>MOL_PROPERTY
Idih
SciTegic.value.DoubleValue
0.000

@<SCITEGIC>MOL_PROPERTY
Tether
SciTegic.value.DoubleValue
0.000

@<TRIPOS>MOLECULE
guest-3_vm2.mol2 : vm2 ligand conformer 100
          29          28           1
SMALL
USER_CHARGES
 
@<TRIPOS>ATOM
       1    C1      20.726844   18.997830   20.147647 C.3        1 MOL1        -0.2427
       2    H1      20.218356   19.829531   19.642928 H          1 MOL1         0.0958
       3    H2      21.413343   19.416108   20.894133 H          1 MOL1         0.0958
       4    H3      21.333802   18.471650   19.399544 H          1 MOL1         0.0958
       5    C2      19.706833   18.032356   20.792535 C.3        1 MOL1        -0.1412
       6    H4      20.240436   17.226901   21.316195 H          1 MOL1         0.0947
       7    H5      19.124715   17.548387   19.995883 H          1 MOL1         0.0947
       8    C3      18.728885   18.732065   21.766910 C.3        1 MOL1        -0.1437
       9    H6      18.180981   19.520649   21.232928 H          1 MOL1         0.0947
      10    H7      17.977497   17.999563   22.092698 H          1 MOL1         0.0947
      11    C4      19.423749   19.330841   23.013102 C.3        1 MOL1        -0.1437
      12    H8      20.123056   20.120175   22.708015 H          1 MOL1         0.0947
      13    H9      20.016322   18.547688   23.503678 H          1 MOL1         0.0947
      14    C5      18.398607   19.920139   24.011244 C.3        1 MOL1        -0.1437
      15    H10     17.762494   20.644461   23.483951 H          1 MOL1         0.0947
      16    H11     17.725645   19.126855   24.363407 H          1 MOL1         0.0947
      17    C6      19.052612   20.635817   25.221376 C.3        1 MOL1        -0.1437
      18    H12     18.257965   21.055575   25.853632 H          1 MOL1         0.0947
      19    H13     19.635897   21.493951   24.859985 H          1 MOL1         0.0947
      20    C7      19.965812   19.739234   26.093996 C.3        1 MOL1        -0.1477
      21    H14     20.842830   19.420483   25.516373 H          1 MOL1         0.0947
      22    H15     20.350224   20.335473   26.932173 H          1 MOL1         0.0947
      23    C8      19.232694   18.504157   26.649244 C.3        1 MOL1         0.0145
      24    H16     18.881164   17.881354   25.822495 H          1 MOL1         0.0921
      25    H17     18.365726   18.822887   27.234129 H          1 MOL1         0.0921
      26    N1      20.107965   17.645560   27.538947 N.4        1 MOL1        -0.5969
      27    H18     20.930016   17.291467   27.038776 H          1 MOL1         0.3603
      28    H19     19.601189   16.828859   27.897810 H          1 MOL1         0.3603
      29    H20     20.450711   18.165854   28.353358 H          1 MOL1         0.3603
@<TRIPOS>BOND
    1     1     2    1
    2     1     3    1
    3     1     4    1
    4     1     5    1
    5     5     6    1
    6     5     7    1
    7     5     8    1
    8     8     9    1
    9     8    10    1
   10     8    11    1
   11    11    12    1
   12    11    13    1
   13    11    14    1
   14    14    15    1
   15    14    16    1
   16    14    17    1
   17    17    18    1
   18    17    19    1
   19    17    20    1
   20    20    21    1
   21    20    22    1
   22    20    23    1
   23    23    24    1
   24    23    25    1
   25    23    26    1
   26    26    27    1
   27    26    28    1
   28    26    29    1
@<TRIPOS>SUBSTRUCTURE
       1 MOL1            1 RESIDUE      1      MOL     
@<SCITEGIC>MOL_PROPERTY
VM2 Rank
SciTegic.value.IntegerValue
100

@<SCITEGIC>MOL_PROPERTY
Conf_Id
SciTegic.value.IntegerValue
2230

@<SCITEGIC>MOL_PROPERTY
Probability
SciTegic.value.DoubleValue
0.31

@<SCITEGIC>MOL_PROPERTY
Sum Probability
SciTegic.value.DoubleValue
84.09

@<SCITEGIC>MOL_PROPERTY
Delta G
SciTegic.value.DoubleValue
1.709

@<SCITEGIC>MOL_PROPERTY
G
SciTegic.value.DoubleValue
59.857

@<SCITEGIC>MOL_PROPERTY
E
SciTegic.value.DoubleValue
22.219

@<SCITEGIC>MOL_PROPERTY
-TS
SciTegic.value.DoubleValue
37.639

@<SCITEGIC>MOL_PROPERTY
U+W
SciTegic.value.DoubleValue
-1.926

@<SCITEGIC>MOL_PROPERTY
U
SciTegic.value.DoubleValue
50.132

@<SCITEGIC>MOL_PROPERTY
W
SciTegic.value.DoubleValue
-52.058

@<SCITEGIC>MOL_PROPERTY
W(PB)
SciTegic.value.DoubleValue
-54.557

@<SCITEGIC>MOL_PROPERTY
W(SA)
SciTegic.value.DoubleValue
2.499

@<SCITEGIC>MOL_PROPERTY
Valence
SciTegic.value.DoubleValue
3.843

@<SCITEGIC>MOL_PROPERTY
Coulomb
SciTegic.value.DoubleValue
45.436

@<SCITEGIC>MOL_PROPERTY
VdW
SciTegic.value.DoubleValue
0.853

@<SCITEGIC>MOL_PROPERTY
VdW6
SciTegic.value.DoubleValue
-9.163

@<SCITEGIC>MOL_PROPERTY
VdW12
SciTegic.value.DoubleValue
10.016

@<SCITEGIC>MOL_PROPERTY
Bond
SciTegic.value.DoubleValue
0.247

@<SCITEGIC>MOL_PROPERTY
Angle
SciTegic.value.DoubleValue
1.127

@<SCITEGIC>MOL_PROPERTY
Pdih
SciTegic.value.DoubleValue
2.470

@<SCITEGIC>MOL_PROPERTY
Idih
SciTegic.value.DoubleValue
0.000

@<SCITEGIC>MOL_PROPERTY
Tether
SciTegic.value.DoubleValue
0.000

@<TRIPOS>MOLECULE
guest-3_vm2.mol2 : vm2 ligand conformer 101
          29          28           1
SMALL
USER_CHARGES
 
@<TRIPOS>ATOM
       1    C1      20.887248   17.960750   20.337454 C.3        1 MOL1        -0.2427
       2    H1      20.724574   17.354405   19.436947 H          1 MOL1         0.0958
       3    H2      21.519327   18.814268   20.059562 H          1 MOL1         0.0958
       4    H3      21.439481   17.347586   21.061533 H          1 MOL1         0.0958
       5    C2      19.541462   18.435605   20.924981 C.3        1 MOL1        -0.1412
       6    H4      18.918673   17.561805   21.162608 H          1 MOL1         0.0947
       7    H5      18.997491   19.016230   20.166812 H          1 MOL1         0.0947
       8    C3      19.742455   19.292779   22.194046 C.3        1 MOL1        -0.1437
       9    H6      20.295024   18.704986   22.938567 H          1 MOL1         0.0947
      10    H7      20.362495   20.166809   21.951700 H          1 MOL1         0.0947
      11    C4      18.393717   19.763948   22.788497 C.3        1 MOL1        -0.1437
      12    H8      17.788289   18.893087   23.072480 H          1 MOL1         0.0947
      13    H9      17.822603   20.286132   22.008530 H          1 MOL1         0.0947
      14    C5      18.549005   20.719632   23.999715 C.3        1 MOL1        -0.1437
      15    H10     19.049326   21.639055   23.665772 H          1 MOL1         0.0947
      16    H11     17.549352   21.027481   24.335997 H          1 MOL1         0.0947
      17    C6      19.328818   20.139091   25.207585 C.3        1 MOL1        -0.1437
      18    H12     19.368717   20.905649   25.993857 H          1 MOL1         0.0947
      19    H13     20.370149   19.948586   24.918414 H          1 MOL1         0.0947
      20    C7      18.693006   18.853168   25.791651 C.3        1 MOL1        -0.1477
      21    H14     17.631779   19.037072   26.005369 H          1 MOL1         0.0947
      22    H15     18.730403   18.039239   25.056486 H          1 MOL1         0.0947
      23    C8      19.380420   18.390886   27.090498 C.3        1 MOL1         0.0145
      24    H16     18.843489   17.530616   27.499335 H          1 MOL1         0.0921
      25    H17     19.349418   19.195569   27.830014 H          1 MOL1         0.0921
      26    N1      20.827869   17.982141   26.900574 N.4        1 MOL1        -0.5969
      27    H18     21.397504   18.758285   26.549476 H          1 MOL1         0.3603
      28    H19     20.920512   17.210044   26.232455 H          1 MOL1         0.3603
      29    H20     21.253608   17.670509   27.780464 H          1 MOL1         0.3603
@<TRIPOS>BOND
    1     1     2    1
    2     1     3    1
    3     1     4    1
    4     1     5    1
    5     5     6    1
    6     5     7    1
    7     5     8    1
    8     8     9    1
    9     8    10    1
   10     8    11    1
   11    11    12    1
   12    11    13    1
   13    11    14    1
   14    14    15    1
   15    14    16    1
   16    14    17    1
   17    17    18    1
   18    17    19    1
   19    17    20    1
   20    20    21    1
   21    20    22    1
   22    20    23    1
   23    23    24    1
   24    23    25    1
   25    23    26    1
   26    26    27    1
   27    26    28    1
   28    26    29    1
@<TRIPOS>SUBSTRUCTURE
       1 MOL1            1 RESIDUE      1      MOL     
@<SCITEGIC>MOL_PROPERTY
VM2 Rank
SciTegic.value.IntegerValue
101

@<SCITEGIC>MOL_PROPERTY
Conf_Id
SciTegic.value.IntegerValue
2455

@<SCITEGIC>MOL_PROPERTY
Probability
SciTegic.value.DoubleValue
0.30

@<SCITEGIC>MOL_PROPERTY
Sum Probability
SciTegic.value.DoubleValue
84.39

@<SCITEGIC>MOL_PROPERTY
Delta G
SciTegic.value.DoubleValue
1.718

@<SCITEGIC>MOL_PROPERTY
G
SciTegic.value.DoubleValue
59.866

@<SCITEGIC>MOL_PROPERTY
E
SciTegic.value.DoubleValue
22.120

@<SCITEGIC>MOL_PROPERTY
-TS
SciTegic.value.DoubleValue
37.746

@<SCITEGIC>MOL_PROPERTY
U+W
SciTegic.value.DoubleValue
-2.024

@<SCITEGIC>MOL_PROPERTY
U
SciTegic.value.DoubleValue
50.323

@<SCITEGIC>MOL_PROPERTY
W
SciTegic.value.DoubleValue
-52.347

@<SCITEGIC>MOL_PROPERTY
W(PB)
SciTegic.value.DoubleValue
-54.826

@<SCITEGIC>MOL_PROPERTY
W(SA)
SciTegic.value.DoubleValue
2.479

@<SCITEGIC>MOL_PROPERTY
Valence
SciTegic.value.DoubleValue
3.655

@<SCITEGIC>MOL_PROPERTY
Coulomb
SciTegic.value.DoubleValue
45.884

@<SCITEGIC>MOL_PROPERTY
VdW
SciTegic.value.DoubleValue
0.784

@<SCITEGIC>MOL_PROPERTY
VdW6
SciTegic.value.DoubleValue
-9.261

@<SCITEGIC>MOL_PROPERTY
VdW12
SciTegic.value.DoubleValue
10.045

@<SCITEGIC>MOL_PROPERTY
Bond
SciTegic.value.DoubleValue
0.250

@<SCITEGIC>MOL_PROPERTY
Angle
SciTegic.value.DoubleValue
1.077

@<SCITEGIC>MOL_PROPERTY
Pdih
SciTegic.value.DoubleValue
2.328

@<SCITEGIC>MOL_PROPERTY
Idih
SciTegic.value.DoubleValue
0.000

@<SCITEGIC>MOL_PROPERTY
Tether
SciTegic.value.DoubleValue
0.000

@<TRIPOS>MOLECULE
guest-3_vm2.mol2 : vm2 ligand conformer 102
          29          28           1
SMALL
USER_CHARGES
 
@<TRIPOS>ATOM
       1    C1      21.368185   18.995748   20.896536 C.3        1 MOL1        -0.2427
       2    H1      21.644570   17.967573   21.163911 H          1 MOL1         0.0958
       3    H2      21.983393   19.296530   20.038648 H          1 MOL1         0.0958
       4    H3      21.629854   19.652031   21.735723 H          1 MOL1         0.0958
       5    C2      19.866248   19.093951   20.545469 C.3        1 MOL1        -0.1412
       6    H4      19.679244   18.519529   19.627420 H          1 MOL1         0.0947
       7    H5      19.608174   20.136728   20.313676 H          1 MOL1         0.0947
       8    C3      18.936914   18.560601   21.662318 C.3        1 MOL1        -0.1437
       9    H6      17.904455   18.562078   21.286473 H          1 MOL1         0.0947
      10    H7      19.186228   17.512381   21.877456 H          1 MOL1         0.0947
      11    C4      19.001639   19.390509   22.966755 C.3        1 MOL1        -0.1437
      12    H8      18.796056   20.445795   22.740893 H          1 MOL1         0.0947
      13    H9      20.016424   19.341785   23.380042 H          1 MOL1         0.0947
      14    C5      17.989293   18.880429   24.020129 C.3        1 MOL1        -0.1437
      15    H10     16.984819   18.868147   23.575011 H          1 MOL1         0.0947
      16    H11     18.218053   17.837809   24.278651 H          1 MOL1         0.0947
      17    C6      17.941536   19.747013   25.305149 C.3        1 MOL1        -0.1437
      18    H12     17.173688   19.338361   25.976583 H          1 MOL1         0.0947
      19    H13     17.605988   20.760113   25.043903 H          1 MOL1         0.0947
      20    C7      19.280844   19.844797   26.077276 C.3        1 MOL1        -0.1477
      21    H14     20.024845   20.380046   25.473651 H          1 MOL1         0.0947
      22    H15     19.125158   20.450118   26.980141 H          1 MOL1         0.0947
      23    C8      19.835893   18.467274   26.484170 C.3        1 MOL1         0.0145
      24    H16     20.033707   17.870575   25.589851 H          1 MOL1         0.0921
      25    H17     19.098830   17.939403   27.095238 H          1 MOL1         0.0921
      26    N1      21.123449   18.557678   27.277198 N.4        1 MOL1        -0.5969
      27    H18     21.867367   19.022130   26.746008 H          1 MOL1         0.3603
      28    H19     21.476063   17.630151   27.537869 H          1 MOL1         0.3603
      29    H20     20.999044   19.085275   28.147607 H          1 MOL1         0.3603
@<TRIPOS>BOND
    1     1     2    1
    2     1     3    1
    3     1     4    1
    4     1     5    1
    5     5     6    1
    6     5     7    1
    7     5     8    1
    8     8     9    1
    9     8    10    1
   10     8    11    1
   11    11    12    1
   12    11    13    1
   13    11    14    1
   14    14    15    1
   15    14    16    1
   16    14    17    1
   17    17    18    1
   18    17    19    1
   19    17    20    1
   20    20    21    1
   21    20    22    1
   22    20    23    1
   23    23    24    1
   24    23    25    1
   25    23    26    1
   26    26    27    1
   27    26    28    1
   28    26    29    1
@<TRIPOS>SUBSTRUCTURE
       1 MOL1            1 RESIDUE      1      MOL     
@<SCITEGIC>MOL_PROPERTY
VM2 Rank
SciTegic.value.IntegerValue
102

@<SCITEGIC>MOL_PROPERTY
Conf_Id
SciTegic.value.IntegerValue
574

@<SCITEGIC>MOL_PROPERTY
Probability
SciTegic.value.DoubleValue
0.30

@<SCITEGIC>MOL_PROPERTY
Sum Probability
SciTegic.value.DoubleValue
84.69

@<SCITEGIC>MOL_PROPERTY
Delta G
SciTegic.value.DoubleValue
1.718

@<SCITEGIC>MOL_PROPERTY
G
SciTegic.value.DoubleValue
59.866

@<SCITEGIC>MOL_PROPERTY
E
SciTegic.value.DoubleValue
22.228

@<SCITEGIC>MOL_PROPERTY
-TS
SciTegic.value.DoubleValue
37.638

@<SCITEGIC>MOL_PROPERTY
U+W
SciTegic.value.DoubleValue
-1.916

@<SCITEGIC>MOL_PROPERTY
U
SciTegic.value.DoubleValue
50.295

@<SCITEGIC>MOL_PROPERTY
W
SciTegic.value.DoubleValue
-52.212

@<SCITEGIC>MOL_PROPERTY
W(PB)
SciTegic.value.DoubleValue
-54.703

@<SCITEGIC>MOL_PROPERTY
W(SA)
SciTegic.value.DoubleValue
2.491

@<SCITEGIC>MOL_PROPERTY
Valence
SciTegic.value.DoubleValue
3.839

@<SCITEGIC>MOL_PROPERTY
Coulomb
SciTegic.value.DoubleValue
45.618

@<SCITEGIC>MOL_PROPERTY
VdW
SciTegic.value.DoubleValue
0.839

@<SCITEGIC>MOL_PROPERTY
VdW6
SciTegic.value.DoubleValue
-9.210

@<SCITEGIC>MOL_PROPERTY
VdW12
SciTegic.value.DoubleValue
10.049

@<SCITEGIC>MOL_PROPERTY
Bond
SciTegic.value.DoubleValue
0.249

@<SCITEGIC>MOL_PROPERTY
Angle
SciTegic.value.DoubleValue
1.131

@<SCITEGIC>MOL_PROPERTY
Pdih
SciTegic.value.DoubleValue
2.459

@<SCITEGIC>MOL_PROPERTY
Idih
SciTegic.value.DoubleValue
0.000

@<SCITEGIC>MOL_PROPERTY
Tether
SciTegic.value.DoubleValue
0.000

@<TRIPOS>MOLECULE
guest-3_vm2.mol2 : vm2 ligand conformer 103
          29          28           1
SMALL
USER_CHARGES
 
@<TRIPOS>ATOM
       1    C1      19.509117   19.093888   19.173115 C.3        1 MOL1        -0.2427
       2    H1      20.273093   19.867932   19.023285 H          1 MOL1         0.0958
       3    H2      19.927365   18.132739   18.846788 H          1 MOL1         0.0958
       4    H3      18.657975   19.329496   18.521128 H          1 MOL1         0.0958
       5    C2      19.063964   19.033214   20.649675 C.3        1 MOL1        -0.1412
       6    H4      18.280190   18.271235   20.762539 H          1 MOL1         0.0947
       7    H5      18.614531   19.996323   20.924861 H          1 MOL1         0.0947
       8    C3      20.249249   18.706783   21.588817 C.3        1 MOL1        -0.1437
       9    H6      20.733811   17.783976   21.241039 H          1 MOL1         0.0947
      10    H7      21.007941   19.498332   21.517793 H          1 MOL1         0.0947
      11    C4      19.836687   18.513911   23.069002 C.3        1 MOL1        -0.1437
      12    H8      20.712864   18.145926   23.617877 H          1 MOL1         0.0947
      13    H9      19.074396   17.725790   23.138169 H          1 MOL1         0.0947
      14    C5      19.313552   19.809656   23.739777 C.3        1 MOL1        -0.1437
      15    H10     20.075425   20.598057   23.668869 H          1 MOL1         0.0947
      16    H11     18.436454   20.177194   23.192087 H          1 MOL1         0.0947
      17    C6      18.903682   19.616003   25.220489 C.3        1 MOL1        -0.1437
      18    H12     18.139363   18.830055   25.285262 H          1 MOL1         0.0947
      19    H13     18.426908   20.541437   25.572410 H          1 MOL1         0.0947
      20    C7      20.093354   19.279940   26.154177 C.3        1 MOL1        -0.1477
      21    H14     20.520592   18.302624   25.897160 H          1 MOL1         0.0947
      22    H15     20.890564   20.021097   26.009621 H          1 MOL1         0.0947
      23    C8      19.693579   19.277529   27.642055 C.3        1 MOL1         0.0145
      24    H16     19.269171   20.248612   27.910854 H          1 MOL1         0.0921
      25    H17     20.582352   19.111390   28.256880 H          1 MOL1         0.0921
      26    N1      18.680817   18.207075   27.997894 N.4        1 MOL1        -0.5969
      27    H18     17.805807   18.325783   27.477759 H          1 MOL1         0.3603
      28    H19     18.442614   18.224792   28.995652 H          1 MOL1         0.3603
      29    H20     19.032318   17.266634   27.789955 H          1 MOL1         0.3603
@<TRIPOS>BOND
    1     1     2    1
    2     1     3    1
    3     1     4    1
    4     1     5    1
    5     5     6    1
    6     5     7    1
    7     5     8    1
    8     8     9    1
    9     8    10    1
   10     8    11    1
   11    11    12    1
   12    11    13    1
   13    11    14    1
   14    14    15    1
   15    14    16    1
   16    14    17    1
   17    17    18    1
   18    17    19    1
   19    17    20    1
   20    20    21    1
   21    20    22    1
   22    20    23    1
   23    23    24    1
   24    23    25    1
   25    23    26    1
   26    26    27    1
   27    26    28    1
   28    26    29    1
@<TRIPOS>SUBSTRUCTURE
       1 MOL1            1 RESIDUE      1      MOL     
@<SCITEGIC>MOL_PROPERTY
VM2 Rank
SciTegic.value.IntegerValue
103

@<SCITEGIC>MOL_PROPERTY
Conf_Id
SciTegic.value.IntegerValue
1973

@<SCITEGIC>MOL_PROPERTY
Probability
SciTegic.value.DoubleValue
0.30

@<SCITEGIC>MOL_PROPERTY
Sum Probability
SciTegic.value.DoubleValue
84.99

@<SCITEGIC>MOL_PROPERTY
Delta G
SciTegic.value.DoubleValue
1.719

@<SCITEGIC>MOL_PROPERTY
G
SciTegic.value.DoubleValue
59.867

@<SCITEGIC>MOL_PROPERTY
E
SciTegic.value.DoubleValue
22.429

@<SCITEGIC>MOL_PROPERTY
-TS
SciTegic.value.DoubleValue
37.438

@<SCITEGIC>MOL_PROPERTY
U+W
SciTegic.value.DoubleValue
-1.715

@<SCITEGIC>MOL_PROPERTY
U
SciTegic.value.DoubleValue
49.985

@<SCITEGIC>MOL_PROPERTY
W
SciTegic.value.DoubleValue
-51.700

@<SCITEGIC>MOL_PROPERTY
W(PB)
SciTegic.value.DoubleValue
-54.217

@<SCITEGIC>MOL_PROPERTY
W(SA)
SciTegic.value.DoubleValue
2.516

@<SCITEGIC>MOL_PROPERTY
Valence
SciTegic.value.DoubleValue
3.839

@<SCITEGIC>MOL_PROPERTY
Coulomb
SciTegic.value.DoubleValue
45.043

@<SCITEGIC>MOL_PROPERTY
VdW
SciTegic.value.DoubleValue
1.103

@<SCITEGIC>MOL_PROPERTY
VdW6
SciTegic.value.DoubleValue
-8.716

@<SCITEGIC>MOL_PROPERTY
VdW12
SciTegic.value.DoubleValue
9.819

@<SCITEGIC>MOL_PROPERTY
Bond
SciTegic.value.DoubleValue
0.253

@<SCITEGIC>MOL_PROPERTY
Angle
SciTegic.value.DoubleValue
0.991

@<SCITEGIC>MOL_PROPERTY
Pdih
SciTegic.value.DoubleValue
2.595

@<SCITEGIC>MOL_PROPERTY
Idih
SciTegic.value.DoubleValue
0.000

@<SCITEGIC>MOL_PROPERTY
Tether
SciTegic.value.DoubleValue
0.000

@<TRIPOS>MOLECULE
guest-3_vm2.mol2 : vm2 ligand conformer 104
          29          28           1
SMALL
USER_CHARGES
 
@<TRIPOS>ATOM
       1    C1      20.262329   19.082767   19.690369 C.3        1 MOL1        -0.2427
       2    H1      21.189387   19.580228   20.003598 H          1 MOL1         0.0958
       3    H2      20.353862   18.012479   19.913277 H          1 MOL1         0.0958
       4    H3      20.176594   19.187076   18.601019 H          1 MOL1         0.0958
       5    C2      19.033760   19.704905   20.391741 C.3        1 MOL1        -0.1412
       6    H4      18.123038   19.173487   20.082085 H          1 MOL1         0.0947
       7    H5      18.916519   20.742105   20.047929 H          1 MOL1         0.0947
       8    C3      19.142500   19.702057   21.935512 C.3        1 MOL1        -0.1437
       9    H6      20.039444   20.261107   22.232781 H          1 MOL1         0.0947
      10    H7      18.283454   20.249392   22.347252 H          1 MOL1         0.0947
      11    C4      19.175822   18.277985   22.545409 C.3        1 MOL1        -0.1437
      12    H8      20.093241   17.758324   22.239017 H          1 MOL1         0.0947
      13    H9      18.338235   17.694529   22.139110 H          1 MOL1         0.0947
      14    C5      19.077689   18.268635   24.090490 C.3        1 MOL1        -0.1437
      15    H10     18.143684   18.758722   24.396399 H          1 MOL1         0.0947
      16    H11     19.005035   17.225586   24.428154 H          1 MOL1         0.0947
      17    C6      20.286799   18.942390   24.787059 C.3        1 MOL1        -0.1437
      18    H12     20.314710   20.012820   24.543843 H          1 MOL1         0.0947
      19    H13     21.217444   18.508397   24.396236 H          1 MOL1         0.0947
      20    C7      20.267702   18.774544   26.324389 C.3        1 MOL1        -0.1477
      21    H14     20.275597   17.706433   26.579460 H          1 MOL1         0.0947
      22    H15     21.188053   19.204359   26.741689 H          1 MOL1         0.0947
      23    C8      19.051398   19.454531   26.980123 C.3        1 MOL1         0.0145
      24    H16     18.128742   19.005652   26.603350 H          1 MOL1         0.0921
      25    H17     19.044927   20.518583   26.728904 H          1 MOL1         0.0921
      26    N1      19.046003   19.330186   28.489907 N.4        1 MOL1        -0.5969
      27    H18     19.025506   18.350546   28.792179 H          1 MOL1         0.3603
      28    H19     18.228688   19.789086   28.907126 H          1 MOL1         0.3603
      29    H20     19.876778   19.758884   28.911237 H          1 MOL1         0.3603
@<TRIPOS>BOND
    1     1     2    1
    2     1     3    1
    3     1     4    1
    4     1     5    1
    5     5     6    1
    6     5     7    1
    7     5     8    1
    8     8     9    1
    9     8    10    1
   10     8    11    1
   11    11    12    1
   12    11    13    1
   13    11    14    1
   14    14    15    1
   15    14    16    1
   16    14    17    1
   17    17    18    1
   18    17    19    1
   19    17    20    1
   20    20    21    1
   21    20    22    1
   22    20    23    1
   23    23    24    1
   24    23    25    1
   25    23    26    1
   26    26    27    1
   27    26    28    1
   28    26    29    1
@<TRIPOS>SUBSTRUCTURE
       1 MOL1            1 RESIDUE      1      MOL     
@<SCITEGIC>MOL_PROPERTY
VM2 Rank
SciTegic.value.IntegerValue
104

@<SCITEGIC>MOL_PROPERTY
Conf_Id
SciTegic.value.IntegerValue
1498

@<SCITEGIC>MOL_PROPERTY
Probability
SciTegic.value.DoubleValue
0.30

@<SCITEGIC>MOL_PROPERTY
Sum Probability
SciTegic.value.DoubleValue
85.29

@<SCITEGIC>MOL_PROPERTY
Delta G
SciTegic.value.DoubleValue
1.726

@<SCITEGIC>MOL_PROPERTY
G
SciTegic.value.DoubleValue
59.874

@<SCITEGIC>MOL_PROPERTY
E
SciTegic.value.DoubleValue
22.343

@<SCITEGIC>MOL_PROPERTY
-TS
SciTegic.value.DoubleValue
37.530

@<SCITEGIC>MOL_PROPERTY
U+W
SciTegic.value.DoubleValue
-1.801

@<SCITEGIC>MOL_PROPERTY
U
SciTegic.value.DoubleValue
49.749

@<SCITEGIC>MOL_PROPERTY
W
SciTegic.value.DoubleValue
-51.550

@<SCITEGIC>MOL_PROPERTY
W(PB)
SciTegic.value.DoubleValue
-54.049

@<SCITEGIC>MOL_PROPERTY
W(SA)
SciTegic.value.DoubleValue
2.499

@<SCITEGIC>MOL_PROPERTY
Valence
SciTegic.value.DoubleValue
3.885

@<SCITEGIC>MOL_PROPERTY
Coulomb
SciTegic.value.DoubleValue
44.883

@<SCITEGIC>MOL_PROPERTY
VdW
SciTegic.value.DoubleValue
0.980

@<SCITEGIC>MOL_PROPERTY
VdW6
SciTegic.value.DoubleValue
-8.856

@<SCITEGIC>MOL_PROPERTY
VdW12
SciTegic.value.DoubleValue
9.836

@<SCITEGIC>MOL_PROPERTY
Bond
SciTegic.value.DoubleValue
0.242

@<SCITEGIC>MOL_PROPERTY
Angle
SciTegic.value.DoubleValue
0.947

@<SCITEGIC>MOL_PROPERTY
Pdih
SciTegic.value.DoubleValue
2.696

@<SCITEGIC>MOL_PROPERTY
Idih
SciTegic.value.DoubleValue
0.000

@<SCITEGIC>MOL_PROPERTY
Tether
SciTegic.value.DoubleValue
0.000

@<TRIPOS>MOLECULE
guest-3_vm2.mol2 : vm2 ligand conformer 105
          29          28           1
SMALL
USER_CHARGES
 
@<TRIPOS>ATOM
       1    C1      20.551650   18.355171   19.912329 C.3        1 MOL1        -0.2427
       2    H1      20.457573   17.556230   19.165421 H          1 MOL1         0.0958
       3    H2      20.478681   19.317029   19.388164 H          1 MOL1         0.0958
       4    H3      21.552294   18.283701   20.358233 H          1 MOL1         0.0958
       5    C2      19.453912   18.226109   20.989420 C.3        1 MOL1        -0.1412
       6    H4      19.531570   17.242366   21.473234 H          1 MOL1         0.0947
       7    H5      18.466031   18.266596   20.509527 H          1 MOL1         0.0947
       8    C3      19.563372   19.340186   22.053631 C.3        1 MOL1        -0.1437
       9    H6      20.556915   19.295131   22.518499 H          1 MOL1         0.0947
      10    H7      19.482679   20.321667   21.566507 H          1 MOL1         0.0947
      11    C4      18.466556   19.208957   23.137145 C.3        1 MOL1        -0.1437
      12    H8      18.564860   18.243568   23.650888 H          1 MOL1         0.0947
      13    H9      17.482508   19.191920   22.648760 H          1 MOL1         0.0947
      14    C5      18.477339   20.363830   24.171510 C.3        1 MOL1        -0.1437
      15    H10     18.271287   21.309016   23.650639 H          1 MOL1         0.0947
      16    H11     17.639795   20.222759   24.867894 H          1 MOL1         0.0947
      17    C6      19.794917   20.519176   24.977952 C.3        1 MOL1        -0.1437
      18    H12     19.669940   21.340546   25.697009 H          1 MOL1         0.0947
      19    H13     20.602933   20.836246   24.305354 H          1 MOL1         0.0947
      20    C7      20.241756   19.249049   25.743183 C.3        1 MOL1        -0.1477
      21    H14     20.490240   18.450404   25.032606 H          1 MOL1         0.0947
      22    H15     21.166447   19.472448   26.291610 H          1 MOL1         0.0947
      23    C8      19.175897   18.748366   26.735214 C.3        1 MOL1         0.0145
      24    H16     18.261993   18.488761   26.194562 H          1 MOL1         0.0921
      25    H17     18.939734   19.539542   27.451846 H          1 MOL1         0.0921
      26    N1      19.618601   17.527156   27.514616 N.4        1 MOL1        -0.5969
      27    H18     19.831044   16.736492   26.897365 H          1 MOL1         0.3603
      28    H19     18.894846   17.210069   28.169007 H          1 MOL1         0.3603
      29    H20     20.461250   17.713078   28.068512 H          1 MOL1         0.3603
@<TRIPOS>BOND
    1     1     2    1
    2     1     3    1
    3     1     4    1
    4     1     5    1
    5     5     6    1
    6     5     7    1
    7     5     8    1
    8     8     9    1
    9     8    10    1
   10     8    11    1
   11    11    12    1
   12    11    13    1
   13    11    14    1
   14    14    15    1
   15    14    16    1
   16    14    17    1
   17    17    18    1
   18    17    19    1
   19    17    20    1
   20    20    21    1
   21    20    22    1
   22    20    23    1
   23    23    24    1
   24    23    25    1
   25    23    26    1
   26    26    27    1
   27    26    28    1
   28    26    29    1
@<TRIPOS>SUBSTRUCTURE
       1 MOL1            1 RESIDUE      1      MOL     
@<SCITEGIC>MOL_PROPERTY
VM2 Rank
SciTegic.value.IntegerValue
105

@<SCITEGIC>MOL_PROPERTY
Conf_Id
SciTegic.value.IntegerValue
2302

@<SCITEGIC>MOL_PROPERTY
Probability
SciTegic.value.DoubleValue
0.30

@<SCITEGIC>MOL_PROPERTY
Sum Probability
SciTegic.value.DoubleValue
85.58

@<SCITEGIC>MOL_PROPERTY
Delta G
SciTegic.value.DoubleValue
1.728

@<SCITEGIC>MOL_PROPERTY
G
SciTegic.value.DoubleValue
59.876

@<SCITEGIC>MOL_PROPERTY
E
SciTegic.value.DoubleValue
21.997

@<SCITEGIC>MOL_PROPERTY
-TS
SciTegic.value.DoubleValue
37.880

@<SCITEGIC>MOL_PROPERTY
U+W
SciTegic.value.DoubleValue
-2.148

@<SCITEGIC>MOL_PROPERTY
U
SciTegic.value.DoubleValue
50.030

@<SCITEGIC>MOL_PROPERTY
W
SciTegic.value.DoubleValue
-52.177

@<SCITEGIC>MOL_PROPERTY
W(PB)
SciTegic.value.DoubleValue
-54.677

@<SCITEGIC>MOL_PROPERTY
W(SA)
SciTegic.value.DoubleValue
2.500

@<SCITEGIC>MOL_PROPERTY
Valence
SciTegic.value.DoubleValue
3.797

@<SCITEGIC>MOL_PROPERTY
Coulomb
SciTegic.value.DoubleValue
45.605

@<SCITEGIC>MOL_PROPERTY
VdW
SciTegic.value.DoubleValue
0.627

@<SCITEGIC>MOL_PROPERTY
VdW6
SciTegic.value.DoubleValue
-9.562

@<SCITEGIC>MOL_PROPERTY
VdW12
SciTegic.value.DoubleValue
10.189

@<SCITEGIC>MOL_PROPERTY
Bond
SciTegic.value.DoubleValue
0.257

@<SCITEGIC>MOL_PROPERTY
Angle
SciTegic.value.DoubleValue
1.236

@<SCITEGIC>MOL_PROPERTY
Pdih
SciTegic.value.DoubleValue
2.305

@<SCITEGIC>MOL_PROPERTY
Idih
SciTegic.value.DoubleValue
0.000

@<SCITEGIC>MOL_PROPERTY
Tether
SciTegic.value.DoubleValue
0.000

@<TRIPOS>MOLECULE
guest-3_vm2.mol2 : vm2 ligand conformer 106
          29          28           1
SMALL
USER_CHARGES
 
@<TRIPOS>ATOM
       1    C1      20.319696   19.325347   19.350595 C.3        1 MOL1        -0.2427
       2    H1      21.299248   19.687234   19.012146 H          1 MOL1         0.0958
       3    H2      20.211644   18.284465   19.018727 H          1 MOL1         0.0958
       4    H3      19.547938   19.925482   18.851138 H          1 MOL1         0.0958
       5    C2      20.199716   19.432829   20.885519 C.3        1 MOL1        -0.1412
       6    H4      20.341239   20.479337   21.189580 H          1 MOL1         0.0947
       7    H5      21.010371   18.854079   21.347788 H          1 MOL1         0.0947
       8    C3      18.827615   18.924175   21.386921 C.3        1 MOL1        -0.1437
       9    H6      18.030886   19.463696   20.856425 H          1 MOL1         0.0947
      10    H7      18.707888   17.863599   21.126062 H          1 MOL1         0.0947
      11    C4      18.617903   19.111508   22.909511 C.3        1 MOL1        -0.1437
      12    H8      17.586215   18.825606   23.156426 H          1 MOL1         0.0947
      13    H9      18.712761   20.177092   23.156067 H          1 MOL1         0.0947
      14    C5      19.595192   18.274230   23.772967 C.3        1 MOL1        -0.1437
      15    H10     19.582202   17.233828   23.420021 H          1 MOL1         0.0947
      16    H11     20.623253   18.635081   23.637406 H          1 MOL1         0.0947
      17    C6      19.249020   18.283966   25.282177 C.3        1 MOL1        -0.1437
      18    H12     19.915081   17.574142   25.790189 H          1 MOL1         0.0947
      19    H13     18.227206   17.907045   25.427890 H          1 MOL1         0.0947
      20    C7      19.388256   19.680698   25.937998 C.3        1 MOL1        -0.1477
      21    H14     20.400440   20.074093   25.775211 H          1 MOL1         0.0947
      22    H15     18.696108   20.385740   25.461136 H          1 MOL1         0.0947
      23    C8      19.081011   19.660991   27.447803 C.3        1 MOL1         0.0145
      24    H16     18.080811   19.252187   27.614737 H          1 MOL1         0.0921
      25    H17     19.100538   20.683453   27.834744 H          1 MOL1         0.0921
      26    N1      20.065591   18.844257   28.261508 N.4        1 MOL1        -0.5969
      27    H18     20.071699   17.860701   27.973837 H          1 MOL1         0.3603
      28    H19     19.840509   18.863317   29.262290 H          1 MOL1         0.3603
      29    H20     21.023928   19.195203   28.162964 H          1 MOL1         0.3603
@<TRIPOS>BOND
    1     1     2    1
    2     1     3    1
    3     1     4    1
    4     1     5    1
    5     5     6    1
    6     5     7    1
    7     5     8    1
    8     8     9    1
    9     8    10    1
   10     8    11    1
   11    11    12    1
   12    11    13    1
   13    11    14    1
   14    14    15    1
   15    14    16    1
   16    14    17    1
   17    17    18    1
   18    17    19    1
   19    17    20    1
   20    20    21    1
   21    20    22    1
   22    20    23    1
   23    23    24    1
   24    23    25    1
   25    23    26    1
   26    26    27    1
   27    26    28    1
   28    26    29    1
@<TRIPOS>SUBSTRUCTURE
       1 MOL1            1 RESIDUE      1      MOL     
@<SCITEGIC>MOL_PROPERTY
VM2 Rank
SciTegic.value.IntegerValue
106

@<SCITEGIC>MOL_PROPERTY
Conf_Id
SciTegic.value.IntegerValue
1969

@<SCITEGIC>MOL_PROPERTY
Probability
SciTegic.value.DoubleValue
0.29

@<SCITEGIC>MOL_PROPERTY
Sum Probability
SciTegic.value.DoubleValue
85.88

@<SCITEGIC>MOL_PROPERTY
Delta G
SciTegic.value.DoubleValue
1.730

@<SCITEGIC>MOL_PROPERTY
G
SciTegic.value.DoubleValue
59.878

@<SCITEGIC>MOL_PROPERTY
E
SciTegic.value.DoubleValue
22.375

@<SCITEGIC>MOL_PROPERTY
-TS
SciTegic.value.DoubleValue
37.503

@<SCITEGIC>MOL_PROPERTY
U+W
SciTegic.value.DoubleValue
-1.769

@<SCITEGIC>MOL_PROPERTY
U
SciTegic.value.DoubleValue
49.751

@<SCITEGIC>MOL_PROPERTY
W
SciTegic.value.DoubleValue
-51.520

@<SCITEGIC>MOL_PROPERTY
W(PB)
SciTegic.value.DoubleValue
-54.042

@<SCITEGIC>MOL_PROPERTY
W(SA)
SciTegic.value.DoubleValue
2.521

@<SCITEGIC>MOL_PROPERTY
Valence
SciTegic.value.DoubleValue
3.759

@<SCITEGIC>MOL_PROPERTY
Coulomb
SciTegic.value.DoubleValue
44.916

@<SCITEGIC>MOL_PROPERTY
VdW
SciTegic.value.DoubleValue
1.076

@<SCITEGIC>MOL_PROPERTY
VdW6
SciTegic.value.DoubleValue
-8.772

@<SCITEGIC>MOL_PROPERTY
VdW12
SciTegic.value.DoubleValue
9.848

@<SCITEGIC>MOL_PROPERTY
Bond
SciTegic.value.DoubleValue
0.248

@<SCITEGIC>MOL_PROPERTY
Angle
SciTegic.value.DoubleValue
0.934

@<SCITEGIC>MOL_PROPERTY
Pdih
SciTegic.value.DoubleValue
2.577

@<SCITEGIC>MOL_PROPERTY
Idih
SciTegic.value.DoubleValue
0.000

@<SCITEGIC>MOL_PROPERTY
Tether
SciTegic.value.DoubleValue
0.000

@<TRIPOS>MOLECULE
guest-3_vm2.mol2 : vm2 ligand conformer 107
          29          28           1
SMALL
USER_CHARGES
 
@<TRIPOS>ATOM
       1    C1      20.938573   18.170296   20.413848 C.3        1 MOL1        -0.2427
       2    H1      21.283421   17.131877   20.325709 H          1 MOL1         0.0958
       3    H2      20.605728   18.500125   19.421055 H          1 MOL1         0.0958
       4    H3      21.797469   18.787010   20.709097 H          1 MOL1         0.0958
       5    C2      19.797040   18.279430   21.446644 C.3        1 MOL1        -0.1412
       6    H4      20.155574   17.904395   22.414474 H          1 MOL1         0.0947
       7    H5      18.964842   17.630188   21.140830 H          1 MOL1         0.0947
       8    C3      19.296786   19.735871   21.591655 C.3        1 MOL1        -0.1437
       9    H6      20.117745   20.377613   21.937678 H          1 MOL1         0.0947
      10    H7      19.014996   20.116490   20.600244 H          1 MOL1         0.0947
      11    C4      18.074679   19.882211   22.534877 C.3        1 MOL1        -0.1437
      12    H8      17.226011   19.332311   22.105329 H          1 MOL1         0.0947
      13    H9      17.769145   20.937378   22.554774 H          1 MOL1         0.0947
      14    C5      18.297382   19.395891   23.990173 C.3        1 MOL1        -0.1437
      15    H10     17.365497   19.549446   24.551561 H          1 MOL1         0.0947
      16    H11     18.476666   18.313219   23.993645 H          1 MOL1         0.0947
      17    C6      19.450708   20.132637   24.716617 C.3        1 MOL1        -0.1437
      18    H12     19.296733   21.217168   24.631806 H          1 MOL1         0.0947
      19    H13     20.407757   19.913035   24.224965 H          1 MOL1         0.0947
      20    C7      19.556220   19.760189   26.213848 C.3        1 MOL1        -0.1477
      21    H14     20.335381   20.377241   26.680822 H          1 MOL1         0.0947
      22    H15     18.614278   20.004553   26.722764 H          1 MOL1         0.0947
      23    C8      19.892725   18.273291   26.432250 C.3        1 MOL1         0.0145
      24    H16     20.831711   18.030568   25.927518 H          1 MOL1         0.0921
      25    H17     19.102021   17.648716   26.008704 H          1 MOL1         0.0921
      26    N1      20.039886   17.908183   27.895088 N.4        1 MOL1        -0.5969
      27    H18     20.788876   18.442119   28.348293 H          1 MOL1         0.3603
      28    H19     20.263748   16.914656   28.019282 H          1 MOL1         0.3603
      29    H20     19.178964   18.088797   28.422025 H          1 MOL1         0.3603
@<TRIPOS>BOND
    1     1     2    1
    2     1     3    1
    3     1     4    1
    4     1     5    1
    5     5     6    1
    6     5     7    1
    7     5     8    1
    8     8     9    1
    9     8    10    1
   10     8    11    1
   11    11    12    1
   12    11    13    1
   13    11    14    1
   14    14    15    1
   15    14    16    1
   16    14    17    1
   17    17    18    1
   18    17    19    1
   19    17    20    1
   20    20    21    1
   21    20    22    1
   22    20    23    1
   23    23    24    1
   24    23    25    1
   25    23    26    1
   26    26    27    1
   27    26    28    1
   28    26    29    1
@<TRIPOS>SUBSTRUCTURE
       1 MOL1            1 RESIDUE      1      MOL     
@<SCITEGIC>MOL_PROPERTY
VM2 Rank
SciTegic.value.IntegerValue
107

@<SCITEGIC>MOL_PROPERTY
Conf_Id
SciTegic.value.IntegerValue
1812

@<SCITEGIC>MOL_PROPERTY
Probability
SciTegic.value.DoubleValue
0.29

@<SCITEGIC>MOL_PROPERTY
Sum Probability
SciTegic.value.DoubleValue
86.17

@<SCITEGIC>MOL_PROPERTY
Delta G
SciTegic.value.DoubleValue
1.740

@<SCITEGIC>MOL_PROPERTY
G
SciTegic.value.DoubleValue
59.888

@<SCITEGIC>MOL_PROPERTY
E
SciTegic.value.DoubleValue
22.148

@<SCITEGIC>MOL_PROPERTY
-TS
SciTegic.value.DoubleValue
37.739

@<SCITEGIC>MOL_PROPERTY
U+W
SciTegic.value.DoubleValue
-1.997

@<SCITEGIC>MOL_PROPERTY
U
SciTegic.value.DoubleValue
49.970

@<SCITEGIC>MOL_PROPERTY
W
SciTegic.value.DoubleValue
-51.966

@<SCITEGIC>MOL_PROPERTY
W(PB)
SciTegic.value.DoubleValue
-54.458

@<SCITEGIC>MOL_PROPERTY
W(SA)
SciTegic.value.DoubleValue
2.492

@<SCITEGIC>MOL_PROPERTY
Valence
SciTegic.value.DoubleValue
3.848

@<SCITEGIC>MOL_PROPERTY
Coulomb
SciTegic.value.DoubleValue
45.370

@<SCITEGIC>MOL_PROPERTY
VdW
SciTegic.value.DoubleValue
0.752

@<SCITEGIC>MOL_PROPERTY
VdW6
SciTegic.value.DoubleValue
-9.323

@<SCITEGIC>MOL_PROPERTY
VdW12
SciTegic.value.DoubleValue
10.075

@<SCITEGIC>MOL_PROPERTY
Bond
SciTegic.value.DoubleValue
0.251

@<SCITEGIC>MOL_PROPERTY
Angle
SciTegic.value.DoubleValue
1.161

@<SCITEGIC>MOL_PROPERTY
Pdih
SciTegic.value.DoubleValue
2.436

@<SCITEGIC>MOL_PROPERTY
Idih
SciTegic.value.DoubleValue
0.000

@<SCITEGIC>MOL_PROPERTY
Tether
SciTegic.value.DoubleValue
0.000

@<TRIPOS>MOLECULE
guest-3_vm2.mol2 : vm2 ligand conformer 108
          29          28           1
SMALL
USER_CHARGES
 
@<TRIPOS>ATOM
       1    C1      21.026257   18.036538   20.875279 C.3        1 MOL1        -0.2427
       2    H1      20.802089   17.330143   21.684087 H          1 MOL1         0.0958
       3    H2      21.324655   17.448721   19.997581 H          1 MOL1         0.0958
       4    H3      21.886742   18.646651   21.179176 H          1 MOL1         0.0958
       5    C2      19.805790   18.924213   20.541807 C.3        1 MOL1        -0.1412
       6    H4      18.949766   18.289816   20.272589 H          1 MOL1         0.0947
       7    H5      20.037153   19.523202   19.649938 H          1 MOL1         0.0947
       8    C3      19.407467   19.880331   21.691876 C.3        1 MOL1        -0.1437
       9    H6      20.260387   20.525125   21.944813 H          1 MOL1         0.0947
      10    H7      18.612163   20.546952   21.330847 H          1 MOL1         0.0947
      11    C4      18.914351   19.145716   22.961390 C.3        1 MOL1        -0.1437
      12    H8      19.725340   18.525388   23.361970 H          1 MOL1         0.0947
      13    H9      18.091029   18.468178   22.696835 H          1 MOL1         0.0947
      14    C5      18.437829   20.138808   24.048278 C.3        1 MOL1        -0.1437
      15    H10     19.270631   20.790598   24.344648 H          1 MOL1         0.0947
      16    H11     17.673849   20.801081   23.618182 H          1 MOL1         0.0947
      17    C6      17.834699   19.447678   25.298520 C.3        1 MOL1        -0.1437
      18    H12     16.937811   18.886463   25.002137 H          1 MOL1         0.0947
      19    H13     17.488960   20.222798   25.996417 H          1 MOL1         0.0947
      20    C7      18.799290   18.494454   26.047126 C.3        1 MOL1        -0.1477
      21    H14     18.283219   18.088892   26.927471 H          1 MOL1         0.0947
      22    H15     19.045470   17.633749   25.412325 H          1 MOL1         0.0947
      23    C8      20.094652   19.192980   26.500236 C.3        1 MOL1         0.0145
      24    H16     19.849090   20.043178   27.142245 H          1 MOL1         0.0921
      25    H17     20.637673   19.565058   25.627497 H          1 MOL1         0.0921
      26    N1      21.023664   18.277282   27.270488 N.4        1 MOL1        -0.5969
      27    H18     20.581501   17.913122   28.120972 H          1 MOL1         0.3603
      28    H19     21.879672   18.761511   27.562663 H          1 MOL1         0.3603
      29    H20     21.313586   17.468681   26.710663 H          1 MOL1         0.3603
@<TRIPOS>BOND
    1     1     2    1
    2     1     3    1
    3     1     4    1
    4     1     5    1
    5     5     6    1
    6     5     7    1
    7     5     8    1
    8     8     9    1
    9     8    10    1
   10     8    11    1
   11    11    12    1
   12    11    13    1
   13    11    14    1
   14    14    15    1
   15    14    16    1
   16    14    17    1
   17    17    18    1
   18    17    19    1
   19    17    20    1
   20    20    21    1
   21    20    22    1
   22    20    23    1
   23    23    24    1
   24    23    25    1
   25    23    26    1
   26    26    27    1
   27    26    28    1
   28    26    29    1
@<TRIPOS>SUBSTRUCTURE
       1 MOL1            1 RESIDUE      1      MOL     
@<SCITEGIC>MOL_PROPERTY
VM2 Rank
SciTegic.value.IntegerValue
108

@<SCITEGIC>MOL_PROPERTY
Conf_Id
SciTegic.value.IntegerValue
928

@<SCITEGIC>MOL_PROPERTY
Probability
SciTegic.value.DoubleValue
0.29

@<SCITEGIC>MOL_PROPERTY
Sum Probability
SciTegic.value.DoubleValue
86.46

@<SCITEGIC>MOL_PROPERTY
Delta G
SciTegic.value.DoubleValue
1.742

@<SCITEGIC>MOL_PROPERTY
G
SciTegic.value.DoubleValue
59.890

@<SCITEGIC>MOL_PROPERTY
E
SciTegic.value.DoubleValue
22.252

@<SCITEGIC>MOL_PROPERTY
-TS
SciTegic.value.DoubleValue
37.638

@<SCITEGIC>MOL_PROPERTY
U+W
SciTegic.value.DoubleValue
-1.893

@<SCITEGIC>MOL_PROPERTY
U
SciTegic.value.DoubleValue
50.296

@<SCITEGIC>MOL_PROPERTY
W
SciTegic.value.DoubleValue
-52.188

@<SCITEGIC>MOL_PROPERTY
W(PB)
SciTegic.value.DoubleValue
-54.691

@<SCITEGIC>MOL_PROPERTY
W(SA)
SciTegic.value.DoubleValue
2.502

@<SCITEGIC>MOL_PROPERTY
Valence
SciTegic.value.DoubleValue
3.839

@<SCITEGIC>MOL_PROPERTY
Coulomb
SciTegic.value.DoubleValue
45.618

@<SCITEGIC>MOL_PROPERTY
VdW
SciTegic.value.DoubleValue
0.839

@<SCITEGIC>MOL_PROPERTY
VdW6
SciTegic.value.DoubleValue
-9.211

@<SCITEGIC>MOL_PROPERTY
VdW12
SciTegic.value.DoubleValue
10.050

@<SCITEGIC>MOL_PROPERTY
Bond
SciTegic.value.DoubleValue
0.249

@<SCITEGIC>MOL_PROPERTY
Angle
SciTegic.value.DoubleValue
1.130

@<SCITEGIC>MOL_PROPERTY
Pdih
SciTegic.value.DoubleValue
2.459

@<SCITEGIC>MOL_PROPERTY
Idih
SciTegic.value.DoubleValue
0.000

@<SCITEGIC>MOL_PROPERTY
Tether
SciTegic.value.DoubleValue
0.000

@<TRIPOS>MOLECULE
guest-3_vm2.mol2 : vm2 ligand conformer 109
          29          28           1
SMALL
USER_CHARGES
 
@<TRIPOS>ATOM
       1    C1      21.222381   18.965051   20.431918 C.3        1 MOL1        -0.2427
       2    H1      21.492834   17.932925   20.690342 H          1 MOL1         0.0958
       3    H2      20.770157   18.959989   19.431579 H          1 MOL1         0.0958
       4    H3      22.147739   19.553311   20.380265 H          1 MOL1         0.0958
       5    C2      20.254832   19.562104   21.475497 C.3        1 MOL1        -0.1412
       6    H4      20.025769   20.602900   21.207422 H          1 MOL1         0.0947
       7    H5      20.755922   19.586875   22.452323 H          1 MOL1         0.0947
       8    C3      18.943828   18.746675   21.569582 C.3        1 MOL1        -0.1437
       9    H6      18.498943   18.669968   20.567901 H          1 MOL1         0.0947
      10    H7      19.168362   17.717190   21.878262 H          1 MOL1         0.0947
      11    C4      17.891649   19.369477   22.523350 C.3        1 MOL1        -0.1437
      12    H8      16.987122   18.746067   22.505646 H          1 MOL1         0.0947
      13    H9      17.588709   20.348772   22.127941 H          1 MOL1         0.0947
      14    C5      18.351075   19.546962   23.993528 C.3        1 MOL1        -0.1437
      15    H10     19.174959   20.270577   24.037431 H          1 MOL1         0.0947
      16    H11     17.524475   19.995714   24.561418 H          1 MOL1         0.0947
      17    C6      18.767344   18.218620   24.673900 C.3        1 MOL1        -0.1437
      18    H12     19.654085   17.802120   24.177809 H          1 MOL1         0.0947
      19    H13     17.962920   17.480861   24.548499 H          1 MOL1         0.0947
      20    C7      19.063726   18.380617   26.183028 C.3        1 MOL1        -0.1477
      21    H14     18.172805   18.767814   26.695183 H          1 MOL1         0.0947
      22    H15     19.269672   17.391887   26.614199 H          1 MOL1         0.0947
      23    C8      20.262328   19.308572   26.455162 C.3        1 MOL1         0.0145
      24    H16     20.051598   20.308703   26.067828 H          1 MOL1         0.0921
      25    H17     21.149851   18.921798   25.947154 H          1 MOL1         0.0921
      26    N1      20.586837   19.439924   27.929035 N.4        1 MOL1        -0.5969
      27    H18     19.798734   19.824395   28.460582 H          1 MOL1         0.3603
      28    H19     21.387247   20.061494   28.089136 H          1 MOL1         0.3603
      29    H20     20.822284   18.535114   28.350167 H          1 MOL1         0.3603
@<TRIPOS>BOND
    1     1     2    1
    2     1     3    1
    3     1     4    1
    4     1     5    1
    5     5     6    1
    6     5     7    1
    7     5     8    1
    8     8     9    1
    9     8    10    1
   10     8    11    1
   11    11    12    1
   12    11    13    1
   13    11    14    1
   14    14    15    1
   15    14    16    1
   16    14    17    1
   17    17    18    1
   18    17    19    1
   19    17    20    1
   20    20    21    1
   21    20    22    1
   22    20    23    1
   23    23    24    1
   24    23    25    1
   25    23    26    1
   26    26    27    1
   27    26    28    1
   28    26    29    1
@<TRIPOS>SUBSTRUCTURE
       1 MOL1            1 RESIDUE      1      MOL     
@<SCITEGIC>MOL_PROPERTY
VM2 Rank
SciTegic.value.IntegerValue
109

@<SCITEGIC>MOL_PROPERTY
Conf_Id
SciTegic.value.IntegerValue
1682

@<SCITEGIC>MOL_PROPERTY
Probability
SciTegic.value.DoubleValue
0.29

@<SCITEGIC>MOL_PROPERTY
Sum Probability
SciTegic.value.DoubleValue
86.75

@<SCITEGIC>MOL_PROPERTY
Delta G
SciTegic.value.DoubleValue
1.744

@<SCITEGIC>MOL_PROPERTY
G
SciTegic.value.DoubleValue
59.892

@<SCITEGIC>MOL_PROPERTY
E
SciTegic.value.DoubleValue
22.153

@<SCITEGIC>MOL_PROPERTY
-TS
SciTegic.value.DoubleValue
37.740

@<SCITEGIC>MOL_PROPERTY
U+W
SciTegic.value.DoubleValue
-1.992

@<SCITEGIC>MOL_PROPERTY
U
SciTegic.value.DoubleValue
49.970

@<SCITEGIC>MOL_PROPERTY
W
SciTegic.value.DoubleValue
-51.962

@<SCITEGIC>MOL_PROPERTY
W(PB)
SciTegic.value.DoubleValue
-54.437

@<SCITEGIC>MOL_PROPERTY
W(SA)
SciTegic.value.DoubleValue
2.476

@<SCITEGIC>MOL_PROPERTY
Valence
SciTegic.value.DoubleValue
3.848

@<SCITEGIC>MOL_PROPERTY
Coulomb
SciTegic.value.DoubleValue
45.370

@<SCITEGIC>MOL_PROPERTY
VdW
SciTegic.value.DoubleValue
0.752

@<SCITEGIC>MOL_PROPERTY
VdW6
SciTegic.value.DoubleValue
-9.323

@<SCITEGIC>MOL_PROPERTY
VdW12
SciTegic.value.DoubleValue
10.075

@<SCITEGIC>MOL_PROPERTY
Bond
SciTegic.value.DoubleValue
0.251

@<SCITEGIC>MOL_PROPERTY
Angle
SciTegic.value.DoubleValue
1.161

@<SCITEGIC>MOL_PROPERTY
Pdih
SciTegic.value.DoubleValue
2.436

@<SCITEGIC>MOL_PROPERTY
Idih
SciTegic.value.DoubleValue
0.000

@<SCITEGIC>MOL_PROPERTY
Tether
SciTegic.value.DoubleValue
0.000

@<TRIPOS>MOLECULE
guest-3_vm2.mol2 : vm2 ligand conformer 110
          29          28           1
SMALL
USER_CHARGES
 
@<TRIPOS>ATOM
       1    C1      20.339583   18.057663   19.906289 C.3        1 MOL1        -0.2427
       2    H1      19.453480   18.272401   19.294769 H          1 MOL1         0.0958
       3    H2      21.164345   18.686309   19.546020 H          1 MOL1         0.0958
       4    H3      20.617988   17.008919   19.739997 H          1 MOL1         0.0958
       5    C2      20.056807   18.315854   21.401370 C.3        1 MOL1        -0.1412
       6    H4      20.950356   18.064705   21.989721 H          1 MOL1         0.0947
       7    H5      19.256195   17.641967   21.733931 H          1 MOL1         0.0947
       8    C3      19.657780   19.787882   21.659894 C.3        1 MOL1        -0.1437
       9    H6      20.436297   20.446132   21.250148 H          1 MOL1         0.0947
      10    H7      18.735162   20.023643   21.111823 H          1 MOL1         0.0947
      11    C4      19.471385   20.123005   23.159854 C.3        1 MOL1        -0.1437
      12    H8      19.303346   21.204351   23.257440 H          1 MOL1         0.0947
      13    H9      20.404649   19.903930   23.695205 H          1 MOL1         0.0947
      14    C5      18.289385   19.367345   23.817689 C.3        1 MOL1        -0.1437
      15    H10     17.389719   19.504746   23.202205 H          1 MOL1         0.0947
      16    H11     18.489073   18.288368   23.827824 H          1 MOL1         0.0947
      17    C6      17.975222   19.849703   25.257315 C.3        1 MOL1        -0.1437
      18    H12     17.107389   19.291241   25.634668 H          1 MOL1         0.0947
      19    H13     17.665491   20.903378   25.224994 H          1 MOL1         0.0947
      20    C7      19.143946   19.699727   26.262747 C.3        1 MOL1        -0.1477
      21    H14     19.974054   20.357361   25.974800 H          1 MOL1         0.0947
      22    H15     18.807766   20.043217   27.250072 H          1 MOL1         0.0947
      23    C8      19.647402   18.249065   26.378624 C.3        1 MOL1         0.0145
      24    H16     20.022671   17.910427   25.409355 H          1 MOL1         0.0921
      25    H17     18.822824   17.596037   26.676851 H          1 MOL1         0.0921
      26    N1      20.762490   18.087755   27.391218 N.4        1 MOL1        -0.5969
      27    H18     21.580470   18.658107   27.152642 H          1 MOL1         0.3603
      28    H19     21.083323   17.115205   27.452836 H          1 MOL1         0.3603
      29    H20     20.465535   18.364460   28.332862 H          1 MOL1         0.3603
@<TRIPOS>BOND
    1     1     2    1
    2     1     3    1
    3     1     4    1
    4     1     5    1
    5     5     6    1
    6     5     7    1
    7     5     8    1
    8     8     9    1
    9     8    10    1
   10     8    11    1
   11    11    12    1
   12    11    13    1
   13    11    14    1
   14    14    15    1
   15    14    16    1
   16    14    17    1
   17    17    18    1
   18    17    19    1
   19    17    20    1
   20    20    21    1
   21    20    22    1
   22    20    23    1
   23    23    24    1
   24    23    25    1
   25    23    26    1
   26    26    27    1
   27    26    28    1
   28    26    29    1
@<TRIPOS>SUBSTRUCTURE
       1 MOL1            1 RESIDUE      1      MOL     
@<SCITEGIC>MOL_PROPERTY
VM2 Rank
SciTegic.value.IntegerValue
110

@<SCITEGIC>MOL_PROPERTY
Conf_Id
SciTegic.value.IntegerValue
1171

@<SCITEGIC>MOL_PROPERTY
Probability
SciTegic.value.DoubleValue
0.29

@<SCITEGIC>MOL_PROPERTY
Sum Probability
SciTegic.value.DoubleValue
87.03

@<SCITEGIC>MOL_PROPERTY
Delta G
SciTegic.value.DoubleValue
1.750

@<SCITEGIC>MOL_PROPERTY
G
SciTegic.value.DoubleValue
59.898

@<SCITEGIC>MOL_PROPERTY
E
SciTegic.value.DoubleValue
22.253

@<SCITEGIC>MOL_PROPERTY
-TS
SciTegic.value.DoubleValue
37.645

@<SCITEGIC>MOL_PROPERTY
U+W
SciTegic.value.DoubleValue
-1.891

@<SCITEGIC>MOL_PROPERTY
U
SciTegic.value.DoubleValue
50.347

@<SCITEGIC>MOL_PROPERTY
W
SciTegic.value.DoubleValue
-52.238

@<SCITEGIC>MOL_PROPERTY
W(PB)
SciTegic.value.DoubleValue
-54.725

@<SCITEGIC>MOL_PROPERTY
W(SA)
SciTegic.value.DoubleValue
2.487

@<SCITEGIC>MOL_PROPERTY
Valence
SciTegic.value.DoubleValue
3.843

@<SCITEGIC>MOL_PROPERTY
Coulomb
SciTegic.value.DoubleValue
45.716

@<SCITEGIC>MOL_PROPERTY
VdW
SciTegic.value.DoubleValue
0.787

@<SCITEGIC>MOL_PROPERTY
VdW6
SciTegic.value.DoubleValue
-9.277

@<SCITEGIC>MOL_PROPERTY
VdW12
SciTegic.value.DoubleValue
10.064

@<SCITEGIC>MOL_PROPERTY
Bond
SciTegic.value.DoubleValue
0.250

@<SCITEGIC>MOL_PROPERTY
Angle
SciTegic.value.DoubleValue
1.092

@<SCITEGIC>MOL_PROPERTY
Pdih
SciTegic.value.DoubleValue
2.501

@<SCITEGIC>MOL_PROPERTY
Idih
SciTegic.value.DoubleValue
0.000

@<SCITEGIC>MOL_PROPERTY
Tether
SciTegic.value.DoubleValue
0.000

@<TRIPOS>MOLECULE
guest-3_vm2.mol2 : vm2 ligand conformer 111
          29          28           1
SMALL
USER_CHARGES
 
@<TRIPOS>ATOM
       1    C1      20.885020   20.010780   20.847502 C.3        1 MOL1        -0.2427
       2    H1      20.349497   20.498428   20.022662 H          1 MOL1         0.0958
       3    H2      20.725529   20.601189   21.758391 H          1 MOL1         0.0958
       4    H3      21.957758   20.041768   20.617065 H          1 MOL1         0.0958
       5    C2      20.412384   18.550859   21.029840 C.3        1 MOL1        -0.1412
       6    H4      20.946313   18.090781   21.871998 H          1 MOL1         0.0947
       7    H5      20.699685   17.972507   20.140687 H          1 MOL1         0.0947
       8    C3      18.880954   18.419004   21.229691 C.3        1 MOL1        -0.1437
       9    H6      18.373407   18.769764   20.320594 H          1 MOL1         0.0947
      10    H7      18.626988   17.354221   21.323696 H          1 MOL1         0.0947
      11    C4      18.302306   19.184295   22.447833 C.3        1 MOL1        -0.1437
      12    H8      17.215139   19.027056   22.468762 H          1 MOL1         0.0947
      13    H9      18.448372   20.264457   22.315105 H          1 MOL1         0.0947
      14    C5      18.902836   18.737206   23.801980 C.3        1 MOL1        -0.1437
      15    H10     18.791644   17.649590   23.910566 H          1 MOL1         0.0947
      16    H11     19.978586   18.952585   23.814685 H          1 MOL1         0.0947
      17    C6      18.218632   19.448703   24.993699 C.3        1 MOL1        -0.1437
      18    H12     17.136355   19.263459   24.952564 H          1 MOL1         0.0947
      19    H13     18.351682   20.535679   24.902224 H          1 MOL1         0.0947
      20    C7      18.749912   18.977917   26.367891 C.3        1 MOL1        -0.1477
      21    H14     18.159501   19.456018   27.160837 H          1 MOL1         0.0947
      22    H15     18.597286   17.895328   26.471324 H          1 MOL1         0.0947
      23    C8      20.238403   19.313514   26.577283 C.3        1 MOL1         0.0145
      24    H16     20.390514   20.391360   26.474901 H          1 MOL1         0.0921
      25    H17     20.842568   18.806488   25.820609 H          1 MOL1         0.0921
      26    N1      20.753553   18.895722   27.939281 N.4        1 MOL1        -0.5969
      27    H18     21.745767   19.127723   28.059034 H          1 MOL1         0.3603
      28    H19     20.662668   17.885278   28.088336 H          1 MOL1         0.3603
      29    H20     20.244488   19.359949   28.698780 H          1 MOL1         0.3603
@<TRIPOS>BOND
    1     1     2    1
    2     1     3    1
    3     1     4    1
    4     1     5    1
    5     5     6    1
    6     5     7    1
    7     5     8    1
    8     8     9    1
    9     8    10    1
   10     8    11    1
   11    11    12    1
   12    11    13    1
   13    11    14    1
   14    14    15    1
   15    14    16    1
   16    14    17    1
   17    17    18    1
   18    17    19    1
   19    17    20    1
   20    20    21    1
   21    20    22    1
   22    20    23    1
   23    23    24    1
   24    23    25    1
   25    23    26    1
   26    26    27    1
   27    26    28    1
   28    26    29    1
@<TRIPOS>SUBSTRUCTURE
       1 MOL1            1 RESIDUE      1      MOL     
@<SCITEGIC>MOL_PROPERTY
VM2 Rank
SciTegic.value.IntegerValue
111

@<SCITEGIC>MOL_PROPERTY
Conf_Id
SciTegic.value.IntegerValue
2141

@<SCITEGIC>MOL_PROPERTY
Probability
SciTegic.value.DoubleValue
0.28

@<SCITEGIC>MOL_PROPERTY
Sum Probability
SciTegic.value.DoubleValue
87.31

@<SCITEGIC>MOL_PROPERTY
Delta G
SciTegic.value.DoubleValue
1.766

@<SCITEGIC>MOL_PROPERTY
G
SciTegic.value.DoubleValue
59.914

@<SCITEGIC>MOL_PROPERTY
E
SciTegic.value.DoubleValue
22.192

@<SCITEGIC>MOL_PROPERTY
-TS
SciTegic.value.DoubleValue
37.722

@<SCITEGIC>MOL_PROPERTY
U+W
SciTegic.value.DoubleValue
-1.952

@<SCITEGIC>MOL_PROPERTY
U
SciTegic.value.DoubleValue
49.868

@<SCITEGIC>MOL_PROPERTY
W
SciTegic.value.DoubleValue
-51.820

@<SCITEGIC>MOL_PROPERTY
W(PB)
SciTegic.value.DoubleValue
-54.293

@<SCITEGIC>MOL_PROPERTY
W(SA)
SciTegic.value.DoubleValue
2.472

@<SCITEGIC>MOL_PROPERTY
Valence
SciTegic.value.DoubleValue
3.839

@<SCITEGIC>MOL_PROPERTY
Coulomb
SciTegic.value.DoubleValue
45.178

@<SCITEGIC>MOL_PROPERTY
VdW
SciTegic.value.DoubleValue
0.851

@<SCITEGIC>MOL_PROPERTY
VdW6
SciTegic.value.DoubleValue
-9.167

@<SCITEGIC>MOL_PROPERTY
VdW12
SciTegic.value.DoubleValue
10.018

@<SCITEGIC>MOL_PROPERTY
Bond
SciTegic.value.DoubleValue
0.248

@<SCITEGIC>MOL_PROPERTY
Angle
SciTegic.value.DoubleValue
1.166

@<SCITEGIC>MOL_PROPERTY
Pdih
SciTegic.value.DoubleValue
2.425

@<SCITEGIC>MOL_PROPERTY
Idih
SciTegic.value.DoubleValue
0.000

@<SCITEGIC>MOL_PROPERTY
Tether
SciTegic.value.DoubleValue
0.000

@<TRIPOS>MOLECULE
guest-3_vm2.mol2 : vm2 ligand conformer 112
          29          28           1
SMALL
USER_CHARGES
 
@<TRIPOS>ATOM
       1    C1      20.132622   18.717565   19.682274 C.3        1 MOL1        -0.2427
       2    H1      20.875474   19.480583   19.946016 H          1 MOL1         0.0958
       3    H2      20.533838   17.734990   19.962608 H          1 MOL1         0.0958
       4    H3      20.015670   18.733800   18.590956 H          1 MOL1         0.0958
       5    C2      18.777090   18.982467   20.375611 C.3        1 MOL1        -0.1412
       6    H4      18.036822   18.266168   19.992655 H          1 MOL1         0.0947
       7    H5      18.409988   19.980974   20.100064 H          1 MOL1         0.0947
       8    C3      18.841470   18.854967   21.916602 C.3        1 MOL1        -0.1437
       9    H6      17.823925   18.956295   22.318351 H          1 MOL1         0.0947
      10    H7      19.180600   17.844211   22.178863 H          1 MOL1         0.0947
      11    C4      19.756901   19.913459   22.581917 C.3        1 MOL1        -0.1437
      12    H8      19.480732   20.910013   22.210888 H          1 MOL1         0.0947
      13    H9      20.800791   19.749720   22.283480 H          1 MOL1         0.0947
      14    C5      19.664890   19.921366   24.127380 C.3        1 MOL1        -0.1437
      15    H10     20.261589   20.762198   24.507115 H          1 MOL1         0.0947
      16    H11     18.626780   20.118460   24.426737 H          1 MOL1         0.0947
      17    C6      20.168318   18.609009   24.779589 C.3        1 MOL1        -0.1437
      18    H12     21.169618   18.373895   24.393176 H          1 MOL1         0.0947
      19    H13     19.518272   17.771447   24.493783 H          1 MOL1         0.0947
      20    C7      20.237752   18.690180   26.322479 C.3        1 MOL1        -0.1477
      21    H14     20.674679   17.759953   26.709387 H          1 MOL1         0.0947
      22    H15     20.914139   19.502729   26.619544 H          1 MOL1         0.0947
      23    C8      18.855984   18.904629   26.967845 C.3        1 MOL1         0.0145
      24    H16     18.183172   18.094241   26.674670 H          1 MOL1         0.0921
      25    H17     18.428775   19.849532   26.622310 H          1 MOL1         0.0921
      26    N1      18.908974   18.944358   28.481302 N.4        1 MOL1        -0.5969
      27    H18     19.277026   18.071292   28.873451 H          1 MOL1         0.3603
      28    H19     17.979554   19.087838   28.891492 H          1 MOL1         0.3603
      29    H20     19.506877   19.704335   28.822522 H          1 MOL1         0.3603
@<TRIPOS>BOND
    1     1     2    1
    2     1     3    1
    3     1     4    1
    4     1     5    1
    5     5     6    1
    6     5     7    1
    7     5     8    1
    8     8     9    1
    9     8    10    1
   10     8    11    1
   11    11    12    1
   12    11    13    1
   13    11    14    1
   14    14    15    1
   15    14    16    1
   16    14    17    1
   17    17    18    1
   18    17    19    1
   19    17    20    1
   20    20    21    1
   21    20    22    1
   22    20    23    1
   23    23    24    1
   24    23    25    1
   25    23    26    1
   26    26    27    1
   27    26    28    1
   28    26    29    1
@<TRIPOS>SUBSTRUCTURE
       1 MOL1            1 RESIDUE      1      MOL     
@<SCITEGIC>MOL_PROPERTY
VM2 Rank
SciTegic.value.IntegerValue
112

@<SCITEGIC>MOL_PROPERTY
Conf_Id
SciTegic.value.IntegerValue
1564

@<SCITEGIC>MOL_PROPERTY
Probability
SciTegic.value.DoubleValue
0.28

@<SCITEGIC>MOL_PROPERTY
Sum Probability
SciTegic.value.DoubleValue
87.59

@<SCITEGIC>MOL_PROPERTY
Delta G
SciTegic.value.DoubleValue
1.769

@<SCITEGIC>MOL_PROPERTY
G
SciTegic.value.DoubleValue
59.917

@<SCITEGIC>MOL_PROPERTY
E
SciTegic.value.DoubleValue
22.387

@<SCITEGIC>MOL_PROPERTY
-TS
SciTegic.value.DoubleValue
37.530

@<SCITEGIC>MOL_PROPERTY
U+W
SciTegic.value.DoubleValue
-1.758

@<SCITEGIC>MOL_PROPERTY
U
SciTegic.value.DoubleValue
49.749

@<SCITEGIC>MOL_PROPERTY
W
SciTegic.value.DoubleValue
-51.507

@<SCITEGIC>MOL_PROPERTY
W(PB)
SciTegic.value.DoubleValue
-54.006

@<SCITEGIC>MOL_PROPERTY
W(SA)
SciTegic.value.DoubleValue
2.499

@<SCITEGIC>MOL_PROPERTY
Valence
SciTegic.value.DoubleValue
3.885

@<SCITEGIC>MOL_PROPERTY
Coulomb
SciTegic.value.DoubleValue
44.883

@<SCITEGIC>MOL_PROPERTY
VdW
SciTegic.value.DoubleValue
0.981

@<SCITEGIC>MOL_PROPERTY
VdW6
SciTegic.value.DoubleValue
-8.856

@<SCITEGIC>MOL_PROPERTY
VdW12
SciTegic.value.DoubleValue
9.837

@<SCITEGIC>MOL_PROPERTY
Bond
SciTegic.value.DoubleValue
0.242

@<SCITEGIC>MOL_PROPERTY
Angle
SciTegic.value.DoubleValue
0.947

@<SCITEGIC>MOL_PROPERTY
Pdih
SciTegic.value.DoubleValue
2.696

@<SCITEGIC>MOL_PROPERTY
Idih
SciTegic.value.DoubleValue
0.000

@<SCITEGIC>MOL_PROPERTY
Tether
SciTegic.value.DoubleValue
0.000

@<TRIPOS>MOLECULE
guest-3_vm2.mol2 : vm2 ligand conformer 113
          29          28           1
SMALL
USER_CHARGES
 
@<TRIPOS>ATOM
       1    C1      20.837153   19.450958   19.937549 C.3        1 MOL1        -0.2427
       2    H1      21.082519   18.457107   19.540968 H          1 MOL1         0.0958
       3    H2      20.024108   19.870268   19.330602 H          1 MOL1         0.0958
       4    H3      21.718979   20.091980   19.809095 H          1 MOL1         0.0958
       5    C2      20.433622   19.371066   21.425052 C.3        1 MOL1        -0.1412
       6    H4      20.235972   20.385692   21.795412 H          1 MOL1         0.0947
       7    H5      21.275806   18.976110   22.010200 H          1 MOL1         0.0947
       8    C3      19.189146   18.475538   21.630538 C.3        1 MOL1        -0.1437
       9    H6      18.333632   18.899195   21.086662 H          1 MOL1         0.0947
      10    H7      19.380704   17.490057   21.183988 H          1 MOL1         0.0947
      11    C4      18.811430   18.274939   23.118495 C.3        1 MOL1        -0.1437
      12    H8      19.664817   17.832188   23.648853 H          1 MOL1         0.0947
      13    H9      17.995388   17.541521   23.175441 H          1 MOL1         0.0947
      14    C5      18.365719   19.581319   23.822483 C.3        1 MOL1        -0.1437
      15    H10     19.203208   20.288618   23.872568 H          1 MOL1         0.0947
      16    H11     17.591136   20.069086   23.214861 H          1 MOL1         0.0947
      17    C6      17.796852   19.350190   25.246160 C.3        1 MOL1        -0.1437
      18    H12     16.890533   18.732986   25.176480 H          1 MOL1         0.0947
      19    H13     17.473399   20.316352   25.657640 H          1 MOL1         0.0947
      20    C7      18.782140   18.686356   26.240058 C.3        1 MOL1        -0.1477
      21    H14     18.290548   18.594483   27.217661 H          1 MOL1         0.0947
      22    H15     19.012339   17.663855   25.914522 H          1 MOL1         0.0947
      23    C8      20.088540   19.484501   26.406193 C.3        1 MOL1         0.0145
      24    H16     19.859547   20.499535   26.741725 H          1 MOL1         0.0921
      25    H17     20.607058   19.547151   25.445880 H          1 MOL1         0.0921
      26    N1      21.039397   18.863132   27.408473 N.4        1 MOL1        -0.5969
      27    H18     20.621101   18.799891   28.342535 H          1 MOL1         0.3603
      28    H19     21.902539   19.409429   27.504012 H          1 MOL1         0.3603
      29    H20     21.314773   17.913820   27.135915 H          1 MOL1         0.3603
@<TRIPOS>BOND
    1     1     2    1
    2     1     3    1
    3     1     4    1
    4     1     5    1
    5     5     6    1
    6     5     7    1
    7     5     8    1
    8     8     9    1
    9     8    10    1
   10     8    11    1
   11    11    12    1
   12    11    13    1
   13    11    14    1
   14    14    15    1
   15    14    16    1
   16    14    17    1
   17    17    18    1
   18    17    19    1
   19    17    20    1
   20    20    21    1
   21    20    22    1
   22    20    23    1
   23    23    24    1
   24    23    25    1
   25    23    26    1
   26    26    27    1
   27    26    28    1
   28    26    29    1
@<TRIPOS>SUBSTRUCTURE
       1 MOL1            1 RESIDUE      1      MOL     
@<SCITEGIC>MOL_PROPERTY
VM2 Rank
SciTegic.value.IntegerValue
113

@<SCITEGIC>MOL_PROPERTY
Conf_Id
SciTegic.value.IntegerValue
1173

@<SCITEGIC>MOL_PROPERTY
Probability
SciTegic.value.DoubleValue
0.28

@<SCITEGIC>MOL_PROPERTY
Sum Probability
SciTegic.value.DoubleValue
87.86

@<SCITEGIC>MOL_PROPERTY
Delta G
SciTegic.value.DoubleValue
1.770

@<SCITEGIC>MOL_PROPERTY
G
SciTegic.value.DoubleValue
59.918

@<SCITEGIC>MOL_PROPERTY
E
SciTegic.value.DoubleValue
22.273

@<SCITEGIC>MOL_PROPERTY
-TS
SciTegic.value.DoubleValue
37.645

@<SCITEGIC>MOL_PROPERTY
U+W
SciTegic.value.DoubleValue
-1.872

@<SCITEGIC>MOL_PROPERTY
U
SciTegic.value.DoubleValue
50.347

@<SCITEGIC>MOL_PROPERTY
W
SciTegic.value.DoubleValue
-52.218

@<SCITEGIC>MOL_PROPERTY
W(PB)
SciTegic.value.DoubleValue
-54.718

@<SCITEGIC>MOL_PROPERTY
W(SA)
SciTegic.value.DoubleValue
2.499

@<SCITEGIC>MOL_PROPERTY
Valence
SciTegic.value.DoubleValue
3.843

@<SCITEGIC>MOL_PROPERTY
Coulomb
SciTegic.value.DoubleValue
45.716

@<SCITEGIC>MOL_PROPERTY
VdW
SciTegic.value.DoubleValue
0.787

@<SCITEGIC>MOL_PROPERTY
VdW6
SciTegic.value.DoubleValue
-9.277

@<SCITEGIC>MOL_PROPERTY
VdW12
SciTegic.value.DoubleValue
10.064

@<SCITEGIC>MOL_PROPERTY
Bond
SciTegic.value.DoubleValue
0.250

@<SCITEGIC>MOL_PROPERTY
Angle
SciTegic.value.DoubleValue
1.092

@<SCITEGIC>MOL_PROPERTY
Pdih
SciTegic.value.DoubleValue
2.500

@<SCITEGIC>MOL_PROPERTY
Idih
SciTegic.value.DoubleValue
0.000

@<SCITEGIC>MOL_PROPERTY
Tether
SciTegic.value.DoubleValue
0.000

@<TRIPOS>MOLECULE
guest-3_vm2.mol2 : vm2 ligand conformer 114
          29          28           1
SMALL
USER_CHARGES
 
@<TRIPOS>ATOM
       1    C1      19.790677   18.757325   19.160713 C.3        1 MOL1        -0.2427
       2    H1      19.282672   18.018010   18.527954 H          1 MOL1         0.0958
       3    H2      19.625091   19.748819   18.719402 H          1 MOL1         0.0958
       4    H3      20.867280   18.544649   19.129923 H          1 MOL1         0.0958
       5    C2      19.255031   18.696630   20.606908 C.3        1 MOL1        -0.1412
       6    H4      19.400779   17.680862   20.997099 H          1 MOL1         0.0947
       7    H5      18.172299   18.884584   20.602201 H          1 MOL1         0.0947
       8    C3      19.960488   19.727940   21.519174 C.3        1 MOL1        -0.1437
       9    H6      21.035297   19.505435   21.569038 H          1 MOL1         0.0947
      10    H7      19.873244   20.723566   21.062612 H          1 MOL1         0.0947
      11    C4      19.376751   19.794962   22.952090 C.3        1 MOL1        -0.1437
      12    H8      18.300809   20.011091   22.900548 H          1 MOL1         0.0947
      13    H9      19.839512   20.648039   23.464079 H          1 MOL1         0.0947
      14    C5      19.613369   18.504598   23.777907 C.3        1 MOL1        -0.1437
      15    H10     19.152215   17.652274   23.262933 H          1 MOL1         0.0947
      16    H11     20.689386   18.288953   23.830350 H          1 MOL1         0.0947
      17    C6      19.026763   18.568058   25.209893 C.3        1 MOL1        -0.1437
      18    H12     19.103993   17.566662   25.653509 H          1 MOL1         0.0947
      19    H13     17.954065   18.800586   25.158264 H          1 MOL1         0.0947
      20    C7      19.740014   19.591278   26.129332 C.3        1 MOL1        -0.1477
      21    H14     20.817436   19.381784   26.161628 H          1 MOL1         0.0947
      22    H15     19.628143   20.602531   25.719669 H          1 MOL1         0.0947
      23    C8      19.174508   19.596117   27.562739 C.3        1 MOL1         0.0145
      24    H16     18.097831   19.783962   27.533223 H          1 MOL1         0.0921
      25    H17     19.645394   20.400063   28.134993 H          1 MOL1         0.0921
      26    N1      19.406400   18.301091   28.316245 N.4        1 MOL1        -0.5969
      27    H18     20.404653   18.081244   28.396583 H          1 MOL1         0.3603
      28    H19     18.957176   17.505903   27.851445 H          1 MOL1         0.3603
      29    H20     19.030757   18.343124   29.270039 H          1 MOL1         0.3603
@<TRIPOS>BOND
    1     1     2    1
    2     1     3    1
    3     1     4    1
    4     1     5    1
    5     5     6    1
    6     5     7    1
    7     5     8    1
    8     8     9    1
    9     8    10    1
   10     8    11    1
   11    11    12    1
   12    11    13    1
   13    11    14    1
   14    14    15    1
   15    14    16    1
   16    14    17    1
   17    17    18    1
   18    17    19    1
   19    17    20    1
   20    20    21    1
   21    20    22    1
   22    20    23    1
   23    23    24    1
   24    23    25    1
   25    23    26    1
   26    26    27    1
   27    26    28    1
   28    26    29    1
@<TRIPOS>SUBSTRUCTURE
       1 MOL1            1 RESIDUE      1      MOL     
@<SCITEGIC>MOL_PROPERTY
VM2 Rank
SciTegic.value.IntegerValue
114

@<SCITEGIC>MOL_PROPERTY
Conf_Id
SciTegic.value.IntegerValue
2477

@<SCITEGIC>MOL_PROPERTY
Probability
SciTegic.value.DoubleValue
0.27

@<SCITEGIC>MOL_PROPERTY
Sum Probability
SciTegic.value.DoubleValue
88.13

@<SCITEGIC>MOL_PROPERTY
Delta G
SciTegic.value.DoubleValue
1.791

@<SCITEGIC>MOL_PROPERTY
G
SciTegic.value.DoubleValue
59.939

@<SCITEGIC>MOL_PROPERTY
E
SciTegic.value.DoubleValue
22.549

@<SCITEGIC>MOL_PROPERTY
-TS
SciTegic.value.DoubleValue
37.391

@<SCITEGIC>MOL_PROPERTY
U+W
SciTegic.value.DoubleValue
-1.596

@<SCITEGIC>MOL_PROPERTY
U
SciTegic.value.DoubleValue
49.901

@<SCITEGIC>MOL_PROPERTY
W
SciTegic.value.DoubleValue
-51.496

@<SCITEGIC>MOL_PROPERTY
W(PB)
SciTegic.value.DoubleValue
-54.002

@<SCITEGIC>MOL_PROPERTY
W(SA)
SciTegic.value.DoubleValue
2.505

@<SCITEGIC>MOL_PROPERTY
Valence
SciTegic.value.DoubleValue
3.877

@<SCITEGIC>MOL_PROPERTY
Coulomb
SciTegic.value.DoubleValue
44.864

@<SCITEGIC>MOL_PROPERTY
VdW
SciTegic.value.DoubleValue
1.159

@<SCITEGIC>MOL_PROPERTY
VdW6
SciTegic.value.DoubleValue
-8.668

@<SCITEGIC>MOL_PROPERTY
VdW12
SciTegic.value.DoubleValue
9.827

@<SCITEGIC>MOL_PROPERTY
Bond
SciTegic.value.DoubleValue
0.259

@<SCITEGIC>MOL_PROPERTY
Angle
SciTegic.value.DoubleValue
1.041

@<SCITEGIC>MOL_PROPERTY
Pdih
SciTegic.value.DoubleValue
2.578

@<SCITEGIC>MOL_PROPERTY
Idih
SciTegic.value.DoubleValue
0.000

@<SCITEGIC>MOL_PROPERTY
Tether
SciTegic.value.DoubleValue
0.000

@<TRIPOS>MOLECULE
guest-3_vm2.mol2 : vm2 ligand conformer 115
          29          28           1
SMALL
USER_CHARGES
 
@<TRIPOS>ATOM
       1    C1      20.009699   17.558583   20.792449 C.3        1 MOL1        -0.2427
       2    H1      20.823725   16.864826   20.545686 H          1 MOL1         0.0958
       3    H2      19.499687   17.166792   21.681339 H          1 MOL1         0.0958
       4    H3      19.298164   17.553308   19.956603 H          1 MOL1         0.0958
       5    C2      20.565299   18.979266   21.039379 C.3        1 MOL1        -0.1412
       6    H4      21.166363   19.279953   20.169934 H          1 MOL1         0.0947
       7    H5      21.257853   18.963556   21.891497 H          1 MOL1         0.0947
       8    C3      19.460479   20.042561   21.266043 C.3        1 MOL1        -0.1437
       9    H6      19.936490   21.022845   21.405887 H          1 MOL1         0.0947
      10    H7      18.858470   20.128738   20.351028 H          1 MOL1         0.0947
      11    C4      18.510926   19.768662   22.460907 C.3        1 MOL1        -0.1437
      12    H8      17.942252   18.846285   22.283331 H          1 MOL1         0.0947
      13    H9      17.768560   20.577474   22.503473 H          1 MOL1         0.0947
      14    C5      19.239568   19.680514   23.823092 C.3        1 MOL1        -0.1437
      15    H10     19.935813   18.832629   23.811995 H          1 MOL1         0.0947
      16    H11     19.840309   20.587535   23.976344 H          1 MOL1         0.0947
      17    C6      18.242714   19.516090   24.995186 C.3        1 MOL1        -0.1437
      18    H12     17.659167   18.594970   24.858815 H          1 MOL1         0.0947
      19    H13     17.522648   20.345846   24.976683 H          1 MOL1         0.0947
      20    C7      18.932427   19.489515   26.379341 C.3        1 MOL1        -0.1477
      21    H14     19.497818   20.419188   26.527780 H          1 MOL1         0.0947
      22    H15     18.161538   19.461950   27.160942 H          1 MOL1         0.0947
      23    C8      19.869511   18.279824   26.554251 C.3        1 MOL1         0.0145
      24    H16     20.668832   18.319614   25.809839 H          1 MOL1         0.0921
      25    H17     19.306712   17.354100   26.407067 H          1 MOL1         0.0921
      26    N1      20.513376   18.222984   27.924352 N.4        1 MOL1        -0.5969
      27    H18     21.080282   19.055987   28.114617 H          1 MOL1         0.3603
      28    H19     21.133048   17.410977   28.020824 H          1 MOL1         0.3603
      29    H20     19.814720   18.156032   28.671941 H          1 MOL1         0.3603
@<TRIPOS>BOND
    1     1     2    1
    2     1     3    1
    3     1     4    1
    4     1     5    1
    5     5     6    1
    6     5     7    1
    7     5     8    1
    8     8     9    1
    9     8    10    1
   10     8    11    1
   11    11    12    1
   12    11    13    1
   13    11    14    1
   14    14    15    1
   15    14    16    1
   16    14    17    1
   17    17    18    1
   18    17    19    1
   19    17    20    1
   20    20    21    1
   21    20    22    1
   22    20    23    1
   23    23    24    1
   24    23    25    1
   25    23    26    1
   26    26    27    1
   27    26    28    1
   28    26    29    1
@<TRIPOS>SUBSTRUCTURE
       1 MOL1            1 RESIDUE      1      MOL     
@<SCITEGIC>MOL_PROPERTY
VM2 Rank
SciTegic.value.IntegerValue
115

@<SCITEGIC>MOL_PROPERTY
Conf_Id
SciTegic.value.IntegerValue
1803

@<SCITEGIC>MOL_PROPERTY
Probability
SciTegic.value.DoubleValue
0.26

@<SCITEGIC>MOL_PROPERTY
Sum Probability
SciTegic.value.DoubleValue
88.39

@<SCITEGIC>MOL_PROPERTY
Delta G
SciTegic.value.DoubleValue
1.813

@<SCITEGIC>MOL_PROPERTY
G
SciTegic.value.DoubleValue
59.961

@<SCITEGIC>MOL_PROPERTY
E
SciTegic.value.DoubleValue
22.239

@<SCITEGIC>MOL_PROPERTY
-TS
SciTegic.value.DoubleValue
37.722

@<SCITEGIC>MOL_PROPERTY
U+W
SciTegic.value.DoubleValue
-1.905

@<SCITEGIC>MOL_PROPERTY
U
SciTegic.value.DoubleValue
49.868

@<SCITEGIC>MOL_PROPERTY
W
SciTegic.value.DoubleValue
-51.773

@<SCITEGIC>MOL_PROPERTY
W(PB)
SciTegic.value.DoubleValue
-54.278

@<SCITEGIC>MOL_PROPERTY
W(SA)
SciTegic.value.DoubleValue
2.505

@<SCITEGIC>MOL_PROPERTY
Valence
SciTegic.value.DoubleValue
3.839

@<SCITEGIC>MOL_PROPERTY
Coulomb
SciTegic.value.DoubleValue
45.178

@<SCITEGIC>MOL_PROPERTY
VdW
SciTegic.value.DoubleValue
0.851

@<SCITEGIC>MOL_PROPERTY
VdW6
SciTegic.value.DoubleValue
-9.167

@<SCITEGIC>MOL_PROPERTY
VdW12
SciTegic.value.DoubleValue
10.018

@<SCITEGIC>MOL_PROPERTY
Bond
SciTegic.value.DoubleValue
0.248

@<SCITEGIC>MOL_PROPERTY
Angle
SciTegic.value.DoubleValue
1.166

@<SCITEGIC>MOL_PROPERTY
Pdih
SciTegic.value.DoubleValue
2.425

@<SCITEGIC>MOL_PROPERTY
Idih
SciTegic.value.DoubleValue
0.000

@<SCITEGIC>MOL_PROPERTY
Tether
SciTegic.value.DoubleValue
0.000

@<TRIPOS>MOLECULE
guest-3_vm2.mol2 : vm2 ligand conformer 116
          29          28           1
SMALL
USER_CHARGES
 
@<TRIPOS>ATOM
       1    C1      21.356938   18.996582   20.985037 C.3        1 MOL1        -0.2427
       2    H1      21.890306   19.548901   21.769550 H          1 MOL1         0.0958
       3    H2      21.294410   17.943799   21.287076 H          1 MOL1         0.0958
       4    H3      21.962861   19.042250   20.070883 H          1 MOL1         0.0958
       5    C2      19.955877   19.599435   20.735814 C.3        1 MOL1        -0.1412
       6    H4      19.432176   19.013282   19.967798 H          1 MOL1         0.0947
       7    H5      20.073599   20.611272   20.323452 H          1 MOL1         0.0947
       8    C3      19.088251   19.681801   22.014519 C.3        1 MOL1        -0.1437
       9    H6      19.611977   20.289495   22.764102 H          1 MOL1         0.0947
      10    H7      18.159149   20.216427   21.773776 H          1 MOL1         0.0947
      11    C4      18.734497   18.294352   22.606507 C.3        1 MOL1        -0.1437
      12    H8      19.644805   17.783586   22.944308 H          1 MOL1         0.0947
      13    H9      18.311158   17.664380   21.812247 H          1 MOL1         0.0947
      14    C5      17.713892   18.362690   23.771761 C.3        1 MOL1        -0.1437
      15    H10     16.762212   18.756294   23.388948 H          1 MOL1         0.0947
      16    H11     17.499960   17.340609   24.113434 H          1 MOL1         0.0947
      17    C6      18.153025   19.218060   24.988367 C.3        1 MOL1        -0.1437
      18    H12     17.350420   19.190130   25.738418 H          1 MOL1         0.0947
      19    H13     18.251061   20.270813   24.691627 H          1 MOL1         0.0947
      20    C7      19.468448   18.734957   25.642653 C.3        1 MOL1        -0.1477
      21    H14     19.383312   17.671355   25.902093 H          1 MOL1         0.0947
      22    H15     20.299822   18.830469   24.932708 H          1 MOL1         0.0947
      23    C8      19.795132   19.546352   26.908413 C.3        1 MOL1         0.0145
      24    H16     18.981642   19.443819   27.631703 H          1 MOL1         0.0921
      25    H17     19.896342   20.604292   26.651611 H          1 MOL1         0.0921
      26    N1      21.077940   19.103770   27.581930 N.4        1 MOL1        -0.5969
      27    H18     21.036853   18.121377   27.872967 H          1 MOL1         0.3603
      28    H19     21.276588   19.656606   28.423123 H          1 MOL1         0.3603
      29    H20     21.888500   19.201684   26.961602 H          1 MOL1         0.3603
@<TRIPOS>BOND
    1     1     2    1
    2     1     3    1
    3     1     4    1
    4     1     5    1
    5     5     6    1
    6     5     7    1
    7     5     8    1
    8     8     9    1
    9     8    10    1
   10     8    11    1
   11    11    12    1
   12    11    13    1
   13    11    14    1
   14    14    15    1
   15    14    16    1
   16    14    17    1
   17    17    18    1
   18    17    19    1
   19    17    20    1
   20    20    21    1
   21    20    22    1
   22    20    23    1
   23    23    24    1
   24    23    25    1
   25    23    26    1
   26    26    27    1
   27    26    28    1
   28    26    29    1
@<TRIPOS>SUBSTRUCTURE
       1 MOL1            1 RESIDUE      1      MOL     
@<SCITEGIC>MOL_PROPERTY
VM2 Rank
SciTegic.value.IntegerValue
116

@<SCITEGIC>MOL_PROPERTY
Conf_Id
SciTegic.value.IntegerValue
1023

@<SCITEGIC>MOL_PROPERTY
Probability
SciTegic.value.DoubleValue
0.25

@<SCITEGIC>MOL_PROPERTY
Sum Probability
SciTegic.value.DoubleValue
88.64

@<SCITEGIC>MOL_PROPERTY
Delta G
SciTegic.value.DoubleValue
1.820

@<SCITEGIC>MOL_PROPERTY
G
SciTegic.value.DoubleValue
59.968

@<SCITEGIC>MOL_PROPERTY
E
SciTegic.value.DoubleValue
22.203

@<SCITEGIC>MOL_PROPERTY
-TS
SciTegic.value.DoubleValue
37.765

@<SCITEGIC>MOL_PROPERTY
U+W
SciTegic.value.DoubleValue
-1.941

@<SCITEGIC>MOL_PROPERTY
U
SciTegic.value.DoubleValue
50.163

@<SCITEGIC>MOL_PROPERTY
W
SciTegic.value.DoubleValue
-52.104

@<SCITEGIC>MOL_PROPERTY
W(PB)
SciTegic.value.DoubleValue
-54.562

@<SCITEGIC>MOL_PROPERTY
W(SA)
SciTegic.value.DoubleValue
2.458

@<SCITEGIC>MOL_PROPERTY
Valence
SciTegic.value.DoubleValue
4.032

@<SCITEGIC>MOL_PROPERTY
Coulomb
SciTegic.value.DoubleValue
45.327

@<SCITEGIC>MOL_PROPERTY
VdW
SciTegic.value.DoubleValue
0.804

@<SCITEGIC>MOL_PROPERTY
VdW6
SciTegic.value.DoubleValue
-9.390

@<SCITEGIC>MOL_PROPERTY
VdW12
SciTegic.value.DoubleValue
10.194

@<SCITEGIC>MOL_PROPERTY
Bond
SciTegic.value.DoubleValue
0.264

@<SCITEGIC>MOL_PROPERTY
Angle
SciTegic.value.DoubleValue
1.252

@<SCITEGIC>MOL_PROPERTY
Pdih
SciTegic.value.DoubleValue
2.516

@<SCITEGIC>MOL_PROPERTY
Idih
SciTegic.value.DoubleValue
0.000

@<SCITEGIC>MOL_PROPERTY
Tether
SciTegic.value.DoubleValue
0.000

@<TRIPOS>MOLECULE
guest-3_vm2.mol2 : vm2 ligand conformer 117
          29          28           1
SMALL
USER_CHARGES
 
@<TRIPOS>ATOM
       1    C1      19.032874   18.224150   19.754443 C.3        1 MOL1        -0.2427
       2    H1      18.026882   18.242711   20.191747 H          1 MOL1         0.0958
       3    H2      18.918675   18.232200   18.662743 H          1 MOL1         0.0958
       4    H3      19.512887   17.277660   20.035089 H          1 MOL1         0.0958
       5    C2      19.875414   19.433488   20.219191 C.3        1 MOL1        -0.1412
       6    H4      19.361920   20.366983   19.949708 H          1 MOL1         0.0947
       7    H5      20.826564   19.435785   19.668690 H          1 MOL1         0.0947
       8    C3      20.179098   19.421994   21.736680 C.3        1 MOL1        -0.1437
       9    H6      20.719300   18.499479   21.986281 H          1 MOL1         0.0947
      10    H7      20.860676   20.253486   21.962802 H          1 MOL1         0.0947
      11    C4      18.910225   19.552509   22.616671 C.3        1 MOL1        -0.1437
      12    H8      18.275717   18.664406   22.497069 H          1 MOL1         0.0947
      13    H9      18.317239   20.407176   22.263134 H          1 MOL1         0.0947
      14    C5      19.218608   19.758618   24.120080 C.3        1 MOL1        -0.1437
      15    H10     19.841153   20.654881   24.247803 H          1 MOL1         0.0947
      16    H11     18.271795   19.964734   24.636310 H          1 MOL1         0.0947
      17    C6      19.913693   18.540617   24.779923 C.3        1 MOL1        -0.1437
      18    H12     20.873979   18.350246   24.283492 H          1 MOL1         0.0947
      19    H13     19.302219   17.639581   24.632879 H          1 MOL1         0.0947
      20    C7      20.182012   18.740694   26.290142 C.3        1 MOL1        -0.1477
      21    H14     20.766698   17.889227   26.663103 H          1 MOL1         0.0947
      22    H15     20.799996   19.636067   26.439814 H          1 MOL1         0.0947
      23    C8      18.887445   18.859893   27.116054 C.3        1 MOL1         0.0145
      24    H16     18.272013   17.968754   26.966134 H          1 MOL1         0.0921
      25    H17     18.316868   19.732339   26.787769 H          1 MOL1         0.0921
      26    N1      19.144630   19.006038   28.601817 N.4        1 MOL1        -0.5969
      27    H18     19.655235   18.202046   28.981781 H          1 MOL1         0.3603
      28    H19     18.270848   19.083755   29.133931 H          1 MOL1         0.3603
      29    H20     19.698576   19.842751   28.812876 H          1 MOL1         0.3603
@<TRIPOS>BOND
    1     1     2    1
    2     1     3    1
    3     1     4    1
    4     1     5    1
    5     5     6    1
    6     5     7    1
    7     5     8    1
    8     8     9    1
    9     8    10    1
   10     8    11    1
   11    11    12    1
   12    11    13    1
   13    11    14    1
   14    14    15    1
   15    14    16    1
   16    14    17    1
   17    17    18    1
   18    17    19    1
   19    17    20    1
   20    20    21    1
   21    20    22    1
   22    20    23    1
   23    23    24    1
   24    23    25    1
   25    23    26    1
   26    26    27    1
   27    26    28    1
   28    26    29    1
@<TRIPOS>SUBSTRUCTURE
       1 MOL1            1 RESIDUE      1      MOL     
@<SCITEGIC>MOL_PROPERTY
VM2 Rank
SciTegic.value.IntegerValue
117

@<SCITEGIC>MOL_PROPERTY
Conf_Id
SciTegic.value.IntegerValue
2639

@<SCITEGIC>MOL_PROPERTY
Probability
SciTegic.value.DoubleValue
0.25

@<SCITEGIC>MOL_PROPERTY
Sum Probability
SciTegic.value.DoubleValue
88.89

@<SCITEGIC>MOL_PROPERTY
Delta G
SciTegic.value.DoubleValue
1.832

@<SCITEGIC>MOL_PROPERTY
G
SciTegic.value.DoubleValue
59.980

@<SCITEGIC>MOL_PROPERTY
E
SciTegic.value.DoubleValue
22.482

@<SCITEGIC>MOL_PROPERTY
-TS
SciTegic.value.DoubleValue
37.498

@<SCITEGIC>MOL_PROPERTY
U+W
SciTegic.value.DoubleValue
-1.662

@<SCITEGIC>MOL_PROPERTY
U
SciTegic.value.DoubleValue
49.778

@<SCITEGIC>MOL_PROPERTY
W
SciTegic.value.DoubleValue
-51.441

@<SCITEGIC>MOL_PROPERTY
W(PB)
SciTegic.value.DoubleValue
-53.961

@<SCITEGIC>MOL_PROPERTY
W(SA)
SciTegic.value.DoubleValue
2.520

@<SCITEGIC>MOL_PROPERTY
Valence
SciTegic.value.DoubleValue
3.946

@<SCITEGIC>MOL_PROPERTY
Coulomb
SciTegic.value.DoubleValue
44.784

@<SCITEGIC>MOL_PROPERTY
VdW
SciTegic.value.DoubleValue
1.049

@<SCITEGIC>MOL_PROPERTY
VdW6
SciTegic.value.DoubleValue
-8.795

@<SCITEGIC>MOL_PROPERTY
VdW12
SciTegic.value.DoubleValue
9.844

@<SCITEGIC>MOL_PROPERTY
Bond
SciTegic.value.DoubleValue
0.248

@<SCITEGIC>MOL_PROPERTY
Angle
SciTegic.value.DoubleValue
1.005

@<SCITEGIC>MOL_PROPERTY
Pdih
SciTegic.value.DoubleValue
2.693

@<SCITEGIC>MOL_PROPERTY
Idih
SciTegic.value.DoubleValue
0.000

@<SCITEGIC>MOL_PROPERTY
Tether
SciTegic.value.DoubleValue
0.000

@<TRIPOS>MOLECULE
guest-3_vm2.mol2 : vm2 ligand conformer 118
          29          28           1
SMALL
USER_CHARGES
 
@<TRIPOS>ATOM
       1    C1      19.720213   20.155989   19.797734 C.3        1 MOL1        -0.2427
       2    H1      20.686022   20.574777   20.108933 H          1 MOL1         0.0958
       3    H2      19.641996   20.265249   18.708303 H          1 MOL1         0.0958
       4    H3      18.922332   20.759397   20.248159 H          1 MOL1         0.0958
       5    C2      19.603356   18.668976   20.202090 C.3        1 MOL1        -0.1412
       6    H4      20.347147   18.088543   19.638519 H          1 MOL1         0.0947
       7    H5      18.619637   18.280947   19.903026 H          1 MOL1         0.0947
       8    C3      19.824640   18.425826   21.714388 C.3        1 MOL1        -0.1437
       9    H6      19.824926   17.342553   21.897624 H          1 MOL1         0.0947
      10    H7      20.822411   18.789293   21.992772 H          1 MOL1         0.0947
      11    C4      18.745984   19.090905   22.606368 C.3        1 MOL1        -0.1437
      12    H8      17.751592   18.817424   22.227596 H          1 MOL1         0.0947
      13    H9      18.816418   20.184068   22.531106 H          1 MOL1         0.0947
      14    C5      18.833742   18.676893   24.095904 C.3        1 MOL1        -0.1437
      15    H10     17.962260   19.094642   24.616899 H          1 MOL1         0.0947
      16    H11     18.748661   17.584652   24.179155 H          1 MOL1         0.0947
      17    C6      20.132448   19.155027   24.793623 C.3        1 MOL1        -0.1437
      18    H12     20.229524   20.244711   24.690893 H          1 MOL1         0.0947
      19    H13     21.004125   18.715590   24.291718 H          1 MOL1         0.0947
      20    C7      20.192761   18.771018   26.290850 C.3        1 MOL1        -0.1477
      21    H14     20.104170   17.681515   26.396364 H          1 MOL1         0.0947
      22    H15     21.178518   19.046286   26.688924 H          1 MOL1         0.0947
      23    C8      19.102340   19.463785   27.129479 C.3        1 MOL1         0.0145
      24    H16     18.113633   19.161576   26.775056 H          1 MOL1         0.0921
      25    H17     19.190215   20.548408   27.023491 H          1 MOL1         0.0921
      26    N1      19.188514   19.129579   28.604566 N.4        1 MOL1        -0.5969
      27    H18     20.086802   19.414565   29.008740 H          1 MOL1         0.3603
      28    H19     19.086425   18.123527   28.774652 H          1 MOL1         0.3603
      29    H20     18.454659   19.600335   29.145421 H          1 MOL1         0.3603
@<TRIPOS>BOND
    1     1     2    1
    2     1     3    1
    3     1     4    1
    4     1     5    1
    5     5     6    1
    6     5     7    1
    7     5     8    1
    8     8     9    1
    9     8    10    1
   10     8    11    1
   11    11    12    1
   12    11    13    1
   13    11    14    1
   14    14    15    1
   15    14    16    1
   16    14    17    1
   17    17    18    1
   18    17    19    1
   19    17    20    1
   20    20    21    1
   21    20    22    1
   22    20    23    1
   23    23    24    1
   24    23    25    1
   25    23    26    1
   26    26    27    1
   27    26    28    1
   28    26    29    1
@<TRIPOS>SUBSTRUCTURE
       1 MOL1            1 RESIDUE      1      MOL     
@<SCITEGIC>MOL_PROPERTY
VM2 Rank
SciTegic.value.IntegerValue
118

@<SCITEGIC>MOL_PROPERTY
Conf_Id
SciTegic.value.IntegerValue
2583

@<SCITEGIC>MOL_PROPERTY
Probability
SciTegic.value.DoubleValue
0.25

@<SCITEGIC>MOL_PROPERTY
Sum Probability
SciTegic.value.DoubleValue
89.13

@<SCITEGIC>MOL_PROPERTY
Delta G
SciTegic.value.DoubleValue
1.835

@<SCITEGIC>MOL_PROPERTY
G
SciTegic.value.DoubleValue
59.983

@<SCITEGIC>MOL_PROPERTY
E
SciTegic.value.DoubleValue
22.485

@<SCITEGIC>MOL_PROPERTY
-TS
SciTegic.value.DoubleValue
37.498

@<SCITEGIC>MOL_PROPERTY
U+W
SciTegic.value.DoubleValue
-1.660

@<SCITEGIC>MOL_PROPERTY
U
SciTegic.value.DoubleValue
49.778

@<SCITEGIC>MOL_PROPERTY
W
SciTegic.value.DoubleValue
-51.438

@<SCITEGIC>MOL_PROPERTY
W(PB)
SciTegic.value.DoubleValue
-53.956

@<SCITEGIC>MOL_PROPERTY
W(SA)
SciTegic.value.DoubleValue
2.518

@<SCITEGIC>MOL_PROPERTY
Valence
SciTegic.value.DoubleValue
3.946

@<SCITEGIC>MOL_PROPERTY
Coulomb
SciTegic.value.DoubleValue
44.784

@<SCITEGIC>MOL_PROPERTY
VdW
SciTegic.value.DoubleValue
1.049

@<SCITEGIC>MOL_PROPERTY
VdW6
SciTegic.value.DoubleValue
-8.795

@<SCITEGIC>MOL_PROPERTY
VdW12
SciTegic.value.DoubleValue
9.844

@<SCITEGIC>MOL_PROPERTY
Bond
SciTegic.value.DoubleValue
0.248

@<SCITEGIC>MOL_PROPERTY
Angle
SciTegic.value.DoubleValue
1.005

@<SCITEGIC>MOL_PROPERTY
Pdih
SciTegic.value.DoubleValue
2.693

@<SCITEGIC>MOL_PROPERTY
Idih
SciTegic.value.DoubleValue
0.000

@<SCITEGIC>MOL_PROPERTY
Tether
SciTegic.value.DoubleValue
0.000

@<TRIPOS>MOLECULE
guest-3_vm2.mol2 : vm2 ligand conformer 119
          29          28           1
SMALL
USER_CHARGES
 
@<TRIPOS>ATOM
       1    C1      20.357083   18.246623   20.247130 C.3        1 MOL1        -0.2427
       2    H1      20.689502   17.251682   19.924032 H          1 MOL1         0.0958
       3    H2      20.087041   18.818823   19.350141 H          1 MOL1         0.0958
       4    H3      21.210958   18.741452   20.726359 H          1 MOL1         0.0958
       5    C2      19.156283   18.129403   21.212646 C.3        1 MOL1        -0.1412
       6    H4      19.453116   17.564908   22.106666 H          1 MOL1         0.0947
       7    H5      18.369521   17.534557   20.728192 H          1 MOL1         0.0947
       8    C3      18.559360   19.500576   21.619064 C.3        1 MOL1        -0.1437
       9    H6      18.178181   20.001344   20.718552 H          1 MOL1         0.0947
      10    H7      17.680563   19.332505   22.255519 H          1 MOL1         0.0947
      11    C4      19.542749   20.461569   22.340068 C.3        1 MOL1        -0.1437
      12    H8      19.004575   21.383214   22.600622 H          1 MOL1         0.0947
      13    H9      20.329048   20.768890   21.637827 H          1 MOL1         0.0947
      14    C5      20.208077   19.891062   23.618943 C.3        1 MOL1        -0.1437
      15    H10     20.835561   19.027641   23.361254 H          1 MOL1         0.0947
      16    H11     20.891291   20.651566   24.021403 H          1 MOL1         0.0947
      17    C6      19.193660   19.493075   24.717514 C.3        1 MOL1        -0.1437
      18    H12     18.543690   18.686697   24.352837 H          1 MOL1         0.0947
      19    H13     18.543740   20.349393   24.945012 H          1 MOL1         0.0947
      20    C7      19.900729   19.025550   26.008459 C.3        1 MOL1        -0.1477
      21    H14     20.550333   18.168870   25.784394 H          1 MOL1         0.0947
      22    H15     20.545678   19.828770   26.389157 H          1 MOL1         0.0947
      23    C8      18.885056   18.627695   27.093650 C.3        1 MOL1         0.0145
      24    H16     18.251280   17.816479   26.725276 H          1 MOL1         0.0921
      25    H17     18.246489   19.482735   27.331539 H          1 MOL1         0.0921
      26    N1      19.541002   18.162447   28.377526 N.4        1 MOL1        -0.5969
      27    H18     20.136213   17.341224   28.226442 H          1 MOL1         0.3603
      28    H19     18.847176   17.902333   29.087221 H          1 MOL1         0.3603
      29    H20     20.131758   18.891824   28.790498 H          1 MOL1         0.3603
@<TRIPOS>BOND
    1     1     2    1
    2     1     3    1
    3     1     4    1
    4     1     5    1
    5     5     6    1
    6     5     7    1
    7     5     8    1
    8     8     9    1
    9     8    10    1
   10     8    11    1
   11    11    12    1
   12    11    13    1
   13    11    14    1
   14    14    15    1
   15    14    16    1
   16    14    17    1
   17    17    18    1
   18    17    19    1
   19    17    20    1
   20    20    21    1
   21    20    22    1
   22    20    23    1
   23    23    24    1
   24    23    25    1
   25    23    26    1
   26    26    27    1
   27    26    28    1
   28    26    29    1
@<TRIPOS>SUBSTRUCTURE
       1 MOL1            1 RESIDUE      1      MOL     
@<SCITEGIC>MOL_PROPERTY
VM2 Rank
SciTegic.value.IntegerValue
119

@<SCITEGIC>MOL_PROPERTY
Conf_Id
SciTegic.value.IntegerValue
603

@<SCITEGIC>MOL_PROPERTY
Probability
SciTegic.value.DoubleValue
0.24

@<SCITEGIC>MOL_PROPERTY
Sum Probability
SciTegic.value.DoubleValue
89.37

@<SCITEGIC>MOL_PROPERTY
Delta G
SciTegic.value.DoubleValue
1.859

@<SCITEGIC>MOL_PROPERTY
G
SciTegic.value.DoubleValue
60.007

@<SCITEGIC>MOL_PROPERTY
E
SciTegic.value.DoubleValue
22.050

@<SCITEGIC>MOL_PROPERTY
-TS
SciTegic.value.DoubleValue
37.956

@<SCITEGIC>MOL_PROPERTY
U+W
SciTegic.value.DoubleValue
-2.094

@<SCITEGIC>MOL_PROPERTY
U
SciTegic.value.DoubleValue
49.550

@<SCITEGIC>MOL_PROPERTY
W
SciTegic.value.DoubleValue
-51.645

@<SCITEGIC>MOL_PROPERTY
W(PB)
SciTegic.value.DoubleValue
-54.119

@<SCITEGIC>MOL_PROPERTY
W(SA)
SciTegic.value.DoubleValue
2.474

@<SCITEGIC>MOL_PROPERTY
Valence
SciTegic.value.DoubleValue
3.991

@<SCITEGIC>MOL_PROPERTY
Coulomb
SciTegic.value.DoubleValue
44.825

@<SCITEGIC>MOL_PROPERTY
VdW
SciTegic.value.DoubleValue
0.734

@<SCITEGIC>MOL_PROPERTY
VdW6
SciTegic.value.DoubleValue
-9.508

@<SCITEGIC>MOL_PROPERTY
VdW12
SciTegic.value.DoubleValue
10.242

@<SCITEGIC>MOL_PROPERTY
Bond
SciTegic.value.DoubleValue
0.268

@<SCITEGIC>MOL_PROPERTY
Angle
SciTegic.value.DoubleValue
1.374

@<SCITEGIC>MOL_PROPERTY
Pdih
SciTegic.value.DoubleValue
2.348

@<SCITEGIC>MOL_PROPERTY
Idih
SciTegic.value.DoubleValue
0.000

@<SCITEGIC>MOL_PROPERTY
Tether
SciTegic.value.DoubleValue
0.000

@<TRIPOS>MOLECULE
guest-3_vm2.mol2 : vm2 ligand conformer 120
          29          28           1
SMALL
USER_CHARGES
 
@<TRIPOS>ATOM
       1    C1      20.355593   18.956051   19.595524 C.3        1 MOL1        -0.2427
       2    H1      21.369721   19.296687   19.841549 H          1 MOL1         0.0958
       3    H2      20.294396   17.880195   19.800423 H          1 MOL1         0.0958
       4    H3      20.207647   19.094446   18.516686 H          1 MOL1         0.0958
       5    C2      19.294483   19.748627   20.392250 C.3        1 MOL1        -0.1412
       6    H4      18.291734   19.366389   20.155380 H          1 MOL1         0.0947
       7    H5      19.311461   20.795095   20.057005 H          1 MOL1         0.0947
       8    C3      19.519324   19.715803   21.923413 C.3        1 MOL1        -0.1437
       9    H6      20.522048   20.100386   22.154988 H          1 MOL1         0.0947
      10    H7      18.806296   20.410634   22.385148 H          1 MOL1         0.0947
      11    C4      19.343614   18.305759   22.542374 C.3        1 MOL1        -0.1437
      12    H8      20.054318   17.611390   22.076188 H          1 MOL1         0.0947
      13    H9      18.340212   17.921939   22.312548 H          1 MOL1         0.0947
      14    C5      19.575212   18.269737   24.073079 C.3        1 MOL1        -0.1437
      15    H10     19.559879   17.221114   24.400856 H          1 MOL1         0.0947
      16    H11     20.581885   18.648438   24.295311 H          1 MOL1         0.0947
      17    C6      18.515841   19.063606   24.878803 C.3        1 MOL1        -0.1437
      18    H12     17.511217   18.746726   24.566576 H          1 MOL1         0.0947
      19    H13     18.590964   20.135002   24.651219 H          1 MOL1         0.0947
      20    C7      18.646869   18.863759   26.406849 C.3        1 MOL1        -0.1477
      21    H14     17.822445   19.388831   26.907408 H          1 MOL1         0.0947
      22    H15     18.535749   17.798855   26.651013 H          1 MOL1         0.0947
      23    C8      19.986270   19.384808   26.960287 C.3        1 MOL1         0.0145
      24    H16     20.095723   20.445861   26.720396 H          1 MOL1         0.0921
      25    H17     20.814165   18.839902   26.499394 H          1 MOL1         0.0921
      26    N1      20.106793   19.229849   28.462421 N.4        1 MOL1        -0.5969
      27    H18     21.005043   19.582402   28.811017 H          1 MOL1         0.3603
      28    H19     20.038289   18.248458   28.751666 H          1 MOL1         0.3603
      29    H20     19.371255   19.743169   28.959389 H          1 MOL1         0.3603
@<TRIPOS>BOND
    1     1     2    1
    2     1     3    1
    3     1     4    1
    4     1     5    1
    5     5     6    1
    6     5     7    1
    7     5     8    1
    8     8     9    1
    9     8    10    1
   10     8    11    1
   11    11    12    1
   12    11    13    1
   13    11    14    1
   14    14    15    1
   15    14    16    1
   16    14    17    1
   17    17    18    1
   18    17    19    1
   19    17    20    1
   20    20    21    1
   21    20    22    1
   22    20    23    1
   23    23    24    1
   24    23    25    1
   25    23    26    1
   26    26    27    1
   27    26    28    1
   28    26    29    1
@<TRIPOS>SUBSTRUCTURE
       1 MOL1            1 RESIDUE      1      MOL     
@<SCITEGIC>MOL_PROPERTY
VM2 Rank
SciTegic.value.IntegerValue
120

@<SCITEGIC>MOL_PROPERTY
Conf_Id
SciTegic.value.IntegerValue
1297

@<SCITEGIC>MOL_PROPERTY
Probability
SciTegic.value.DoubleValue
0.24

@<SCITEGIC>MOL_PROPERTY
Sum Probability
SciTegic.value.DoubleValue
89.61

@<SCITEGIC>MOL_PROPERTY
Delta G
SciTegic.value.DoubleValue
1.865

@<SCITEGIC>MOL_PROPERTY
G
SciTegic.value.DoubleValue
60.013

@<SCITEGIC>MOL_PROPERTY
E
SciTegic.value.DoubleValue
22.558

@<SCITEGIC>MOL_PROPERTY
-TS
SciTegic.value.DoubleValue
37.454

@<SCITEGIC>MOL_PROPERTY
U+W
SciTegic.value.DoubleValue
-1.586

@<SCITEGIC>MOL_PROPERTY
U
SciTegic.value.DoubleValue
49.932

@<SCITEGIC>MOL_PROPERTY
W
SciTegic.value.DoubleValue
-51.518

@<SCITEGIC>MOL_PROPERTY
W(PB)
SciTegic.value.DoubleValue
-54.055

@<SCITEGIC>MOL_PROPERTY
W(SA)
SciTegic.value.DoubleValue
2.537

@<SCITEGIC>MOL_PROPERTY
Valence
SciTegic.value.DoubleValue
3.987

@<SCITEGIC>MOL_PROPERTY
Coulomb
SciTegic.value.DoubleValue
44.891

@<SCITEGIC>MOL_PROPERTY
VdW
SciTegic.value.DoubleValue
1.054

@<SCITEGIC>MOL_PROPERTY
VdW6
SciTegic.value.DoubleValue
-8.768

@<SCITEGIC>MOL_PROPERTY
VdW12
SciTegic.value.DoubleValue
9.822

@<SCITEGIC>MOL_PROPERTY
Bond
SciTegic.value.DoubleValue
0.251

@<SCITEGIC>MOL_PROPERTY
Angle
SciTegic.value.DoubleValue
1.043

@<SCITEGIC>MOL_PROPERTY
Pdih
SciTegic.value.DoubleValue
2.693

@<SCITEGIC>MOL_PROPERTY
Idih
SciTegic.value.DoubleValue
0.000

@<SCITEGIC>MOL_PROPERTY
Tether
SciTegic.value.DoubleValue
0.000

@<TRIPOS>MOLECULE
guest-3_vm2.mol2 : vm2 ligand conformer 121
          29          28           1
SMALL
USER_CHARGES
 
@<TRIPOS>ATOM
       1    C1      21.239698   18.815248   20.964224 C.3        1 MOL1        -0.2427
       2    H1      21.456689   18.880822   22.037703 H          1 MOL1         0.0958
       3    H2      21.289910   17.759948   20.666313 H          1 MOL1         0.0958
       4    H3      22.035362   19.353073   20.432725 H          1 MOL1         0.0958
       5    C2      19.858575   19.421738   20.628280 C.3        1 MOL1        -0.1412
       6    H4      19.737612   19.442867   19.536249 H          1 MOL1         0.0947
       7    H5      19.825095   20.469870   20.954453 H          1 MOL1         0.0947
       8    C3      18.673370   18.632475   21.240485 C.3        1 MOL1        -0.1437
       9    H6      17.733098   19.108015   20.929284 H          1 MOL1         0.0947
      10    H7      18.657316   17.622964   20.807232 H          1 MOL1         0.0947
      11    C4      18.689373   18.510295   22.785972 C.3        1 MOL1        -0.1437
      12    H8      19.568339   17.932515   23.097752 H          1 MOL1         0.0947
      13    H9      17.813911   17.923363   23.095780 H          1 MOL1         0.0947
      14    C5      18.662408   19.879066   23.511598 C.3        1 MOL1        -0.1437
      15    H10     19.586654   20.434035   23.303163 H          1 MOL1         0.0947
      16    H11     17.839171   20.482831   23.105630 H          1 MOL1         0.0947
      17    C6      18.476563   19.760186   25.044024 C.3        1 MOL1        -0.1437
      18    H12     17.541860   19.225056   25.261892 H          1 MOL1         0.0947
      19    H13     18.357744   20.770263   25.460272 H          1 MOL1         0.0947
      20    C7      19.657297   19.059222   25.755840 C.3        1 MOL1        -0.1477
      21    H14     19.743016   18.020690   25.412211 H          1 MOL1         0.0947
      22    H15     20.597303   19.564996   25.497998 H          1 MOL1         0.0947
      23    C8      19.474482   19.067873   27.283588 C.3        1 MOL1         0.0145
      24    H16     18.547583   18.550910   27.546365 H          1 MOL1         0.0921
      25    H17     19.406703   20.099098   27.640540 H          1 MOL1         0.0921
      26    N1      20.612234   18.391897   28.020990 N.4        1 MOL1        -0.5969
      27    H18     20.711964   17.408018   27.749884 H          1 MOL1         0.3603
      28    H19     20.470840   18.409110   29.037077 H          1 MOL1         0.3603
      29    H20     21.511522   18.848882   27.836765 H          1 MOL1         0.3603
@<TRIPOS>BOND
    1     1     2    1
    2     1     3    1
    3     1     4    1
    4     1     5    1
    5     5     6    1
    6     5     7    1
    7     5     8    1
    8     8     9    1
    9     8    10    1
   10     8    11    1
   11    11    12    1
   12    11    13    1
   13    11    14    1
   14    14    15    1
   15    14    16    1
   16    14    17    1
   17    17    18    1
   18    17    19    1
   19    17    20    1
   20    20    21    1
   21    20    22    1
   22    20    23    1
   23    23    24    1
   24    23    25    1
   25    23    26    1
   26    26    27    1
   27    26    28    1
   28    26    29    1
@<TRIPOS>SUBSTRUCTURE
       1 MOL1            1 RESIDUE      1      MOL     
@<SCITEGIC>MOL_PROPERTY
VM2 Rank
SciTegic.value.IntegerValue
121

@<SCITEGIC>MOL_PROPERTY
Conf_Id
SciTegic.value.IntegerValue
904

@<SCITEGIC>MOL_PROPERTY
Probability
SciTegic.value.DoubleValue
0.23

@<SCITEGIC>MOL_PROPERTY
Sum Probability
SciTegic.value.DoubleValue
89.84

@<SCITEGIC>MOL_PROPERTY
Delta G
SciTegic.value.DoubleValue
1.882

@<SCITEGIC>MOL_PROPERTY
G
SciTegic.value.DoubleValue
60.030

@<SCITEGIC>MOL_PROPERTY
E
SciTegic.value.DoubleValue
22.293

@<SCITEGIC>MOL_PROPERTY
-TS
SciTegic.value.DoubleValue
37.737

@<SCITEGIC>MOL_PROPERTY
U+W
SciTegic.value.DoubleValue
-1.852

@<SCITEGIC>MOL_PROPERTY
U
SciTegic.value.DoubleValue
49.942

@<SCITEGIC>MOL_PROPERTY
W
SciTegic.value.DoubleValue
-51.794

@<SCITEGIC>MOL_PROPERTY
W(PB)
SciTegic.value.DoubleValue
-54.236

@<SCITEGIC>MOL_PROPERTY
W(SA)
SciTegic.value.DoubleValue
2.442

@<SCITEGIC>MOL_PROPERTY
Valence
SciTegic.value.DoubleValue
4.040

@<SCITEGIC>MOL_PROPERTY
Coulomb
SciTegic.value.DoubleValue
45.040

@<SCITEGIC>MOL_PROPERTY
VdW
SciTegic.value.DoubleValue
0.862

@<SCITEGIC>MOL_PROPERTY
VdW6
SciTegic.value.DoubleValue
-9.281

@<SCITEGIC>MOL_PROPERTY
VdW12
SciTegic.value.DoubleValue
10.143

@<SCITEGIC>MOL_PROPERTY
Bond
SciTegic.value.DoubleValue
0.263

@<SCITEGIC>MOL_PROPERTY
Angle
SciTegic.value.DoubleValue
1.238

@<SCITEGIC>MOL_PROPERTY
Pdih
SciTegic.value.DoubleValue
2.539

@<SCITEGIC>MOL_PROPERTY
Idih
SciTegic.value.DoubleValue
0.000

@<SCITEGIC>MOL_PROPERTY
Tether
SciTegic.value.DoubleValue
0.000

@<TRIPOS>MOLECULE
guest-3_vm2.mol2 : vm2 ligand conformer 122
          29          28           1
SMALL
USER_CHARGES
 
@<TRIPOS>ATOM
       1    C1      19.697716   18.384353   19.483680 C.3        1 MOL1        -0.2427
       2    H1      19.408236   18.493682   18.430503 H          1 MOL1         0.0958
       3    H2      20.776128   18.181854   19.515933 H          1 MOL1         0.0958
       4    H3      19.170632   17.507909   19.880178 H          1 MOL1         0.0958
       5    C2      19.348758   19.665100   20.275432 C.3        1 MOL1        -0.1412
       6    H4      18.261848   19.826508   20.258246 H          1 MOL1         0.0947
       7    H5      19.795647   20.528483   19.762948 H          1 MOL1         0.0947
       8    C3      19.852050   19.643695   21.739155 C.3        1 MOL1        -0.1437
       9    H6      20.938815   19.483083   21.750590 H          1 MOL1         0.0947
      10    H7      19.681001   20.638461   22.169476 H          1 MOL1         0.0947
      11    C4      19.155144   18.571453   22.615126 C.3        1 MOL1        -0.1437
      12    H8      19.322219   17.579403   22.176401 H          1 MOL1         0.0947
      13    H9      18.068622   18.733842   22.607302 H          1 MOL1         0.0947
      14    C5      19.664335   18.536818   24.077423 C.3        1 MOL1        -0.1437
      15    H10     19.234237   17.651876   24.564565 H          1 MOL1         0.0947
      16    H11     20.753606   18.393178   24.083642 H          1 MOL1         0.0947
      17    C6      19.297676   19.802660   24.893494 C.3        1 MOL1        -0.1437
      18    H12     18.210651   19.960633   24.865371 H          1 MOL1         0.0947
      19    H13     19.753413   20.686974   24.430289 H          1 MOL1         0.0947
      20    C7      19.770043   19.732735   26.364878 C.3        1 MOL1        -0.1477
      21    H14     20.857295   19.581498   26.396744 H          1 MOL1         0.0947
      22    H15     19.572861   20.699178   26.847650 H          1 MOL1         0.0947
      23    C8      19.067804   18.620203   27.165785 C.3        1 MOL1         0.0145
      24    H16     19.294403   17.646087   26.725075 H          1 MOL1         0.0921
      25    H17     17.985344   18.770409   27.132900 H          1 MOL1         0.0921
      26    N1      19.490473   18.580984   28.620027 N.4        1 MOL1        -0.5969
      27    H18     19.012085   17.834166   29.135865 H          1 MOL1         0.3603
      28    H19     19.278839   19.460460   29.102966 H          1 MOL1         0.3603
      29    H20     20.497532   18.416006   28.720574 H          1 MOL1         0.3603
@<TRIPOS>BOND
    1     1     2    1
    2     1     3    1
    3     1     4    1
    4     1     5    1
    5     5     6    1
    6     5     7    1
    7     5     8    1
    8     8     9    1
    9     8    10    1
   10     8    11    1
   11    11    12    1
   12    11    13    1
   13    11    14    1
   14    14    15    1
   15    14    16    1
   16    14    17    1
   17    17    18    1
   18    17    19    1
   19    17    20    1
   20    20    21    1
   21    20    22    1
   22    20    23    1
   23    23    24    1
   24    23    25    1
   25    23    26    1
   26    26    27    1
   27    26    28    1
   28    26    29    1
@<TRIPOS>SUBSTRUCTURE
       1 MOL1            1 RESIDUE      1      MOL     
@<SCITEGIC>MOL_PROPERTY
VM2 Rank
SciTegic.value.IntegerValue
122

@<SCITEGIC>MOL_PROPERTY
Conf_Id
SciTegic.value.IntegerValue
2402

@<SCITEGIC>MOL_PROPERTY
Probability
SciTegic.value.DoubleValue
0.23

@<SCITEGIC>MOL_PROPERTY
Sum Probability
SciTegic.value.DoubleValue
90.06

@<SCITEGIC>MOL_PROPERTY
Delta G
SciTegic.value.DoubleValue
1.888

@<SCITEGIC>MOL_PROPERTY
G
SciTegic.value.DoubleValue
60.036

@<SCITEGIC>MOL_PROPERTY
E
SciTegic.value.DoubleValue
22.639

@<SCITEGIC>MOL_PROPERTY
-TS
SciTegic.value.DoubleValue
37.397

@<SCITEGIC>MOL_PROPERTY
U+W
SciTegic.value.DoubleValue
-1.505

@<SCITEGIC>MOL_PROPERTY
U
SciTegic.value.DoubleValue
49.966

@<SCITEGIC>MOL_PROPERTY
W
SciTegic.value.DoubleValue
-51.472

@<SCITEGIC>MOL_PROPERTY
W(PB)
SciTegic.value.DoubleValue
-53.951

@<SCITEGIC>MOL_PROPERTY
W(SA)
SciTegic.value.DoubleValue
2.479

@<SCITEGIC>MOL_PROPERTY
Valence
SciTegic.value.DoubleValue
4.059

@<SCITEGIC>MOL_PROPERTY
Coulomb
SciTegic.value.DoubleValue
44.783

@<SCITEGIC>MOL_PROPERTY
VdW
SciTegic.value.DoubleValue
1.124

@<SCITEGIC>MOL_PROPERTY
VdW6
SciTegic.value.DoubleValue
-8.699

@<SCITEGIC>MOL_PROPERTY
VdW12
SciTegic.value.DoubleValue
9.823

@<SCITEGIC>MOL_PROPERTY
Bond
SciTegic.value.DoubleValue
0.258

@<SCITEGIC>MOL_PROPERTY
Angle
SciTegic.value.DoubleValue
1.106

@<SCITEGIC>MOL_PROPERTY
Pdih
SciTegic.value.DoubleValue
2.695

@<SCITEGIC>MOL_PROPERTY
Idih
SciTegic.value.DoubleValue
0.000

@<SCITEGIC>MOL_PROPERTY
Tether
SciTegic.value.DoubleValue
0.000

@<TRIPOS>MOLECULE
guest-3_vm2.mol2 : vm2 ligand conformer 123
          29          28           1
SMALL
USER_CHARGES
 
@<TRIPOS>ATOM
       1    C1      20.750895   18.762298   19.876288 C.3        1 MOL1        -0.2427
       2    H1      21.514464   19.506174   20.138633 H          1 MOL1         0.0958
       3    H2      21.266901   17.849222   19.552193 H          1 MOL1         0.0958
       4    H3      20.178000   19.146626   19.022300 H          1 MOL1         0.0958
       5    C2      19.827369   18.468973   21.077460 C.3        1 MOL1        -0.1412
       6    H4      20.428893   18.050221   21.895230 H          1 MOL1         0.0947
       7    H5      19.093723   17.701185   20.794855 H          1 MOL1         0.0947
       8    C3      19.091902   19.742884   21.555539 C.3        1 MOL1        -0.1437
       9    H6      19.823413   20.495498   21.877732 H          1 MOL1         0.0947
      10    H7      18.559440   20.187755   20.703625 H          1 MOL1         0.0947
      11    C4      18.064868   19.480210   22.687397 C.3        1 MOL1        -0.1437
      12    H8      17.270012   18.828106   22.299943 H          1 MOL1         0.0947
      13    H9      17.574702   20.429025   22.945489 H          1 MOL1         0.0947
      14    C5      18.641351   18.845249   23.979517 C.3        1 MOL1        -0.1437
      15    H10     17.810695   18.699377   24.682399 H          1 MOL1         0.0947
      16    H11     19.031380   17.842135   23.762474 H          1 MOL1         0.0947
      17    C6      19.743487   19.702116   24.652359 C.3        1 MOL1        -0.1437
      18    H12     19.357919   20.711011   24.854271 H          1 MOL1         0.0947
      19    H13     20.588426   19.822853   23.962016 H          1 MOL1         0.0947
      20    C7      20.277659   19.081185   25.964477 C.3        1 MOL1        -0.1477
      21    H14     20.671221   18.075830   25.763600 H          1 MOL1         0.0947
      22    H15     21.122483   19.683387   26.324417 H          1 MOL1         0.0947
      23    C8      19.207363   19.008174   27.069596 C.3        1 MOL1         0.0145
      24    H16     18.380447   18.372093   26.743882 H          1 MOL1         0.0921
      25    H17     18.815079   20.009126   27.268505 H          1 MOL1         0.0921
      26    N1      19.739108   18.446910   28.372366 N.4        1 MOL1        -0.5969
      27    H18     20.100155   17.493957   28.258372 H          1 MOL1         0.3603
      28    H19     19.011848   18.406795   29.094965 H          1 MOL1         0.3603
      29    H20     20.503812   19.016520   28.749528 H          1 MOL1         0.3603
@<TRIPOS>BOND
    1     1     2    1
    2     1     3    1
    3     1     4    1
    4     1     5    1
    5     5     6    1
    6     5     7    1
    7     5     8    1
    8     8     9    1
    9     8    10    1
   10     8    11    1
   11    11    12    1
   12    11    13    1
   13    11    14    1
   14    14    15    1
   15    14    16    1
   16    14    17    1
   17    17    18    1
   18    17    19    1
   19    17    20    1
   20    20    21    1
   21    20    22    1
   22    20    23    1
   23    23    24    1
   24    23    25    1
   25    23    26    1
   26    26    27    1
   27    26    28    1
   28    26    29    1
@<TRIPOS>SUBSTRUCTURE
       1 MOL1            1 RESIDUE      1      MOL     
@<SCITEGIC>MOL_PROPERTY
VM2 Rank
SciTegic.value.IntegerValue
123

@<SCITEGIC>MOL_PROPERTY
Conf_Id
SciTegic.value.IntegerValue
298

@<SCITEGIC>MOL_PROPERTY
Probability
SciTegic.value.DoubleValue
0.22

@<SCITEGIC>MOL_PROPERTY
Sum Probability
SciTegic.value.DoubleValue
90.29

@<SCITEGIC>MOL_PROPERTY
Delta G
SciTegic.value.DoubleValue
1.896

@<SCITEGIC>MOL_PROPERTY
G
SciTegic.value.DoubleValue
60.044

@<SCITEGIC>MOL_PROPERTY
E
SciTegic.value.DoubleValue
22.324

@<SCITEGIC>MOL_PROPERTY
-TS
SciTegic.value.DoubleValue
37.719

@<SCITEGIC>MOL_PROPERTY
U+W
SciTegic.value.DoubleValue
-1.820

@<SCITEGIC>MOL_PROPERTY
U
SciTegic.value.DoubleValue
49.829

@<SCITEGIC>MOL_PROPERTY
W
SciTegic.value.DoubleValue
-51.649

@<SCITEGIC>MOL_PROPERTY
W(PB)
SciTegic.value.DoubleValue
-54.125

@<SCITEGIC>MOL_PROPERTY
W(SA)
SciTegic.value.DoubleValue
2.476

@<SCITEGIC>MOL_PROPERTY
Valence
SciTegic.value.DoubleValue
3.922

@<SCITEGIC>MOL_PROPERTY
Coulomb
SciTegic.value.DoubleValue
45.037

@<SCITEGIC>MOL_PROPERTY
VdW
SciTegic.value.DoubleValue
0.870

@<SCITEGIC>MOL_PROPERTY
VdW6
SciTegic.value.DoubleValue
-9.187

@<SCITEGIC>MOL_PROPERTY
VdW12
SciTegic.value.DoubleValue
10.057

@<SCITEGIC>MOL_PROPERTY
Bond
SciTegic.value.DoubleValue
0.258

@<SCITEGIC>MOL_PROPERTY
Angle
SciTegic.value.DoubleValue
1.253

@<SCITEGIC>MOL_PROPERTY
Pdih
SciTegic.value.DoubleValue
2.411

@<SCITEGIC>MOL_PROPERTY
Idih
SciTegic.value.DoubleValue
0.000

@<SCITEGIC>MOL_PROPERTY
Tether
SciTegic.value.DoubleValue
0.000

@<TRIPOS>MOLECULE
guest-3_vm2.mol2 : vm2 ligand conformer 124
          29          28           1
SMALL
USER_CHARGES
 
@<TRIPOS>ATOM
       1    C1      20.827182   19.984369   20.301327 C.3        1 MOL1        -0.2427
       2    H1      21.340751   19.168742   19.775783 H          1 MOL1         0.0958
       3    H2      20.535731   20.734991   19.555254 H          1 MOL1         0.0958
       4    H3      21.543354   20.452719   20.989039 H          1 MOL1         0.0958
       5    C2      19.589517   19.462475   21.061252 C.3        1 MOL1        -0.1412
       6    H4      18.878444   19.027190   20.345373 H          1 MOL1         0.0947
       7    H5      19.081171   20.309997   21.539910 H          1 MOL1         0.0947
       8    C3      19.975818   18.404699   22.121435 C.3        1 MOL1        -0.1437
       9    H6      20.539361   17.598611   21.631812 H          1 MOL1         0.0947
      10    H7      20.660722   18.848103   22.856112 H          1 MOL1         0.0947
      11    C4      18.755412   17.778091   22.843799 C.3        1 MOL1        -0.1437
      12    H8      19.111015   17.000889   23.533155 H          1 MOL1         0.0947
      13    H9      18.136748   17.252523   22.103481 H          1 MOL1         0.0947
      14    C5      17.856703   18.780026   23.617787 C.3        1 MOL1        -0.1437
      15    H10     17.352921   19.443740   22.902614 H          1 MOL1         0.0947
      16    H11     17.052688   18.218684   24.113288 H          1 MOL1         0.0947
      17    C6      18.589015   19.645348   24.675463 C.3        1 MOL1        -0.1437
      18    H12     17.856348   20.321574   25.137385 H          1 MOL1         0.0947
      19    H13     19.328905   20.291836   24.184998 H          1 MOL1         0.0947
      20    C7      19.274078   18.814468   25.785287 C.3        1 MOL1        -0.1477
      21    H14     18.539182   18.145980   26.253106 H          1 MOL1         0.0947
      22    H15     20.058765   18.181231   25.352392 H          1 MOL1         0.0947
      23    C8      19.897646   19.722050   26.859839 C.3        1 MOL1         0.0145
      24    H16     19.120959   20.345002   27.311631 H          1 MOL1         0.0921
      25    H17     20.641857   20.378399   26.400725 H          1 MOL1         0.0921
      26    N1      20.578631   18.946474   27.968811 N.4        1 MOL1        -0.5969
      27    H18     19.924209   18.327960   28.459387 H          1 MOL1         0.3603
      28    H19     20.986709   19.569752   28.674280 H          1 MOL1         0.3603
      29    H20     21.340001   18.359328   27.612453 H          1 MOL1         0.3603
@<TRIPOS>BOND
    1     1     2    1
    2     1     3    1
    3     1     4    1
    4     1     5    1
    5     5     6    1
    6     5     7    1
    7     5     8    1
    8     8     9    1
    9     8    10    1
   10     8    11    1
   11    11    12    1
   12    11    13    1
   13    11    14    1
   14    14    15    1
   15    14    16    1
   16    14    17    1
   17    17    18    1
   18    17    19    1
   19    17    20    1
   20    20    21    1
   21    20    22    1
   22    20    23    1
   23    23    24    1
   24    23    25    1
   25    23    26    1
   26    26    27    1
   27    26    28    1
   28    26    29    1
@<TRIPOS>SUBSTRUCTURE
       1 MOL1            1 RESIDUE      1      MOL     
@<SCITEGIC>MOL_PROPERTY
VM2 Rank
SciTegic.value.IntegerValue
124

@<SCITEGIC>MOL_PROPERTY
Conf_Id
SciTegic.value.IntegerValue
2207

@<SCITEGIC>MOL_PROPERTY
Probability
SciTegic.value.DoubleValue
0.22

@<SCITEGIC>MOL_PROPERTY
Sum Probability
SciTegic.value.DoubleValue
90.51

@<SCITEGIC>MOL_PROPERTY
Delta G
SciTegic.value.DoubleValue
1.900

@<SCITEGIC>MOL_PROPERTY
G
SciTegic.value.DoubleValue
60.048

@<SCITEGIC>MOL_PROPERTY
E
SciTegic.value.DoubleValue
22.073

@<SCITEGIC>MOL_PROPERTY
-TS
SciTegic.value.DoubleValue
37.975

@<SCITEGIC>MOL_PROPERTY
U+W
SciTegic.value.DoubleValue
-2.072

@<SCITEGIC>MOL_PROPERTY
U
SciTegic.value.DoubleValue
49.925

@<SCITEGIC>MOL_PROPERTY
W
SciTegic.value.DoubleValue
-51.995

@<SCITEGIC>MOL_PROPERTY
W(PB)
SciTegic.value.DoubleValue
-54.443

@<SCITEGIC>MOL_PROPERTY
W(SA)
SciTegic.value.DoubleValue
2.448

@<SCITEGIC>MOL_PROPERTY
Valence
SciTegic.value.DoubleValue
4.020

@<SCITEGIC>MOL_PROPERTY
Coulomb
SciTegic.value.DoubleValue
45.239

@<SCITEGIC>MOL_PROPERTY
VdW
SciTegic.value.DoubleValue
0.667

@<SCITEGIC>MOL_PROPERTY
VdW6
SciTegic.value.DoubleValue
-9.637

@<SCITEGIC>MOL_PROPERTY
VdW12
SciTegic.value.DoubleValue
10.303

@<SCITEGIC>MOL_PROPERTY
Bond
SciTegic.value.DoubleValue
0.272

@<SCITEGIC>MOL_PROPERTY
Angle
SciTegic.value.DoubleValue
1.402

@<SCITEGIC>MOL_PROPERTY
Pdih
SciTegic.value.DoubleValue
2.346

@<SCITEGIC>MOL_PROPERTY
Idih
SciTegic.value.DoubleValue
0.000

@<SCITEGIC>MOL_PROPERTY
Tether
SciTegic.value.DoubleValue
0.000

@<TRIPOS>MOLECULE
guest-3_vm2.mol2 : vm2 ligand conformer 125
          29          28           1
SMALL
USER_CHARGES
 
@<TRIPOS>ATOM
       1    C1      20.123358   18.554306   19.470265 C.3        1 MOL1        -0.2427
       2    H1      20.932036   19.240639   19.187044 H          1 MOL1         0.0958
       3    H2      20.558255   17.558046   19.623813 H          1 MOL1         0.0958
       4    H3      19.424530   18.490734   18.626086 H          1 MOL1         0.0958
       5    C2      19.398695   19.044503   20.741731 C.3        1 MOL1        -0.1412
       6    H4      18.573302   18.356703   20.967416 H          1 MOL1         0.0947
       7    H5      18.950193   20.028948   20.548418 H          1 MOL1         0.0947
       8    C3      20.363960   19.137671   21.947126 C.3        1 MOL1        -0.1437
       9    H6      20.769048   18.142342   22.176071 H          1 MOL1         0.0947
      10    H7      21.223102   19.762385   21.666208 H          1 MOL1         0.0947
      11    C4      19.716942   19.740334   23.218462 C.3        1 MOL1        -0.1437
      12    H8      19.307294   20.733246   22.987594 H          1 MOL1         0.0947
      13    H9      20.512142   19.897418   23.958454 H          1 MOL1         0.0947
      14    C5      18.610051   18.846422   23.833148 C.3        1 MOL1        -0.1437
      15    H10     17.816088   18.685600   23.092866 H          1 MOL1         0.0947
      16    H11     19.019353   17.852846   24.059438 H          1 MOL1         0.0947
      17    C6      17.957082   19.452774   25.102515 C.3        1 MOL1        -0.1437
      18    H12     17.152566   18.783113   25.436792 H          1 MOL1         0.0947
      19    H13     17.469588   20.401380   24.838481 H          1 MOL1         0.0947
      20    C7      18.925609   19.697527   26.286499 C.3        1 MOL1        -0.1477
      21    H14     19.652704   20.476383   26.024095 H          1 MOL1         0.0947
      22    H15     18.351713   20.088575   27.137118 H          1 MOL1         0.0947
      23    C8      19.666814   18.420737   26.724225 C.3        1 MOL1         0.0145
      24    H16     20.275441   18.045788   25.897211 H          1 MOL1         0.0921
      25    H17     18.941597   17.649244   26.996571 H          1 MOL1         0.0921
      26    N1      20.581492   18.643725   27.911029 N.4        1 MOL1        -0.5969
      27    H18     21.305041   19.341775   27.709679 H          1 MOL1         0.3603
      28    H19     21.065401   17.781904   28.186170 H          1 MOL1         0.3603
      29    H20     20.065449   18.972211   28.733976 H          1 MOL1         0.3603
@<TRIPOS>BOND
    1     1     2    1
    2     1     3    1
    3     1     4    1
    4     1     5    1
    5     5     6    1
    6     5     7    1
    7     5     8    1
    8     8     9    1
    9     8    10    1
   10     8    11    1
   11    11    12    1
   12    11    13    1
   13    11    14    1
   14    14    15    1
   15    14    16    1
   16    14    17    1
   17    17    18    1
   18    17    19    1
   19    17    20    1
   20    20    21    1
   21    20    22    1
   22    20    23    1
   23    23    24    1
   24    23    25    1
   25    23    26    1
   26    26    27    1
   27    26    28    1
   28    26    29    1
@<TRIPOS>SUBSTRUCTURE
       1 MOL1            1 RESIDUE      1      MOL     
@<SCITEGIC>MOL_PROPERTY
VM2 Rank
SciTegic.value.IntegerValue
125

@<SCITEGIC>MOL_PROPERTY
Conf_Id
SciTegic.value.IntegerValue
2281

@<SCITEGIC>MOL_PROPERTY
Probability
SciTegic.value.DoubleValue
0.22

@<SCITEGIC>MOL_PROPERTY
Sum Probability
SciTegic.value.DoubleValue
90.73

@<SCITEGIC>MOL_PROPERTY
Delta G
SciTegic.value.DoubleValue
1.905

@<SCITEGIC>MOL_PROPERTY
G
SciTegic.value.DoubleValue
60.053

@<SCITEGIC>MOL_PROPERTY
E
SciTegic.value.DoubleValue
22.477

@<SCITEGIC>MOL_PROPERTY
-TS
SciTegic.value.DoubleValue
37.576

@<SCITEGIC>MOL_PROPERTY
U+W
SciTegic.value.DoubleValue
-1.667

@<SCITEGIC>MOL_PROPERTY
U
SciTegic.value.DoubleValue
50.254

@<SCITEGIC>MOL_PROPERTY
W
SciTegic.value.DoubleValue
-51.921

@<SCITEGIC>MOL_PROPERTY
W(PB)
SciTegic.value.DoubleValue
-54.435

@<SCITEGIC>MOL_PROPERTY
W(SA)
SciTegic.value.DoubleValue
2.514

@<SCITEGIC>MOL_PROPERTY
Valence
SciTegic.value.DoubleValue
3.959

@<SCITEGIC>MOL_PROPERTY
Coulomb
SciTegic.value.DoubleValue
45.374

@<SCITEGIC>MOL_PROPERTY
VdW
SciTegic.value.DoubleValue
0.921

@<SCITEGIC>MOL_PROPERTY
VdW6
SciTegic.value.DoubleValue
-9.108

@<SCITEGIC>MOL_PROPERTY
VdW12
SciTegic.value.DoubleValue
10.028

@<SCITEGIC>MOL_PROPERTY
Bond
SciTegic.value.DoubleValue
0.261

@<SCITEGIC>MOL_PROPERTY
Angle
SciTegic.value.DoubleValue
1.234

@<SCITEGIC>MOL_PROPERTY
Pdih
SciTegic.value.DoubleValue
2.465

@<SCITEGIC>MOL_PROPERTY
Idih
SciTegic.value.DoubleValue
0.000

@<SCITEGIC>MOL_PROPERTY
Tether
SciTegic.value.DoubleValue
0.000

@<TRIPOS>MOLECULE
guest-3_vm2.mol2 : vm2 ligand conformer 126
          29          28           1
SMALL
USER_CHARGES
 
@<TRIPOS>ATOM
       1    C1      20.725737   19.282375   20.270164 C.3        1 MOL1        -0.2427
       2    H1      20.167606   19.045509   19.355118 H          1 MOL1         0.0958
       3    H2      21.616417   19.855522   19.982075 H          1 MOL1         0.0958
       4    H3      21.068274   18.340898   20.717275 H          1 MOL1         0.0958
       5    C2      19.855430   20.093340   21.256461 C.3        1 MOL1        -0.1412
       6    H4      19.628116   21.070047   20.807125 H          1 MOL1         0.0947
       7    H5      20.429507   20.307482   22.167842 H          1 MOL1         0.0947
       8    C3      18.520940   19.392632   21.616669 C.3        1 MOL1        -0.1437
       9    H6      17.936952   20.052618   22.271637 H          1 MOL1         0.0947
      10    H7      17.921839   19.281345   20.702515 H          1 MOL1         0.0947
      11    C4      18.666080   17.998878   22.285092 C.3        1 MOL1        -0.1437
      12    H8      19.091365   17.292106   21.560207 H          1 MOL1         0.0947
      13    H9      17.663117   17.614874   22.516508 H          1 MOL1         0.0947
      14    C5      19.524131   17.969718   23.576046 C.3        1 MOL1        -0.1437
      15    H10     19.567691   16.933417   23.938403 H          1 MOL1         0.0947
      16    H11     20.559514   18.252097   23.343924 H          1 MOL1         0.0947
      17    C6      18.973711   18.875100   24.703703 C.3        1 MOL1        -0.1437
      18    H12     17.925818   18.613657   24.906189 H          1 MOL1         0.0947
      19    H13     18.984455   19.924436   24.380473 H          1 MOL1         0.0947
      20    C7      19.798810   18.739259   26.002097 C.3        1 MOL1        -0.1477
      21    H14     19.785878   17.694915   26.341555 H          1 MOL1         0.0947
      22    H15     20.846654   19.000978   25.803054 H          1 MOL1         0.0947
      23    C8      19.247576   19.645930   27.116372 C.3        1 MOL1         0.0145
      24    H16     18.209084   19.378053   27.329041 H          1 MOL1         0.0921
      25    H17     19.274169   20.688928   26.789428 H          1 MOL1         0.0921
      26    N1      20.031586   19.540768   28.408396 N.4        1 MOL1        -0.5969
      27    H18     21.013893   19.806351   28.281712 H          1 MOL1         0.3603
      28    H19     20.022656   18.586554   28.783796 H          1 MOL1         0.3603
      29    H20     19.648142   20.152415   29.137492 H          1 MOL1         0.3603
@<TRIPOS>BOND
    1     1     2    1
    2     1     3    1
    3     1     4    1
    4     1     5    1
    5     5     6    1
    6     5     7    1
    7     5     8    1
    8     8     9    1
    9     8    10    1
   10     8    11    1
   11    11    12    1
   12    11    13    1
   13    11    14    1
   14    14    15    1
   15    14    16    1
   16    14    17    1
   17    17    18    1
   18    17    19    1
   19    17    20    1
   20    20    21    1
   21    20    22    1
   22    20    23    1
   23    23    24    1
   24    23    25    1
   25    23    26    1
   26    26    27    1
   27    26    28    1
   28    26    29    1
@<TRIPOS>SUBSTRUCTURE
       1 MOL1            1 RESIDUE      1      MOL     
@<SCITEGIC>MOL_PROPERTY
VM2 Rank
SciTegic.value.IntegerValue
126

@<SCITEGIC>MOL_PROPERTY
Conf_Id
SciTegic.value.IntegerValue
1283

@<SCITEGIC>MOL_PROPERTY
Probability
SciTegic.value.DoubleValue
0.21

@<SCITEGIC>MOL_PROPERTY
Sum Probability
SciTegic.value.DoubleValue
90.94

@<SCITEGIC>MOL_PROPERTY
Delta G
SciTegic.value.DoubleValue
1.933

@<SCITEGIC>MOL_PROPERTY
G
SciTegic.value.DoubleValue
60.081

@<SCITEGIC>MOL_PROPERTY
E
SciTegic.value.DoubleValue
22.125

@<SCITEGIC>MOL_PROPERTY
-TS
SciTegic.value.DoubleValue
37.956

@<SCITEGIC>MOL_PROPERTY
U+W
SciTegic.value.DoubleValue
-2.020

@<SCITEGIC>MOL_PROPERTY
U
SciTegic.value.DoubleValue
49.550

@<SCITEGIC>MOL_PROPERTY
W
SciTegic.value.DoubleValue
-51.570

@<SCITEGIC>MOL_PROPERTY
W(PB)
SciTegic.value.DoubleValue
-54.045

@<SCITEGIC>MOL_PROPERTY
W(SA)
SciTegic.value.DoubleValue
2.475

@<SCITEGIC>MOL_PROPERTY
Valence
SciTegic.value.DoubleValue
3.990

@<SCITEGIC>MOL_PROPERTY
Coulomb
SciTegic.value.DoubleValue
44.825

@<SCITEGIC>MOL_PROPERTY
VdW
SciTegic.value.DoubleValue
0.735

@<SCITEGIC>MOL_PROPERTY
VdW6
SciTegic.value.DoubleValue
-9.508

@<SCITEGIC>MOL_PROPERTY
VdW12
SciTegic.value.DoubleValue
10.243

@<SCITEGIC>MOL_PROPERTY
Bond
SciTegic.value.DoubleValue
0.268

@<SCITEGIC>MOL_PROPERTY
Angle
SciTegic.value.DoubleValue
1.374

@<SCITEGIC>MOL_PROPERTY
Pdih
SciTegic.value.DoubleValue
2.348

@<SCITEGIC>MOL_PROPERTY
Idih
SciTegic.value.DoubleValue
0.000

@<SCITEGIC>MOL_PROPERTY
Tether
SciTegic.value.DoubleValue
0.000

@<TRIPOS>MOLECULE
guest-3_vm2.mol2 : vm2 ligand conformer 127
          29          28           1
SMALL
USER_CHARGES
 
@<TRIPOS>ATOM
       1    C1      21.040542   18.255632   20.952120 C.3        1 MOL1        -0.2427
       2    H1      21.152033   18.025418   22.019038 H          1 MOL1         0.0958
       3    H2      21.324894   17.357541   20.388735 H          1 MOL1         0.0958
       4    H3      21.750455   19.052565   20.695500 H          1 MOL1         0.0958
       5    C2      19.591776   18.672048   20.611730 C.3        1 MOL1        -0.1412
       6    H4      18.898957   17.868982   20.896643 H          1 MOL1         0.0947
       7    H5      19.500192   18.775184   19.521507 H          1 MOL1         0.0947
       8    C3      19.163258   20.007733   21.271096 C.3        1 MOL1        -0.1437
       9    H6      19.794818   20.816409   20.878347 H          1 MOL1         0.0947
      10    H7      18.138527   20.245994   20.954466 H          1 MOL1         0.0947
      11    C4      19.230929   20.031273   22.819830 C.3        1 MOL1        -0.1437
      12    H8      18.919077   21.026604   23.164750 H          1 MOL1         0.0947
      13    H9      20.272722   19.910716   23.141924 H          1 MOL1         0.0947
      14    C5      18.334717   18.960303   23.491111 C.3        1 MOL1        -0.1437
      15    H10     17.320946   19.029481   23.073329 H          1 MOL1         0.0947
      16    H11     18.702921   17.954869   23.247818 H          1 MOL1         0.0947
      17    C6      18.244441   19.109100   25.029521 C.3        1 MOL1        -0.1437
      18    H12     17.507988   18.386145   25.407159 H          1 MOL1         0.0947
      19    H13     17.855617   20.105472   25.281628 H          1 MOL1         0.0947
      20    C7      19.592308   18.876822   25.751649 C.3        1 MOL1        -0.1477
      21    H14     20.004303   17.901356   25.460739 H          1 MOL1         0.0947
      22    H15     20.320137   19.639785   25.448120 H          1 MOL1         0.0947
      23    C8      19.423821   18.925289   27.280297 C.3        1 MOL1         0.0145
      24    H16     18.714311   18.156115   27.597155 H          1 MOL1         0.0921
      25    H17     19.028988   19.900934   27.576389 H          1 MOL1         0.0921
      26    N1      20.722209   18.699800   28.027645 N.4        1 MOL1        -0.5969
      27    H18     21.132452   17.784900   27.812818 H          1 MOL1         0.3603
      28    H19     20.587547   18.735712   29.044158 H          1 MOL1         0.3603
      29    H20     21.425348   19.408722   27.794221 H          1 MOL1         0.3603
@<TRIPOS>BOND
    1     1     2    1
    2     1     3    1
    3     1     4    1
    4     1     5    1
    5     5     6    1
    6     5     7    1
    7     5     8    1
    8     8     9    1
    9     8    10    1
   10     8    11    1
   11    11    12    1
   12    11    13    1
   13    11    14    1
   14    14    15    1
   15    14    16    1
   16    14    17    1
   17    17    18    1
   18    17    19    1
   19    17    20    1
   20    20    21    1
   21    20    22    1
   22    20    23    1
   23    23    24    1
   24    23    25    1
   25    23    26    1
   26    26    27    1
   27    26    28    1
   28    26    29    1
@<TRIPOS>SUBSTRUCTURE
       1 MOL1            1 RESIDUE      1      MOL     
@<SCITEGIC>MOL_PROPERTY
VM2 Rank
SciTegic.value.IntegerValue
127

@<SCITEGIC>MOL_PROPERTY
Conf_Id
SciTegic.value.IntegerValue
892

@<SCITEGIC>MOL_PROPERTY
Probability
SciTegic.value.DoubleValue
0.20

@<SCITEGIC>MOL_PROPERTY
Sum Probability
SciTegic.value.DoubleValue
91.14

@<SCITEGIC>MOL_PROPERTY
Delta G
SciTegic.value.DoubleValue
1.957

@<SCITEGIC>MOL_PROPERTY
G
SciTegic.value.DoubleValue
60.105

@<SCITEGIC>MOL_PROPERTY
E
SciTegic.value.DoubleValue
22.368

@<SCITEGIC>MOL_PROPERTY
-TS
SciTegic.value.DoubleValue
37.737

@<SCITEGIC>MOL_PROPERTY
U+W
SciTegic.value.DoubleValue
-1.776

@<SCITEGIC>MOL_PROPERTY
U
SciTegic.value.DoubleValue
49.942

@<SCITEGIC>MOL_PROPERTY
W
SciTegic.value.DoubleValue
-51.718

@<SCITEGIC>MOL_PROPERTY
W(PB)
SciTegic.value.DoubleValue
-54.192

@<SCITEGIC>MOL_PROPERTY
W(SA)
SciTegic.value.DoubleValue
2.474

@<SCITEGIC>MOL_PROPERTY
Valence
SciTegic.value.DoubleValue
4.040

@<SCITEGIC>MOL_PROPERTY
Coulomb
SciTegic.value.DoubleValue
45.040

@<SCITEGIC>MOL_PROPERTY
VdW
SciTegic.value.DoubleValue
0.862

@<SCITEGIC>MOL_PROPERTY
VdW6
SciTegic.value.DoubleValue
-9.281

@<SCITEGIC>MOL_PROPERTY
VdW12
SciTegic.value.DoubleValue
10.143

@<SCITEGIC>MOL_PROPERTY
Bond
SciTegic.value.DoubleValue
0.263

@<SCITEGIC>MOL_PROPERTY
Angle
SciTegic.value.DoubleValue
1.239

@<SCITEGIC>MOL_PROPERTY
Pdih
SciTegic.value.DoubleValue
2.539

@<SCITEGIC>MOL_PROPERTY
Idih
SciTegic.value.DoubleValue
0.000

@<SCITEGIC>MOL_PROPERTY
Tether
SciTegic.value.DoubleValue
0.000

@<TRIPOS>MOLECULE
guest-3_vm2.mol2 : vm2 ligand conformer 128
          29          28           1
SMALL
USER_CHARGES
 
@<TRIPOS>ATOM
       1    C1      20.231521   19.312033   19.791424 C.3        1 MOL1        -0.2427
       2    H1      20.682169   18.330272   19.981799 H          1 MOL1         0.0958
       3    H2      19.244385   19.155974   19.337306 H          1 MOL1         0.0958
       4    H3      20.862227   19.826322   19.054786 H          1 MOL1         0.0958
       5    C2      20.121519   20.148752   21.086269 C.3        1 MOL1        -0.1412
       6    H4      19.787477   21.162187   20.823372 H          1 MOL1         0.0947
       7    H5      21.116008   20.261120   21.540191 H          1 MOL1         0.0947
       8    C3      19.136495   19.556510   22.123014 C.3        1 MOL1        -0.1437
       9    H6      19.025889   20.283460   22.937833 H          1 MOL1         0.0947
      10    H7      18.143394   19.447975   21.665971 H          1 MOL1         0.0947
      11    C4      19.596893   18.195477   22.703843 C.3        1 MOL1        -0.1437
      12    H8      20.591126   18.301857   23.157044 H          1 MOL1         0.0947
      13    H9      19.713858   17.471495   21.887379 H          1 MOL1         0.0947
      14    C5      18.605764   17.592001   23.732900 C.3        1 MOL1        -0.1437
      15    H10     17.651533   17.386004   23.228729 H          1 MOL1         0.0947
      16    H11     18.989505   16.615225   24.058220 H          1 MOL1         0.0947
      17    C6      18.328803   18.462699   24.985965 C.3        1 MOL1        -0.1437
      18    H12     17.623794   17.922079   25.632685 H          1 MOL1         0.0947
      19    H13     17.817814   19.390027   24.695087 H          1 MOL1         0.0947
      20    C7      19.599637   18.798757   25.800599 C.3        1 MOL1        -0.1477
      21    H14     20.130910   17.872205   26.055697 H          1 MOL1         0.0947
      22    H15     20.283249   19.409618   25.197454 H          1 MOL1         0.0947
      23    C8      19.252233   19.561736   27.090745 C.3        1 MOL1         0.0145
      24    H16     18.585479   18.954862   27.709269 H          1 MOL1         0.0921
      25    H17     18.737025   20.493013   26.840315 H          1 MOL1         0.0921
      26    N1      20.471134   19.910036   27.920240 N.4        1 MOL1        -0.5969
      27    H18     21.127595   20.504605   27.403543 H          1 MOL1         0.3603
      28    H19     20.986530   19.072748   28.211467 H          1 MOL1         0.3603
      29    H20     20.217529   20.417339   28.775243 H          1 MOL1         0.3603
@<TRIPOS>BOND
    1     1     2    1
    2     1     3    1
    3     1     4    1
    4     1     5    1
    5     5     6    1
    6     5     7    1
    7     5     8    1
    8     8     9    1
    9     8    10    1
   10     8    11    1
   11    11    12    1
   12    11    13    1
   13    11    14    1
   14    14    15    1
   15    14    16    1
   16    14    17    1
   17    17    18    1
   18    17    19    1
   19    17    20    1
   20    20    21    1
   21    20    22    1
   22    20    23    1
   23    23    24    1
   24    23    25    1
   25    23    26    1
   26    26    27    1
   27    26    28    1
   28    26    29    1
@<TRIPOS>SUBSTRUCTURE
       1 MOL1            1 RESIDUE      1      MOL     
@<SCITEGIC>MOL_PROPERTY
VM2 Rank
SciTegic.value.IntegerValue
128

@<SCITEGIC>MOL_PROPERTY
Conf_Id
SciTegic.value.IntegerValue
290

@<SCITEGIC>MOL_PROPERTY
Probability
SciTegic.value.DoubleValue
0.20

@<SCITEGIC>MOL_PROPERTY
Sum Probability
SciTegic.value.DoubleValue
91.34

@<SCITEGIC>MOL_PROPERTY
Delta G
SciTegic.value.DoubleValue
1.959

@<SCITEGIC>MOL_PROPERTY
G
SciTegic.value.DoubleValue
60.107

@<SCITEGIC>MOL_PROPERTY
E
SciTegic.value.DoubleValue
22.397

@<SCITEGIC>MOL_PROPERTY
-TS
SciTegic.value.DoubleValue
37.709

@<SCITEGIC>MOL_PROPERTY
U+W
SciTegic.value.DoubleValue
-1.747

@<SCITEGIC>MOL_PROPERTY
U
SciTegic.value.DoubleValue
50.232

@<SCITEGIC>MOL_PROPERTY
W
SciTegic.value.DoubleValue
-51.979

@<SCITEGIC>MOL_PROPERTY
W(PB)
SciTegic.value.DoubleValue
-54.438

@<SCITEGIC>MOL_PROPERTY
W(SA)
SciTegic.value.DoubleValue
2.459

@<SCITEGIC>MOL_PROPERTY
Valence
SciTegic.value.DoubleValue
4.148

@<SCITEGIC>MOL_PROPERTY
Coulomb
SciTegic.value.DoubleValue
45.153

@<SCITEGIC>MOL_PROPERTY
VdW
SciTegic.value.DoubleValue
0.932

@<SCITEGIC>MOL_PROPERTY
VdW6
SciTegic.value.DoubleValue
-9.217

@<SCITEGIC>MOL_PROPERTY
VdW12
SciTegic.value.DoubleValue
10.148

@<SCITEGIC>MOL_PROPERTY
Bond
SciTegic.value.DoubleValue
0.273

@<SCITEGIC>MOL_PROPERTY
Angle
SciTegic.value.DoubleValue
1.395

@<SCITEGIC>MOL_PROPERTY
Pdih
SciTegic.value.DoubleValue
2.481

@<SCITEGIC>MOL_PROPERTY
Idih
SciTegic.value.DoubleValue
0.000

@<SCITEGIC>MOL_PROPERTY
Tether
SciTegic.value.DoubleValue
0.000

@<TRIPOS>MOLECULE
guest-3_vm2.mol2 : vm2 ligand conformer 129
          29          28           1
SMALL
USER_CHARGES
 
@<TRIPOS>ATOM
       1    C1      20.361349   19.222271   19.485219 C.3        1 MOL1        -0.2427
       2    H1      20.558241   18.191250   19.163575 H          1 MOL1         0.0958
       3    H2      19.871962   19.746616   18.654193 H          1 MOL1         0.0958
       4    H3      21.325762   19.712430   19.672029 H          1 MOL1         0.0958
       5    C2      19.472051   19.250366   20.746336 C.3        1 MOL1        -0.1412
       6    H4      18.505142   18.779492   20.520464 H          1 MOL1         0.0947
       7    H5      19.263911   20.295372   21.010752 H          1 MOL1         0.0947
       8    C3      20.144080   18.520465   21.933354 C.3        1 MOL1        -0.1437
       9    H6      20.418948   17.505119   21.615811 H          1 MOL1         0.0947
      10    H7      21.083762   19.025733   22.195831 H          1 MOL1         0.0947
      11    C4      19.243888   18.412572   23.188804 C.3        1 MOL1        -0.1437
      12    H8      19.750297   17.759101   23.910699 H          1 MOL1         0.0947
      13    H9      18.302216   17.912160   22.924558 H          1 MOL1         0.0947
      14    C5      18.942500   19.779623   23.853988 C.3        1 MOL1        -0.1437
      15    H10     19.884388   20.280966   24.113660 H          1 MOL1         0.0947
      16    H11     18.439389   20.435206   23.131943 H          1 MOL1         0.0947
      17    C6      18.035425   19.672726   25.107429 C.3        1 MOL1        -0.1437
      18    H12     17.061906   19.257095   24.812934 H          1 MOL1         0.0947
      19    H13     17.830557   20.686226   25.479288 H          1 MOL1         0.0947
      20    C7      18.614494   18.824298   26.267004 C.3        1 MOL1        -0.1477
      21    H14     17.910658   18.850621   27.109470 H          1 MOL1         0.0947
      22    H15     18.689380   17.772374   25.963712 H          1 MOL1         0.0947
      23    C8      19.989536   19.326737   26.744490 C.3        1 MOL1         0.0145
      24    H16     19.911277   20.371337   27.057539 H          1 MOL1         0.0921
      25    H17     20.709750   19.265209   25.924446 H          1 MOL1         0.0921
      26    N1      20.540676   18.528942   27.908375 N.4        1 MOL1        -0.5969
      27    H18     19.921602   18.568044   28.724871 H          1 MOL1         0.3603
      28    H19     21.456376   18.879278   28.210640 H          1 MOL1         0.3603
      29    H20     20.663100   17.539429   27.669178 H          1 MOL1         0.3603
@<TRIPOS>BOND
    1     1     2    1
    2     1     3    1
    3     1     4    1
    4     1     5    1
    5     5     6    1
    6     5     7    1
    7     5     8    1
    8     8     9    1
    9     8    10    1
   10     8    11    1
   11    11    12    1
   12    11    13    1
   13    11    14    1
   14    14    15    1
   15    14    16    1
   16    14    17    1
   17    17    18    1
   18    17    19    1
   19    17    20    1
   20    20    21    1
   21    20    22    1
   22    20    23    1
   23    23    24    1
   24    23    25    1
   25    23    26    1
   26    26    27    1
   27    26    28    1
   28    26    29    1
@<TRIPOS>SUBSTRUCTURE
       1 MOL1            1 RESIDUE      1      MOL     
@<SCITEGIC>MOL_PROPERTY
VM2 Rank
SciTegic.value.IntegerValue
129

@<SCITEGIC>MOL_PROPERTY
Conf_Id
SciTegic.value.IntegerValue
964

@<SCITEGIC>MOL_PROPERTY
Probability
SciTegic.value.DoubleValue
0.20

@<SCITEGIC>MOL_PROPERTY
Sum Probability
SciTegic.value.DoubleValue
91.54

@<SCITEGIC>MOL_PROPERTY
Delta G
SciTegic.value.DoubleValue
1.971

@<SCITEGIC>MOL_PROPERTY
G
SciTegic.value.DoubleValue
60.119

@<SCITEGIC>MOL_PROPERTY
E
SciTegic.value.DoubleValue
22.544

@<SCITEGIC>MOL_PROPERTY
-TS
SciTegic.value.DoubleValue
37.576

@<SCITEGIC>MOL_PROPERTY
U+W
SciTegic.value.DoubleValue
-1.601

@<SCITEGIC>MOL_PROPERTY
U
SciTegic.value.DoubleValue
50.254

@<SCITEGIC>MOL_PROPERTY
W
SciTegic.value.DoubleValue
-51.855

@<SCITEGIC>MOL_PROPERTY
W(PB)
SciTegic.value.DoubleValue
-54.370

@<SCITEGIC>MOL_PROPERTY
W(SA)
SciTegic.value.DoubleValue
2.515

@<SCITEGIC>MOL_PROPERTY
Valence
SciTegic.value.DoubleValue
3.959

@<SCITEGIC>MOL_PROPERTY
Coulomb
SciTegic.value.DoubleValue
45.374

@<SCITEGIC>MOL_PROPERTY
VdW
SciTegic.value.DoubleValue
0.921

@<SCITEGIC>MOL_PROPERTY
VdW6
SciTegic.value.DoubleValue
-9.108

@<SCITEGIC>MOL_PROPERTY
VdW12
SciTegic.value.DoubleValue
10.029

@<SCITEGIC>MOL_PROPERTY
Bond
SciTegic.value.DoubleValue
0.261

@<SCITEGIC>MOL_PROPERTY
Angle
SciTegic.value.DoubleValue
1.234

@<SCITEGIC>MOL_PROPERTY
Pdih
SciTegic.value.DoubleValue
2.465

@<SCITEGIC>MOL_PROPERTY
Idih
SciTegic.value.DoubleValue
0.000

@<SCITEGIC>MOL_PROPERTY
Tether
SciTegic.value.DoubleValue
0.000

@<TRIPOS>MOLECULE
guest-3_vm2.mol2 : vm2 ligand conformer 130
          29          28           1
SMALL
USER_CHARGES
 
@<TRIPOS>ATOM
       1    C1      20.138885   19.622079   19.511326 C.3        1 MOL1        -0.2427
       2    H1      20.278700   20.617842   19.949605 H          1 MOL1         0.0958
       3    H2      21.102045   19.096045   19.536417 H          1 MOL1         0.0958
       4    H3      19.860396   19.762076   18.458815 H          1 MOL1         0.0958
       5    C2      19.047924   18.819939   20.256533 C.3        1 MOL1        -0.1412
       6    H4      18.856015   17.889471   19.704101 H          1 MOL1         0.0947
       7    H5      18.103873   19.382446   20.248101 H          1 MOL1         0.0947
       8    C3      19.430653   18.460729   21.712803 C.3        1 MOL1        -0.1437
       9    H6      18.663640   17.781486   22.105636 H          1 MOL1         0.0947
      10    H7      20.374379   17.898272   21.715488 H          1 MOL1         0.0947
      11    C4      19.555043   19.696466   22.640265 C.3        1 MOL1        -0.1437
      12    H8      18.610192   20.257013   22.641405 H          1 MOL1         0.0947
      13    H9      20.317087   20.376669   22.238810 H          1 MOL1         0.0947
      14    C5      19.951225   19.343882   24.095427 C.3        1 MOL1        -0.1437
      15    H10     20.886515   18.767340   24.091900 H          1 MOL1         0.0947
      16    H11     20.169442   20.281512   24.623297 H          1 MOL1         0.0947
      17    C6      18.856432   18.562415   24.865814 C.3        1 MOL1        -0.1437
      18    H12     18.658154   17.608143   24.361514 H          1 MOL1         0.0947
      19    H13     17.914138   19.127301   24.846895 H          1 MOL1         0.0947
      20    C7      19.246291   18.260032   26.331950 C.3        1 MOL1        -0.1477
      21    H14     18.476633   17.616675   26.778803 H          1 MOL1         0.0947
      22    H15     20.184491   17.689697   26.354332 H          1 MOL1         0.0947
      23    C8      19.392656   19.533280   27.186195 C.3        1 MOL1         0.0145
      24    H16     18.458818   20.101402   27.162792 H          1 MOL1         0.0921
      25    H17     20.189353   20.162363   26.781223 H          1 MOL1         0.0921
      26    N1      19.724891   19.239179   28.634687 N.4        1 MOL1        -0.5969
      27    H18     20.608677   18.727487   28.727357 H          1 MOL1         0.3603
      28    H19     18.998985   18.672207   29.085355 H          1 MOL1         0.3603
      29    H20     19.817922   20.099156   29.186470 H          1 MOL1         0.3603
@<TRIPOS>BOND
    1     1     2    1
    2     1     3    1
    3     1     4    1
    4     1     5    1
    5     5     6    1
    6     5     7    1
    7     5     8    1
    8     8     9    1
    9     8    10    1
   10     8    11    1
   11    11    12    1
   12    11    13    1
   13    11    14    1
   14    14    15    1
   15    14    16    1
   16    14    17    1
   17    17    18    1
   18    17    19    1
   19    17    20    1
   20    20    21    1
   21    20    22    1
   22    20    23    1
   23    23    24    1
   24    23    25    1
   25    23    26    1
   26    26    27    1
   27    26    28    1
   28    26    29    1
@<TRIPOS>SUBSTRUCTURE
       1 MOL1            1 RESIDUE      1      MOL     
@<SCITEGIC>MOL_PROPERTY
VM2 Rank
SciTegic.value.IntegerValue
130

@<SCITEGIC>MOL_PROPERTY
Conf_Id
SciTegic.value.IntegerValue
2083

@<SCITEGIC>MOL_PROPERTY
Probability
SciTegic.value.DoubleValue
0.20

@<SCITEGIC>MOL_PROPERTY
Sum Probability
SciTegic.value.DoubleValue
91.73

@<SCITEGIC>MOL_PROPERTY
Delta G
SciTegic.value.DoubleValue
1.975

@<SCITEGIC>MOL_PROPERTY
G
SciTegic.value.DoubleValue
60.123

@<SCITEGIC>MOL_PROPERTY
E
SciTegic.value.DoubleValue
22.726

@<SCITEGIC>MOL_PROPERTY
-TS
SciTegic.value.DoubleValue
37.397

@<SCITEGIC>MOL_PROPERTY
U+W
SciTegic.value.DoubleValue
-1.418

@<SCITEGIC>MOL_PROPERTY
U
SciTegic.value.DoubleValue
49.967

@<SCITEGIC>MOL_PROPERTY
W
SciTegic.value.DoubleValue
-51.385

@<SCITEGIC>MOL_PROPERTY
W(PB)
SciTegic.value.DoubleValue
-53.926

@<SCITEGIC>MOL_PROPERTY
W(SA)
SciTegic.value.DoubleValue
2.541

@<SCITEGIC>MOL_PROPERTY
Valence
SciTegic.value.DoubleValue
4.059

@<SCITEGIC>MOL_PROPERTY
Coulomb
SciTegic.value.DoubleValue
44.783

@<SCITEGIC>MOL_PROPERTY
VdW
SciTegic.value.DoubleValue
1.124

@<SCITEGIC>MOL_PROPERTY
VdW6
SciTegic.value.DoubleValue
-8.699

@<SCITEGIC>MOL_PROPERTY
VdW12
SciTegic.value.DoubleValue
9.823

@<SCITEGIC>MOL_PROPERTY
Bond
SciTegic.value.DoubleValue
0.258

@<SCITEGIC>MOL_PROPERTY
Angle
SciTegic.value.DoubleValue
1.106

@<SCITEGIC>MOL_PROPERTY
Pdih
SciTegic.value.DoubleValue
2.695

@<SCITEGIC>MOL_PROPERTY
Idih
SciTegic.value.DoubleValue
0.000

@<SCITEGIC>MOL_PROPERTY
Tether
SciTegic.value.DoubleValue
0.000

@<TRIPOS>MOLECULE
guest-3_vm2.mol2 : vm2 ligand conformer 131
          29          28           1
SMALL
USER_CHARGES
 
@<TRIPOS>ATOM
       1    C1      19.962219   18.554112   19.774860 C.3        1 MOL1        -0.2427
       2    H1      20.136172   17.786415   19.009809 H          1 MOL1         0.0958
       3    H2      19.303026   19.317069   19.340838 H          1 MOL1         0.0958
       4    H3      20.929359   19.021073   19.997950 H          1 MOL1         0.0958
       5    C2      19.328983   17.925339   21.036793 C.3        1 MOL1        -0.1412
       6    H4      20.021518   17.191539   21.472240 H          1 MOL1         0.0947
       7    H5      18.433174   17.362985   20.738408 H          1 MOL1         0.0947
       8    C3      18.925559   18.965560   22.109665 C.3        1 MOL1        -0.1437
       9    H6      18.231479   19.695476   21.671033 H          1 MOL1         0.0947
      10    H7      18.368549   18.440923   22.896502 H          1 MOL1         0.0947
      11    C4      20.134398   19.704651   22.737512 C.3        1 MOL1        -0.1437
      12    H8      20.694231   20.223351   21.948853 H          1 MOL1         0.0947
      13    H9      20.830985   18.975838   23.172028 H          1 MOL1         0.0947
      14    C5      19.733474   20.757327   23.803631 C.3        1 MOL1        -0.1437
      15    H10     20.643614   21.257795   24.161904 H          1 MOL1         0.0947
      16    H11     19.131440   21.539889   23.321622 H          1 MOL1         0.0947
      17    C6      18.950956   20.208847   25.025038 C.3        1 MOL1        -0.1437
      18    H12     17.972943   19.825828   24.704972 H          1 MOL1         0.0947
      19    H13     18.737472   21.047167   25.702680 H          1 MOL1         0.0947
      20    C7      19.711638   19.113069   25.807481 C.3        1 MOL1        -0.1477
      21    H14     19.863454   18.232155   25.170925 H          1 MOL1         0.0947
      22    H15     20.705407   19.484048   26.091418 H          1 MOL1         0.0947
      23    C8      18.942158   18.691084   27.071258 C.3        1 MOL1         0.0145
      24    H16     17.957761   18.306164   26.791561 H          1 MOL1         0.0921
      25    H17     18.800715   19.557628   27.722813 H          1 MOL1         0.0921
      26    N1      19.654615   17.618012   27.868763 N.4        1 MOL1        -0.5969
      27    H18     20.579154   17.928475   28.185524 H          1 MOL1         0.3603
      28    H19     19.794477   16.763463   27.319569 H          1 MOL1         0.3603
      29    H20     19.125488   17.351820   28.706538 H          1 MOL1         0.3603
@<TRIPOS>BOND
    1     1     2    1
    2     1     3    1
    3     1     4    1
    4     1     5    1
    5     5     6    1
    6     5     7    1
    7     5     8    1
    8     8     9    1
    9     8    10    1
   10     8    11    1
   11    11    12    1
   12    11    13    1
   13    11    14    1
   14    14    15    1
   15    14    16    1
   16    14    17    1
   17    17    18    1
   18    17    19    1
   19    17    20    1
   20    20    21    1
   21    20    22    1
   22    20    23    1
   23    23    24    1
   24    23    25    1
   25    23    26    1
   26    26    27    1
   27    26    28    1
   28    26    29    1
@<TRIPOS>SUBSTRUCTURE
       1 MOL1            1 RESIDUE      1      MOL     
@<SCITEGIC>MOL_PROPERTY
VM2 Rank
SciTegic.value.IntegerValue
131

@<SCITEGIC>MOL_PROPERTY
Conf_Id
SciTegic.value.IntegerValue
1661

@<SCITEGIC>MOL_PROPERTY
Probability
SciTegic.value.DoubleValue
0.18

@<SCITEGIC>MOL_PROPERTY
Sum Probability
SciTegic.value.DoubleValue
91.91

@<SCITEGIC>MOL_PROPERTY
Delta G
SciTegic.value.DoubleValue
2.039

@<SCITEGIC>MOL_PROPERTY
G
SciTegic.value.DoubleValue
60.187

@<SCITEGIC>MOL_PROPERTY
E
SciTegic.value.DoubleValue
22.478

@<SCITEGIC>MOL_PROPERTY
-TS
SciTegic.value.DoubleValue
37.709

@<SCITEGIC>MOL_PROPERTY
U+W
SciTegic.value.DoubleValue
-1.667

@<SCITEGIC>MOL_PROPERTY
U
SciTegic.value.DoubleValue
50.232

@<SCITEGIC>MOL_PROPERTY
W
SciTegic.value.DoubleValue
-51.899

@<SCITEGIC>MOL_PROPERTY
W(PB)
SciTegic.value.DoubleValue
-54.359

@<SCITEGIC>MOL_PROPERTY
W(SA)
SciTegic.value.DoubleValue
2.459

@<SCITEGIC>MOL_PROPERTY
Valence
SciTegic.value.DoubleValue
4.148

@<SCITEGIC>MOL_PROPERTY
Coulomb
SciTegic.value.DoubleValue
45.153

@<SCITEGIC>MOL_PROPERTY
VdW
SciTegic.value.DoubleValue
0.932

@<SCITEGIC>MOL_PROPERTY
VdW6
SciTegic.value.DoubleValue
-9.217

@<SCITEGIC>MOL_PROPERTY
VdW12
SciTegic.value.DoubleValue
10.149

@<SCITEGIC>MOL_PROPERTY
Bond
SciTegic.value.DoubleValue
0.273

@<SCITEGIC>MOL_PROPERTY
Angle
SciTegic.value.DoubleValue
1.395

@<SCITEGIC>MOL_PROPERTY
Pdih
SciTegic.value.DoubleValue
2.480

@<SCITEGIC>MOL_PROPERTY
Idih
SciTegic.value.DoubleValue
0.000

@<SCITEGIC>MOL_PROPERTY
Tether
SciTegic.value.DoubleValue
0.000

@<TRIPOS>MOLECULE
guest-3_vm2.mol2 : vm2 ligand conformer 132
          29          28           1
SMALL
USER_CHARGES
 
@<TRIPOS>ATOM
       1    C1      18.699526   18.472644   20.053166 C.3        1 MOL1        -0.2427
       2    H1      18.002765   18.291917   20.881186 H          1 MOL1         0.0958
       3    H2      18.109099   18.813070   19.192737 H          1 MOL1         0.0958
       4    H3      19.168625   17.517785   19.782740 H          1 MOL1         0.0958
       5    C2      19.764321   19.527115   20.430329 C.3        1 MOL1        -0.1412
       6    H4      19.271587   20.465550   20.717243 H          1 MOL1         0.0947
       7    H5      20.359940   19.762858   19.537417 H          1 MOL1         0.0947
       8    C3      20.725119   19.059592   21.553369 C.3        1 MOL1        -0.1437
       9    H6      21.302243   18.198974   21.188170 H          1 MOL1         0.0947
      10    H7      21.459529   19.854134   21.744254 H          1 MOL1         0.0947
      11    C4      20.046930   18.668226   22.892074 C.3        1 MOL1        -0.1437
      12    H8      20.832795   18.325806   23.577075 H          1 MOL1         0.0947
      13    H9      19.383364   17.807245   22.737859 H          1 MOL1         0.0947
      14    C5      19.257108   19.828636   23.549065 C.3        1 MOL1        -0.1437
      15    H10     19.922750   20.688178   23.707394 H          1 MOL1         0.0947
      16    H11     18.470727   20.167946   22.862623 H          1 MOL1         0.0947
      17    C6      18.583864   19.438965   24.888112 C.3        1 MOL1        -0.1437
      18    H12     17.920174   18.577566   24.729919 H          1 MOL1         0.0947
      19    H13     17.939200   20.269849   25.207048 H          1 MOL1         0.0947
      20    C7      19.588597   19.123377   26.021044 C.3        1 MOL1        -0.1477
      21    H14     20.185841   18.239970   25.763288 H          1 MOL1         0.0947
      22    H15     20.285949   19.963067   26.141450 H          1 MOL1         0.0947
      23    C8      18.864901   18.865254   27.354198 C.3        1 MOL1         0.0145
      24    H16     18.180899   18.019411   27.244027 H          1 MOL1         0.0921
      25    H17     18.280722   19.746489   27.632760 H          1 MOL1         0.0921
      26    N1      19.813634   18.554191   28.493643 N.4        1 MOL1        -0.5969
      27    H18     20.374985   17.716945   28.305526 H          1 MOL1         0.3603
      28    H19     19.311262   18.386055   29.372323 H          1 MOL1         0.3603
      29    H20     20.468222   19.324365   28.666464 H          1 MOL1         0.3603
@<TRIPOS>BOND
    1     1     2    1
    2     1     3    1
    3     1     4    1
    4     1     5    1
    5     5     6    1
    6     5     7    1
    7     5     8    1
    8     8     9    1
    9     8    10    1
   10     8    11    1
   11    11    12    1
   12    11    13    1
   13    11    14    1
   14    14    15    1
   15    14    16    1
   16    14    17    1
   17    17    18    1
   18    17    19    1
   19    17    20    1
   20    20    21    1
   21    20    22    1
   22    20    23    1
   23    23    24    1
   24    23    25    1
   25    23    26    1
   26    26    27    1
   27    26    28    1
   28    26    29    1
@<TRIPOS>SUBSTRUCTURE
       1 MOL1            1 RESIDUE      1      MOL     
@<SCITEGIC>MOL_PROPERTY
VM2 Rank
SciTegic.value.IntegerValue
132

@<SCITEGIC>MOL_PROPERTY
Conf_Id
SciTegic.value.IntegerValue
687

@<SCITEGIC>MOL_PROPERTY
Probability
SciTegic.value.DoubleValue
0.17

@<SCITEGIC>MOL_PROPERTY
Sum Probability
SciTegic.value.DoubleValue
92.08

@<SCITEGIC>MOL_PROPERTY
Delta G
SciTegic.value.DoubleValue
2.057

@<SCITEGIC>MOL_PROPERTY
G
SciTegic.value.DoubleValue
60.205

@<SCITEGIC>MOL_PROPERTY
E
SciTegic.value.DoubleValue
22.534

@<SCITEGIC>MOL_PROPERTY
-TS
SciTegic.value.DoubleValue
37.670

@<SCITEGIC>MOL_PROPERTY
U+W
SciTegic.value.DoubleValue
-1.610

@<SCITEGIC>MOL_PROPERTY
U
SciTegic.value.DoubleValue
49.922

@<SCITEGIC>MOL_PROPERTY
W
SciTegic.value.DoubleValue
-51.532

@<SCITEGIC>MOL_PROPERTY
W(PB)
SciTegic.value.DoubleValue
-53.995

@<SCITEGIC>MOL_PROPERTY
W(SA)
SciTegic.value.DoubleValue
2.463

@<SCITEGIC>MOL_PROPERTY
Valence
SciTegic.value.DoubleValue
4.160

@<SCITEGIC>MOL_PROPERTY
Coulomb
SciTegic.value.DoubleValue
44.771

@<SCITEGIC>MOL_PROPERTY
VdW
SciTegic.value.DoubleValue
0.992

@<SCITEGIC>MOL_PROPERTY
VdW6
SciTegic.value.DoubleValue
-9.113

@<SCITEGIC>MOL_PROPERTY
VdW12
SciTegic.value.DoubleValue
10.105

@<SCITEGIC>MOL_PROPERTY
Bond
SciTegic.value.DoubleValue
0.273

@<SCITEGIC>MOL_PROPERTY
Angle
SciTegic.value.DoubleValue
1.388

@<SCITEGIC>MOL_PROPERTY
Pdih
SciTegic.value.DoubleValue
2.499

@<SCITEGIC>MOL_PROPERTY
Idih
SciTegic.value.DoubleValue
0.000

@<SCITEGIC>MOL_PROPERTY
Tether
SciTegic.value.DoubleValue
0.000

@<TRIPOS>MOLECULE
guest-3_vm2.mol2 : vm2 ligand conformer 133
          29          28           1
SMALL
USER_CHARGES
 
@<TRIPOS>ATOM
       1    C1      19.710871   18.234813   19.696796 C.3        1 MOL1        -0.2427
       2    H1      19.062588   18.014611   18.838735 H          1 MOL1         0.0958
       3    H2      20.525051   18.882735   19.346726 H          1 MOL1         0.0958
       4    H3      20.149881   17.288646   20.039237 H          1 MOL1         0.0958
       5    C2      18.907963   18.914535   20.826013 C.3        1 MOL1        -0.1412
       6    H4      18.081858   18.257654   21.132467 H          1 MOL1         0.0947
       7    H5      18.453123   19.839203   20.443977 H          1 MOL1         0.0947
       8    C3      19.798092   19.236219   22.046629 C.3        1 MOL1        -0.1437
       9    H6      20.253490   18.306777   22.412653 H          1 MOL1         0.0947
      10    H7      20.620997   19.894938   21.736771 H          1 MOL1         0.0947
      11    C4      18.993303   19.913047   23.181730 C.3        1 MOL1        -0.1437
      12    H8      18.192017   19.242870   23.519823 H          1 MOL1         0.0947
      13    H9      18.492009   20.804847   22.781054 H          1 MOL1         0.0947
      14    C5      19.867213   20.345633   24.387071 C.3        1 MOL1        -0.1437
      15    H10     20.597462   21.092429   24.046275 H          1 MOL1         0.0947
      16    H11     19.231168   20.866147   25.115439 H          1 MOL1         0.0947
      17    C6      20.629085   19.195237   25.098725 C.3        1 MOL1        -0.1437
      18    H12     21.194047   19.615972   25.941237 H          1 MOL1         0.0947
      19    H13     21.386569   18.781990   24.419685 H          1 MOL1         0.0947
      20    C7      19.730053   18.040642   25.612929 C.3        1 MOL1        -0.1477
      21    H14     19.284496   17.512444   24.760274 H          1 MOL1         0.0947
      22    H15     20.353587   17.300751   26.131947 H          1 MOL1         0.0947
      23    C8      18.601919   18.501547   26.557174 C.3        1 MOL1         0.0145
      24    H16     17.993240   17.640036   26.844792 H          1 MOL1         0.0921
      25    H17     17.957216   19.216686   26.039689 H          1 MOL1         0.0921
      26    N1      19.105500   19.156327   27.827933 N.4        1 MOL1        -0.5969
      27    H18     19.694836   18.520350   28.375000 H          1 MOL1         0.3603
      28    H19     18.334335   19.450599   28.437056 H          1 MOL1         0.3603
      29    H20     19.665893   19.989941   27.624971 H          1 MOL1         0.3603
@<TRIPOS>BOND
    1     1     2    1
    2     1     3    1
    3     1     4    1
    4     1     5    1
    5     5     6    1
    6     5     7    1
    7     5     8    1
    8     8     9    1
    9     8    10    1
   10     8    11    1
   11    11    12    1
   12    11    13    1
   13    11    14    1
   14    14    15    1
   15    14    16    1
   16    14    17    1
   17    17    18    1
   18    17    19    1
   19    17    20    1
   20    20    21    1
   21    20    22    1
   22    20    23    1
   23    23    24    1
   24    23    25    1
   25    23    26    1
   26    26    27    1
   27    26    28    1
   28    26    29    1
@<TRIPOS>SUBSTRUCTURE
       1 MOL1            1 RESIDUE      1      MOL     
@<SCITEGIC>MOL_PROPERTY
VM2 Rank
SciTegic.value.IntegerValue
133

@<SCITEGIC>MOL_PROPERTY
Conf_Id
SciTegic.value.IntegerValue
447

@<SCITEGIC>MOL_PROPERTY
Probability
SciTegic.value.DoubleValue
0.17

@<SCITEGIC>MOL_PROPERTY
Sum Probability
SciTegic.value.DoubleValue
92.25

@<SCITEGIC>MOL_PROPERTY
Delta G
SciTegic.value.DoubleValue
2.070

@<SCITEGIC>MOL_PROPERTY
G
SciTegic.value.DoubleValue
60.218

@<SCITEGIC>MOL_PROPERTY
E
SciTegic.value.DoubleValue
22.147

@<SCITEGIC>MOL_PROPERTY
-TS
SciTegic.value.DoubleValue
38.071

@<SCITEGIC>MOL_PROPERTY
U+W
SciTegic.value.DoubleValue
-1.998

@<SCITEGIC>MOL_PROPERTY
U
SciTegic.value.DoubleValue
50.057

@<SCITEGIC>MOL_PROPERTY
W
SciTegic.value.DoubleValue
-52.055

@<SCITEGIC>MOL_PROPERTY
W(PB)
SciTegic.value.DoubleValue
-54.499

@<SCITEGIC>MOL_PROPERTY
W(SA)
SciTegic.value.DoubleValue
2.444

@<SCITEGIC>MOL_PROPERTY
Valence
SciTegic.value.DoubleValue
3.893

@<SCITEGIC>MOL_PROPERTY
Coulomb
SciTegic.value.DoubleValue
45.518

@<SCITEGIC>MOL_PROPERTY
VdW
SciTegic.value.DoubleValue
0.646

@<SCITEGIC>MOL_PROPERTY
VdW6
SciTegic.value.DoubleValue
-10.245

@<SCITEGIC>MOL_PROPERTY
VdW12
SciTegic.value.DoubleValue
10.891

@<SCITEGIC>MOL_PROPERTY
Bond
SciTegic.value.DoubleValue
0.281

@<SCITEGIC>MOL_PROPERTY
Angle
SciTegic.value.DoubleValue
1.301

@<SCITEGIC>MOL_PROPERTY
Pdih
SciTegic.value.DoubleValue
2.310

@<SCITEGIC>MOL_PROPERTY
Idih
SciTegic.value.DoubleValue
0.000

@<SCITEGIC>MOL_PROPERTY
Tether
SciTegic.value.DoubleValue
0.000

@<TRIPOS>MOLECULE
guest-3_vm2.mol2 : vm2 ligand conformer 134
          29          28           1
SMALL
USER_CHARGES
 
@<TRIPOS>ATOM
       1    C1      20.380753   17.782623   20.608062 C.3        1 MOL1        -0.2427
       2    H1      20.220117   16.927585   21.277469 H          1 MOL1         0.0958
       3    H2      20.565924   17.389842   19.599925 H          1 MOL1         0.0958
       4    H3      21.289457   18.306046   20.930207 H          1 MOL1         0.0958
       5    C2      19.154890   18.723767   20.605023 C.3        1 MOL1        -0.1412
       6    H4      18.300173   18.191173   20.165119 H          1 MOL1         0.0947
       7    H5      19.350932   19.584485   19.950490 H          1 MOL1         0.0947
       8    C3      18.758950   19.218431   22.016830 C.3        1 MOL1        -0.1437
       9    H6      17.823192   19.788745   21.938685 H          1 MOL1         0.0947
      10    H7      18.542338   18.350093   22.652860 H          1 MOL1         0.0947
      11    C4      19.839630   20.108294   22.680798 C.3        1 MOL1        -0.1437
      12    H8      20.122403   20.907863   21.982477 H          1 MOL1         0.0947
      13    H9      20.752490   19.526413   22.858669 H          1 MOL1         0.0947
      14    C5      19.372022   20.761627   24.007012 C.3        1 MOL1        -0.1437
      15    H10     20.185406   21.388847   24.397070 H          1 MOL1         0.0947
      16    H11     18.541544   21.447844   23.791202 H          1 MOL1         0.0947
      17    C6      18.924302   19.772757   25.114575 C.3        1 MOL1        -0.1437
      18    H12     18.035295   19.218461   24.785609 H          1 MOL1         0.0947
      19    H13     18.607412   20.361144   25.985657 H          1 MOL1         0.0947
      20    C7      20.032338   18.777597   25.541230 C.3        1 MOL1        -0.1477
      21    H14     20.322339   18.156270   24.684659 H          1 MOL1         0.0947
      22    H15     20.931513   19.325747   25.852196 H          1 MOL1         0.0947
      23    C8      19.582424   17.839174   26.677406 C.3        1 MOL1         0.0145
      24    H16     20.365327   17.100119   26.868146 H          1 MOL1         0.0921
      25    H17     18.675989   17.306316   26.377723 H          1 MOL1         0.0921
      26    N1      19.298691   18.553729   27.984063 N.4        1 MOL1        -0.5969
      27    H18     20.122915   19.056443   28.329300 H          1 MOL1         0.3603
      28    H19     19.015165   17.899742   28.721937 H          1 MOL1         0.3603
      29    H20     18.544338   19.240217   27.884992 H          1 MOL1         0.3603
@<TRIPOS>BOND
    1     1     2    1
    2     1     3    1
    3     1     4    1
    4     1     5    1
    5     5     6    1
    6     5     7    1
    7     5     8    1
    8     8     9    1
    9     8    10    1
   10     8    11    1
   11    11    12    1
   12    11    13    1
   13    11    14    1
   14    14    15    1
   15    14    16    1
   16    14    17    1
   17    17    18    1
   18    17    19    1
   19    17    20    1
   20    20    21    1
   21    20    22    1
   22    20    23    1
   23    23    24    1
   24    23    25    1
   25    23    26    1
   26    26    27    1
   27    26    28    1
   28    26    29    1
@<TRIPOS>SUBSTRUCTURE
       1 MOL1            1 RESIDUE      1      MOL     
@<SCITEGIC>MOL_PROPERTY
VM2 Rank
SciTegic.value.IntegerValue
134

@<SCITEGIC>MOL_PROPERTY
Conf_Id
SciTegic.value.IntegerValue
2312

@<SCITEGIC>MOL_PROPERTY
Probability
SciTegic.value.DoubleValue
0.16

@<SCITEGIC>MOL_PROPERTY
Sum Probability
SciTegic.value.DoubleValue
92.41

@<SCITEGIC>MOL_PROPERTY
Delta G
SciTegic.value.DoubleValue
2.087

@<SCITEGIC>MOL_PROPERTY
G
SciTegic.value.DoubleValue
60.235

@<SCITEGIC>MOL_PROPERTY
E
SciTegic.value.DoubleValue
22.373

@<SCITEGIC>MOL_PROPERTY
-TS
SciTegic.value.DoubleValue
37.862

@<SCITEGIC>MOL_PROPERTY
U+W
SciTegic.value.DoubleValue
-1.772

@<SCITEGIC>MOL_PROPERTY
U
SciTegic.value.DoubleValue
50.269

@<SCITEGIC>MOL_PROPERTY
W
SciTegic.value.DoubleValue
-52.041

@<SCITEGIC>MOL_PROPERTY
W(PB)
SciTegic.value.DoubleValue
-54.457

@<SCITEGIC>MOL_PROPERTY
W(SA)
SciTegic.value.DoubleValue
2.416

@<SCITEGIC>MOL_PROPERTY
Valence
SciTegic.value.DoubleValue
4.157

@<SCITEGIC>MOL_PROPERTY
Coulomb
SciTegic.value.DoubleValue
45.150

@<SCITEGIC>MOL_PROPERTY
VdW
SciTegic.value.DoubleValue
0.962

@<SCITEGIC>MOL_PROPERTY
VdW6
SciTegic.value.DoubleValue
-9.874

@<SCITEGIC>MOL_PROPERTY
VdW12
SciTegic.value.DoubleValue
10.836

@<SCITEGIC>MOL_PROPERTY
Bond
SciTegic.value.DoubleValue
0.290

@<SCITEGIC>MOL_PROPERTY
Angle
SciTegic.value.DoubleValue
1.330

@<SCITEGIC>MOL_PROPERTY
Pdih
SciTegic.value.DoubleValue
2.538

@<SCITEGIC>MOL_PROPERTY
Idih
SciTegic.value.DoubleValue
0.000

@<SCITEGIC>MOL_PROPERTY
Tether
SciTegic.value.DoubleValue
0.000

@<TRIPOS>MOLECULE
guest-3_vm2.mol2 : vm2 ligand conformer 135
          29          28           1
SMALL
USER_CHARGES
 
@<TRIPOS>ATOM
       1    C1      19.227298   19.830702   19.955086 C.3        1 MOL1        -0.2427
       2    H1      18.601731   19.992856   19.067791 H          1 MOL1         0.0958
       3    H2      19.109001   20.705647   20.606207 H          1 MOL1         0.0958
       4    H3      20.273257   19.785813   19.624967 H          1 MOL1         0.0958
       5    C2      18.815813   18.527015   20.675864 C.3        1 MOL1        -0.1412
       6    H4      18.834376   17.700838   19.951414 H          1 MOL1         0.0947
       7    H5      17.776170   18.608784   21.022510 H          1 MOL1         0.0947
       8    C3      19.737224   18.164929   21.865519 C.3        1 MOL1        -0.1437
       9    H6      19.441252   17.178386   22.248154 H          1 MOL1         0.0947
      10    H7      20.771556   18.061177   21.509738 H          1 MOL1         0.0947
      11    C4      19.683084   19.191866   23.021724 C.3        1 MOL1        -0.1437
      12    H8      18.638264   19.332164   23.327963 H          1 MOL1         0.0947
      13    H9      20.049900   20.166259   22.673667 H          1 MOL1         0.0947
      14    C5      20.531027   18.734469   24.232520 C.3        1 MOL1        -0.1437
      15    H10     20.142212   17.782738   24.618405 H          1 MOL1         0.0947
      16    H11     21.555536   18.528097   23.893281 H          1 MOL1         0.0947
      17    C6      20.596157   19.782861   25.373022 C.3        1 MOL1        -0.1437
      18    H12     21.077918   20.694849   24.994436 H          1 MOL1         0.0947
      19    H13     21.257181   19.404764   26.164407 H          1 MOL1         0.0947
      20    C7      19.224381   20.161964   25.990281 C.3        1 MOL1        -0.1477
      21    H14     19.383240   20.868174   26.815947 H          1 MOL1         0.0947
      22    H15     18.621522   20.700461   25.247960 H          1 MOL1         0.0947
      23    C8      18.415993   18.955280   26.507308 C.3        1 MOL1         0.0145
      24    H16     18.221450   18.262101   25.684760 H          1 MOL1         0.0921
      25    H17     17.454297   19.300987   26.895972 H          1 MOL1         0.0921
      26    N1      19.113024   18.188914   27.613676 N.4        1 MOL1        -0.5969
      27    H18     20.015377   17.816119   27.302284 H          1 MOL1         0.3603
      28    H19     18.552476   17.393659   27.938784 H          1 MOL1         0.3603
      29    H20     19.295156   18.781943   28.429910 H          1 MOL1         0.3603
@<TRIPOS>BOND
    1     1     2    1
    2     1     3    1
    3     1     4    1
    4     1     5    1
    5     5     6    1
    6     5     7    1
    7     5     8    1
    8     8     9    1
    9     8    10    1
   10     8    11    1
   11    11    12    1
   12    11    13    1
   13    11    14    1
   14    14    15    1
   15    14    16    1
   16    14    17    1
   17    17    18    1
   18    17    19    1
   19    17    20    1
   20    20    21    1
   21    20    22    1
   22    20    23    1
   23    23    24    1
   24    23    25    1
   25    23    26    1
   26    26    27    1
   27    26    28    1
   28    26    29    1
@<TRIPOS>SUBSTRUCTURE
       1 MOL1            1 RESIDUE      1      MOL     
@<SCITEGIC>MOL_PROPERTY
VM2 Rank
SciTegic.value.IntegerValue
135

@<SCITEGIC>MOL_PROPERTY
Conf_Id
SciTegic.value.IntegerValue
1246

@<SCITEGIC>MOL_PROPERTY
Probability
SciTegic.value.DoubleValue
0.16

@<SCITEGIC>MOL_PROPERTY
Sum Probability
SciTegic.value.DoubleValue
92.57

@<SCITEGIC>MOL_PROPERTY
Delta G
SciTegic.value.DoubleValue
2.089

@<SCITEGIC>MOL_PROPERTY
G
SciTegic.value.DoubleValue
60.237

@<SCITEGIC>MOL_PROPERTY
E
SciTegic.value.DoubleValue
22.388

@<SCITEGIC>MOL_PROPERTY
-TS
SciTegic.value.DoubleValue
37.849

@<SCITEGIC>MOL_PROPERTY
U+W
SciTegic.value.DoubleValue
-1.757

@<SCITEGIC>MOL_PROPERTY
U
SciTegic.value.DoubleValue
50.238

@<SCITEGIC>MOL_PROPERTY
W
SciTegic.value.DoubleValue
-51.994

@<SCITEGIC>MOL_PROPERTY
W(PB)
SciTegic.value.DoubleValue
-54.461

@<SCITEGIC>MOL_PROPERTY
W(SA)
SciTegic.value.DoubleValue
2.466

@<SCITEGIC>MOL_PROPERTY
Valence
SciTegic.value.DoubleValue
3.943

@<SCITEGIC>MOL_PROPERTY
Coulomb
SciTegic.value.DoubleValue
45.444

@<SCITEGIC>MOL_PROPERTY
VdW
SciTegic.value.DoubleValue
0.851

@<SCITEGIC>MOL_PROPERTY
VdW6
SciTegic.value.DoubleValue
-9.878

@<SCITEGIC>MOL_PROPERTY
VdW12
SciTegic.value.DoubleValue
10.729

@<SCITEGIC>MOL_PROPERTY
Bond
SciTegic.value.DoubleValue
0.271

@<SCITEGIC>MOL_PROPERTY
Angle
SciTegic.value.DoubleValue
1.194

@<SCITEGIC>MOL_PROPERTY
Pdih
SciTegic.value.DoubleValue
2.478

@<SCITEGIC>MOL_PROPERTY
Idih
SciTegic.value.DoubleValue
0.000

@<SCITEGIC>MOL_PROPERTY
Tether
SciTegic.value.DoubleValue
0.000

@<TRIPOS>MOLECULE
guest-3_vm2.mol2 : vm2 ligand conformer 136
          29          28           1
SMALL
USER_CHARGES
 
@<TRIPOS>ATOM
       1    C1      20.233299   17.774146   20.687404 C.3        1 MOL1        -0.2427
       2    H1      19.920748   16.981367   19.995566 H          1 MOL1         0.0958
       3    H2      21.264890   18.052632   20.436018 H          1 MOL1         0.0958
       4    H3      20.227754   17.350552   21.699467 H          1 MOL1         0.0958
       5    C2      19.287521   18.991456   20.578590 C.3        1 MOL1        -0.1412
       6    H4      18.267223   18.693623   20.854946 H          1 MOL1         0.0947
       7    H5      19.234429   19.305312   19.526791 H          1 MOL1         0.0947
       8    C3      19.741340   20.202899   21.432344 C.3        1 MOL1        -0.1437
       9    H6      20.711267   20.557928   21.057820 H          1 MOL1         0.0947
      10    H7      19.036809   21.031002   21.274338 H          1 MOL1         0.0947
      11    C4      19.865344   19.929554   22.953396 C.3        1 MOL1        -0.1437
      12    H8      20.204543   20.852010   23.444211 H          1 MOL1         0.0947
      13    H9      20.652356   19.185436   23.128253 H          1 MOL1         0.0947
      14    C5      18.537739   19.468903   23.606049 C.3        1 MOL1        -0.1437
      15    H10     17.740178   20.172263   23.329962 H          1 MOL1         0.0947
      16    H11     18.241027   18.490369   23.205973 H          1 MOL1         0.0947
      17    C6      18.608726   19.385643   25.150259 C.3        1 MOL1        -0.1437
      18    H12     17.604696   19.156531   25.533590 H          1 MOL1         0.0947
      19    H13     18.877609   20.370616   25.554675 H          1 MOL1         0.0947
      20    C7      19.600291   18.311413   25.662456 C.3        1 MOL1        -0.1477
      21    H14     19.375722   17.349989   25.181819 H          1 MOL1         0.0947
      22    H15     20.628207   18.572315   25.380620 H          1 MOL1         0.0947
      23    C8      19.529311   18.122015   27.189719 C.3        1 MOL1         0.0145
      24    H16     20.190479   17.302915   27.485450 H          1 MOL1         0.0921
      25    H17     18.508809   17.859235   27.481080 H          1 MOL1         0.0921
      26    N1      19.940430   19.351970   27.974782 N.4        1 MOL1        -0.5969
      27    H18     20.902390   19.635426   27.761528 H          1 MOL1         0.3603
      28    H19     19.891992   19.191501   28.986936 H          1 MOL1         0.3603
      29    H20     19.335270   20.152786   27.768040 H          1 MOL1         0.3603
@<TRIPOS>BOND
    1     1     2    1
    2     1     3    1
    3     1     4    1
    4     1     5    1
    5     5     6    1
    6     5     7    1
    7     5     8    1
    8     8     9    1
    9     8    10    1
   10     8    11    1
   11    11    12    1
   12    11    13    1
   13    11    14    1
   14    14    15    1
   15    14    16    1
   16    14    17    1
   17    17    18    1
   18    17    19    1
   19    17    20    1
   20    20    21    1
   21    20    22    1
   22    20    23    1
   23    23    24    1
   24    23    25    1
   25    23    26    1
   26    26    27    1
   27    26    28    1
   28    26    29    1
@<TRIPOS>SUBSTRUCTURE
       1 MOL1            1 RESIDUE      1      MOL     
@<SCITEGIC>MOL_PROPERTY
VM2 Rank
SciTegic.value.IntegerValue
136

@<SCITEGIC>MOL_PROPERTY
Conf_Id
SciTegic.value.IntegerValue
2634

@<SCITEGIC>MOL_PROPERTY
Probability
SciTegic.value.DoubleValue
0.16

@<SCITEGIC>MOL_PROPERTY
Sum Probability
SciTegic.value.DoubleValue
92.73

@<SCITEGIC>MOL_PROPERTY
Delta G
SciTegic.value.DoubleValue
2.103

@<SCITEGIC>MOL_PROPERTY
G
SciTegic.value.DoubleValue
60.251

@<SCITEGIC>MOL_PROPERTY
E
SciTegic.value.DoubleValue
22.401

@<SCITEGIC>MOL_PROPERTY
-TS
SciTegic.value.DoubleValue
37.851

@<SCITEGIC>MOL_PROPERTY
U+W
SciTegic.value.DoubleValue
-1.744

@<SCITEGIC>MOL_PROPERTY
U
SciTegic.value.DoubleValue
50.227

@<SCITEGIC>MOL_PROPERTY
W
SciTegic.value.DoubleValue
-51.971

@<SCITEGIC>MOL_PROPERTY
W(PB)
SciTegic.value.DoubleValue
-54.388

@<SCITEGIC>MOL_PROPERTY
W(SA)
SciTegic.value.DoubleValue
2.417

@<SCITEGIC>MOL_PROPERTY
Valence
SciTegic.value.DoubleValue
4.132

@<SCITEGIC>MOL_PROPERTY
Coulomb
SciTegic.value.DoubleValue
45.141

@<SCITEGIC>MOL_PROPERTY
VdW
SciTegic.value.DoubleValue
0.954

@<SCITEGIC>MOL_PROPERTY
VdW6
SciTegic.value.DoubleValue
-9.818

@<SCITEGIC>MOL_PROPERTY
VdW12
SciTegic.value.DoubleValue
10.772

@<SCITEGIC>MOL_PROPERTY
Bond
SciTegic.value.DoubleValue
0.284

@<SCITEGIC>MOL_PROPERTY
Angle
SciTegic.value.DoubleValue
1.254

@<SCITEGIC>MOL_PROPERTY
Pdih
SciTegic.value.DoubleValue
2.595

@<SCITEGIC>MOL_PROPERTY
Idih
SciTegic.value.DoubleValue
0.000

@<SCITEGIC>MOL_PROPERTY
Tether
SciTegic.value.DoubleValue
0.000

@<TRIPOS>MOLECULE
guest-3_vm2.mol2 : vm2 ligand conformer 137
          29          28           1
SMALL
USER_CHARGES
 
@<TRIPOS>ATOM
       1    C1      20.089946   19.810194   20.183386 C.3        1 MOL1        -0.2427
       2    H1      21.028848   19.437490   20.611372 H          1 MOL1         0.0958
       3    H2      19.796124   19.141454   19.364012 H          1 MOL1         0.0958
       4    H3      20.291656   20.799974   19.753909 H          1 MOL1         0.0958
       5    C2      18.977450   19.900009   21.252104 C.3        1 MOL1        -0.1412
       6    H4      18.094714   20.377602   20.804659 H          1 MOL1         0.0947
       7    H5      19.298339   20.563269   22.066445 H          1 MOL1         0.0947
       8    C3      18.558378   18.520059   21.819306 C.3        1 MOL1        -0.1437
       9    H6      17.729532   18.661468   22.525437 H          1 MOL1         0.0947
      10    H7      18.147282   17.911713   21.002058 H          1 MOL1         0.0947
      11    C4      19.693738   17.717402   22.510024 C.3        1 MOL1        -0.1437
      12    H8      20.438758   17.423968   21.758567 H          1 MOL1         0.0947
      13    H9      19.275287   16.776282   22.892281 H          1 MOL1         0.0947
      14    C5      20.414063   18.453147   23.669116 C.3        1 MOL1        -0.1437
      15    H10     21.201978   17.794531   24.059675 H          1 MOL1         0.0947
      16    H11     20.928204   19.343921   23.284670 H          1 MOL1         0.0947
      17    C6      19.470103   18.851417   24.828597 C.3        1 MOL1        -0.1437
      18    H12     18.929565   17.961127   25.176294 H          1 MOL1         0.0947
      19    H13     18.716481   19.564357   24.468909 H          1 MOL1         0.0947
      20    C7      20.246813   19.489013   26.004562 C.3        1 MOL1        -0.1477
      21    H14     20.981012   18.775669   26.402100 H          1 MOL1         0.0947
      22    H15     20.816190   20.353382   25.637635 H          1 MOL1         0.0947
      23    C8      19.321211   19.961726   27.141934 C.3        1 MOL1         0.0145
      24    H16     18.585524   20.668288   26.748342 H          1 MOL1         0.0921
      25    H17     19.914709   20.475479   27.903086 H          1 MOL1         0.0921
      26    N1      18.572297   18.835033   27.825971 N.4        1 MOL1        -0.5969
      27    H18     17.966056   18.330763   27.171449 H          1 MOL1         0.3603
      28    H19     17.974481   19.180663   28.584738 H          1 MOL1         0.3603
      29    H20     19.212361   18.147923   28.237652 H          1 MOL1         0.3603
@<TRIPOS>BOND
    1     1     2    1
    2     1     3    1
    3     1     4    1
    4     1     5    1
    5     5     6    1
    6     5     7    1
    7     5     8    1
    8     8     9    1
    9     8    10    1
   10     8    11    1
   11    11    12    1
   12    11    13    1
   13    11    14    1
   14    14    15    1
   15    14    16    1
   16    14    17    1
   17    17    18    1
   18    17    19    1
   19    17    20    1
   20    20    21    1
   21    20    22    1
   22    20    23    1
   23    23    24    1
   24    23    25    1
   25    23    26    1
   26    26    27    1
   27    26    28    1
   28    26    29    1
@<TRIPOS>SUBSTRUCTURE
       1 MOL1            1 RESIDUE      1      MOL     
@<SCITEGIC>MOL_PROPERTY
VM2 Rank
SciTegic.value.IntegerValue
137

@<SCITEGIC>MOL_PROPERTY
Conf_Id
SciTegic.value.IntegerValue
2187

@<SCITEGIC>MOL_PROPERTY
Probability
SciTegic.value.DoubleValue
0.16

@<SCITEGIC>MOL_PROPERTY
Sum Probability
SciTegic.value.DoubleValue
92.89

@<SCITEGIC>MOL_PROPERTY
Delta G
SciTegic.value.DoubleValue
2.104

@<SCITEGIC>MOL_PROPERTY
G
SciTegic.value.DoubleValue
60.252

@<SCITEGIC>MOL_PROPERTY
E
SciTegic.value.DoubleValue
22.188

@<SCITEGIC>MOL_PROPERTY
-TS
SciTegic.value.DoubleValue
38.064

@<SCITEGIC>MOL_PROPERTY
U+W
SciTegic.value.DoubleValue
-1.956

@<SCITEGIC>MOL_PROPERTY
U
SciTegic.value.DoubleValue
50.133

@<SCITEGIC>MOL_PROPERTY
W
SciTegic.value.DoubleValue
-52.089

@<SCITEGIC>MOL_PROPERTY
W(PB)
SciTegic.value.DoubleValue
-54.535

@<SCITEGIC>MOL_PROPERTY
W(SA)
SciTegic.value.DoubleValue
2.445

@<SCITEGIC>MOL_PROPERTY
Valence
SciTegic.value.DoubleValue
4.088

@<SCITEGIC>MOL_PROPERTY
Coulomb
SciTegic.value.DoubleValue
45.212

@<SCITEGIC>MOL_PROPERTY
VdW
SciTegic.value.DoubleValue
0.833

@<SCITEGIC>MOL_PROPERTY
VdW6
SciTegic.value.DoubleValue
-10.051

@<SCITEGIC>MOL_PROPERTY
VdW12
SciTegic.value.DoubleValue
10.884

@<SCITEGIC>MOL_PROPERTY
Bond
SciTegic.value.DoubleValue
0.287

@<SCITEGIC>MOL_PROPERTY
Angle
SciTegic.value.DoubleValue
1.410

@<SCITEGIC>MOL_PROPERTY
Pdih
SciTegic.value.DoubleValue
2.391

@<SCITEGIC>MOL_PROPERTY
Idih
SciTegic.value.DoubleValue
0.000

@<SCITEGIC>MOL_PROPERTY
Tether
SciTegic.value.DoubleValue
0.000

@<TRIPOS>MOLECULE
guest-3_vm2.mol2 : vm2 ligand conformer 138
          29          28           1
SMALL
USER_CHARGES
 
@<TRIPOS>ATOM
       1    C1      20.810658   20.055405   20.617306 C.3        1 MOL1        -0.2427
       2    H1      21.747596   19.577190   20.931117 H          1 MOL1         0.0958
       3    H2      20.992091   20.549580   19.654084 H          1 MOL1         0.0958
       4    H3      20.561501   20.836307   21.346368 H          1 MOL1         0.0958
       5    C2      19.673501   19.016947   20.486286 C.3        1 MOL1        -0.1412
       6    H4      19.913407   18.331825   19.661183 H          1 MOL1         0.0947
       7    H5      18.740494   19.524114   20.203457 H          1 MOL1         0.0947
       8    C3      19.448174   18.185343   21.772030 C.3        1 MOL1        -0.1437
       9    H6      18.707744   17.402991   21.555435 H          1 MOL1         0.0947
      10    H7      20.378150   17.665301   22.040183 H          1 MOL1         0.0947
      11    C4      18.956874   19.028179   22.973160 C.3        1 MOL1        -0.1437
      12    H8      18.052446   19.582330   22.687125 H          1 MOL1         0.0947
      13    H9      19.720091   19.771385   23.234159 H          1 MOL1         0.0947
      14    C5      18.653018   18.143995   24.206157 C.3        1 MOL1        -0.1437
      15    H10     17.934909   17.363622   23.918827 H          1 MOL1         0.0947
      16    H11     19.565023   17.616846   24.516410 H          1 MOL1         0.0947
      17    C6      18.062091   18.933246   25.402898 C.3        1 MOL1        -0.1437
      18    H12     17.825554   18.227289   26.210294 H          1 MOL1         0.0947
      19    H13     17.101261   19.373374   25.102511 H          1 MOL1         0.0947
      20    C7      18.974729   20.057937   25.958640 C.3        1 MOL1        -0.1477
      21    H14     19.070316   20.858093   25.213624 H          1 MOL1         0.0947
      22    H15     18.490502   20.517414   26.830476 H          1 MOL1         0.0947
      23    C8      20.384593   19.579358   26.358826 C.3        1 MOL1         0.0145
      24    H16     20.972714   20.431972   26.708960 H          1 MOL1         0.0921
      25    H17     20.889601   19.151714   25.488748 H          1 MOL1         0.0921
      26    N1      20.380360   18.537589   27.459698 N.4        1 MOL1        -0.5969
      27    H18     21.330295   18.238899   27.706155 H          1 MOL1         0.3603
      28    H19     19.861707   17.698615   27.181666 H          1 MOL1         0.3603
      29    H20     19.945078   18.893059   28.317171 H          1 MOL1         0.3603
@<TRIPOS>BOND
    1     1     2    1
    2     1     3    1
    3     1     4    1
    4     1     5    1
    5     5     6    1
    6     5     7    1
    7     5     8    1
    8     8     9    1
    9     8    10    1
   10     8    11    1
   11    11    12    1
   12    11    13    1
   13    11    14    1
   14    14    15    1
   15    14    16    1
   16    14    17    1
   17    17    18    1
   18    17    19    1
   19    17    20    1
   20    20    21    1
   21    20    22    1
   22    20    23    1
   23    23    24    1
   24    23    25    1
   25    23    26    1
   26    26    27    1
   27    26    28    1
   28    26    29    1
@<TRIPOS>SUBSTRUCTURE
       1 MOL1            1 RESIDUE      1      MOL     
@<SCITEGIC>MOL_PROPERTY
VM2 Rank
SciTegic.value.IntegerValue
138

@<SCITEGIC>MOL_PROPERTY
Conf_Id
SciTegic.value.IntegerValue
2656

@<SCITEGIC>MOL_PROPERTY
Probability
SciTegic.value.DoubleValue
0.16

@<SCITEGIC>MOL_PROPERTY
Sum Probability
SciTegic.value.DoubleValue
93.04

@<SCITEGIC>MOL_PROPERTY
Delta G
SciTegic.value.DoubleValue
2.106

@<SCITEGIC>MOL_PROPERTY
G
SciTegic.value.DoubleValue
60.254

@<SCITEGIC>MOL_PROPERTY
E
SciTegic.value.DoubleValue
22.405

@<SCITEGIC>MOL_PROPERTY
-TS
SciTegic.value.DoubleValue
37.849

@<SCITEGIC>MOL_PROPERTY
U+W
SciTegic.value.DoubleValue
-1.740

@<SCITEGIC>MOL_PROPERTY
U
SciTegic.value.DoubleValue
50.314

@<SCITEGIC>MOL_PROPERTY
W
SciTegic.value.DoubleValue
-52.054

@<SCITEGIC>MOL_PROPERTY
W(PB)
SciTegic.value.DoubleValue
-54.517

@<SCITEGIC>MOL_PROPERTY
W(SA)
SciTegic.value.DoubleValue
2.463

@<SCITEGIC>MOL_PROPERTY
Valence
SciTegic.value.DoubleValue
3.941

@<SCITEGIC>MOL_PROPERTY
Coulomb
SciTegic.value.DoubleValue
45.534

@<SCITEGIC>MOL_PROPERTY
VdW
SciTegic.value.DoubleValue
0.839

@<SCITEGIC>MOL_PROPERTY
VdW6
SciTegic.value.DoubleValue
-9.919

@<SCITEGIC>MOL_PROPERTY
VdW12
SciTegic.value.DoubleValue
10.757

@<SCITEGIC>MOL_PROPERTY
Bond
SciTegic.value.DoubleValue
0.274

@<SCITEGIC>MOL_PROPERTY
Angle
SciTegic.value.DoubleValue
1.197

@<SCITEGIC>MOL_PROPERTY
Pdih
SciTegic.value.DoubleValue
2.470

@<SCITEGIC>MOL_PROPERTY
Idih
SciTegic.value.DoubleValue
0.000

@<SCITEGIC>MOL_PROPERTY
Tether
SciTegic.value.DoubleValue
0.000

@<TRIPOS>MOLECULE
guest-3_vm2.mol2 : vm2 ligand conformer 139
          29          28           1
SMALL
USER_CHARGES
 
@<TRIPOS>ATOM
       1    C1      20.239855   19.722017   19.730167 C.3        1 MOL1        -0.2427
       2    H1      20.467211   18.720110   19.343216 H          1 MOL1         0.0958
       3    H2      19.888207   20.335822   18.890752 H          1 MOL1         0.0958
       4    H3      21.172694   20.164237   20.103637 H          1 MOL1         0.0958
       5    C2      19.172239   19.657508   20.842753 C.3        1 MOL1        -0.1412
       6    H4      18.241219   19.243601   20.430777 H          1 MOL1         0.0947
       7    H5      18.941976   20.675609   21.186707 H          1 MOL1         0.0947
       8    C3      19.642191   18.797957   22.036919 C.3        1 MOL1        -0.1437
       9    H6      19.868823   17.780573   21.689552 H          1 MOL1         0.0947
      10    H7      20.576895   19.215830   22.433071 H          1 MOL1         0.0947
      11    C4      18.574848   18.736712   23.155519 C.3        1 MOL1        -0.1437
      12    H8      17.628824   18.378296   22.726894 H          1 MOL1         0.0947
      13    H9      18.371770   19.748211   23.531194 H          1 MOL1         0.0947
      14    C5      18.962422   17.802195   24.330322 C.3        1 MOL1        -0.1437
      15    H10     18.130367   17.771720   25.046397 H          1 MOL1         0.0947
      16    H11     19.062009   16.776282   23.949937 H          1 MOL1         0.0947
      17    C6      20.269407   18.184029   25.076182 C.3        1 MOL1        -0.1437
      18    H12     21.127225   18.052661   24.403468 H          1 MOL1         0.0947
      19    H13     20.429922   17.468197   25.893402 H          1 MOL1         0.0947
      20    C7      20.294041   19.625545   25.648178 C.3        1 MOL1        -0.1477
      21    H14     21.237292   19.784383   26.187309 H          1 MOL1         0.0947
      22    H15     20.294153   20.349605   24.823393 H          1 MOL1         0.0947
      23    C8      19.114954   19.943589   26.589093 C.3        1 MOL1         0.0145
      24    H16     18.170898   19.817127   26.052787 H          1 MOL1         0.0921
      25    H17     19.182820   20.983781   26.918956 H          1 MOL1         0.0921
      26    N1      19.074043   19.068449   27.825868 N.4        1 MOL1        -0.5969
      27    H18     18.985238   18.077003   27.582364 H          1 MOL1         0.3603
      28    H19     18.281631   19.303336   28.433514 H          1 MOL1         0.3603
      29    H20     19.924727   19.167455   28.389428 H          1 MOL1         0.3603
@<TRIPOS>BOND
    1     1     2    1
    2     1     3    1
    3     1     4    1
    4     1     5    1
    5     5     6    1
    6     5     7    1
    7     5     8    1
    8     8     9    1
    9     8    10    1
   10     8    11    1
   11    11    12    1
   12    11    13    1
   13    11    14    1
   14    14    15    1
   15    14    16    1
   16    14    17    1
   17    17    18    1
   18    17    19    1
   19    17    20    1
   20    20    21    1
   21    20    22    1
   22    20    23    1
   23    23    24    1
   24    23    25    1
   25    23    26    1
   26    26    27    1
   27    26    28    1
   28    26    29    1
@<TRIPOS>SUBSTRUCTURE
       1 MOL1            1 RESIDUE      1      MOL     
@<SCITEGIC>MOL_PROPERTY
VM2 Rank
SciTegic.value.IntegerValue
139

@<SCITEGIC>MOL_PROPERTY
Conf_Id
SciTegic.value.IntegerValue
446

@<SCITEGIC>MOL_PROPERTY
Probability
SciTegic.value.DoubleValue
0.16

@<SCITEGIC>MOL_PROPERTY
Sum Probability
SciTegic.value.DoubleValue
93.20

@<SCITEGIC>MOL_PROPERTY
Delta G
SciTegic.value.DoubleValue
2.112

@<SCITEGIC>MOL_PROPERTY
G
SciTegic.value.DoubleValue
60.260

@<SCITEGIC>MOL_PROPERTY
E
SciTegic.value.DoubleValue
22.189

@<SCITEGIC>MOL_PROPERTY
-TS
SciTegic.value.DoubleValue
38.072

@<SCITEGIC>MOL_PROPERTY
U+W
SciTegic.value.DoubleValue
-1.956

@<SCITEGIC>MOL_PROPERTY
U
SciTegic.value.DoubleValue
50.057

@<SCITEGIC>MOL_PROPERTY
W
SciTegic.value.DoubleValue
-52.013

@<SCITEGIC>MOL_PROPERTY
W(PB)
SciTegic.value.DoubleValue
-54.451

@<SCITEGIC>MOL_PROPERTY
W(SA)
SciTegic.value.DoubleValue
2.439

@<SCITEGIC>MOL_PROPERTY
Valence
SciTegic.value.DoubleValue
3.893

@<SCITEGIC>MOL_PROPERTY
Coulomb
SciTegic.value.DoubleValue
45.518

@<SCITEGIC>MOL_PROPERTY
VdW
SciTegic.value.DoubleValue
0.646

@<SCITEGIC>MOL_PROPERTY
VdW6
SciTegic.value.DoubleValue
-10.245

@<SCITEGIC>MOL_PROPERTY
VdW12
SciTegic.value.DoubleValue
10.891

@<SCITEGIC>MOL_PROPERTY
Bond
SciTegic.value.DoubleValue
0.281

@<SCITEGIC>MOL_PROPERTY
Angle
SciTegic.value.DoubleValue
1.301

@<SCITEGIC>MOL_PROPERTY
Pdih
SciTegic.value.DoubleValue
2.310

@<SCITEGIC>MOL_PROPERTY
Idih
SciTegic.value.DoubleValue
0.000

@<SCITEGIC>MOL_PROPERTY
Tether
SciTegic.value.DoubleValue
0.000

@<TRIPOS>MOLECULE
guest-3_vm2.mol2 : vm2 ligand conformer 140
          29          28           1
SMALL
USER_CHARGES
 
@<TRIPOS>ATOM
       1    C1      20.102654   18.262730   20.279042 C.3        1 MOL1        -0.2427
       2    H1      19.276029   18.315812   19.558755 H          1 MOL1         0.0958
       3    H2      21.002134   17.944977   19.736090 H          1 MOL1         0.0958
       4    H3      19.868500   17.483590   21.015147 H          1 MOL1         0.0958
       5    C2      20.335470   19.630950   20.958562 C.3        1 MOL1        -0.1412
       6    H4      20.681441   20.347768   20.200874 H          1 MOL1         0.0947
       7    H5      21.152040   19.548293   21.688215 H          1 MOL1         0.0947
       8    C3      19.066219   20.205720   21.637565 C.3        1 MOL1        -0.1437
       9    H6      19.308741   21.187463   22.067045 H          1 MOL1         0.0947
      10    H7      18.306251   20.394370   20.866890 H          1 MOL1         0.0947
      11    C4      18.443097   19.312966   22.741598 C.3        1 MOL1        -0.1437
      12    H8      18.090927   18.369022   22.304991 H          1 MOL1         0.0947
      13    H9      17.548196   19.818489   23.129757 H          1 MOL1         0.0947
      14    C5      19.405944   19.020025   23.916785 C.3        1 MOL1        -0.1437
      15    H10     20.269571   18.445791   23.556511 H          1 MOL1         0.0947
      16    H11     19.793282   19.969122   24.310174 H          1 MOL1         0.0947
      17    C6      18.705879   18.224954   25.044603 C.3        1 MOL1        -0.1437
      18    H12     18.279507   17.303827   24.623835 H          1 MOL1         0.0947
      19    H13     17.857717   18.802634   25.435672 H          1 MOL1         0.0947
      20    C7      19.660851   17.841429   26.202665 C.3        1 MOL1        -0.1477
      21    H14     19.111122   17.247337   26.944715 H          1 MOL1         0.0947
      22    H15     20.454981   17.189116   25.815758 H          1 MOL1         0.0947
      23    C8      20.312078   19.049641   26.905644 C.3        1 MOL1         0.0145
      24    H16     20.901625   19.623040   26.185717 H          1 MOL1         0.0921
      25    H17     20.986085   18.693778   27.689574 H          1 MOL1         0.0921
      26    N1      19.311807   19.989585   27.548536 N.4        1 MOL1        -0.5969
      27    H18     18.744730   19.513653   28.257806 H          1 MOL1         0.3603
      28    H19     18.665829   20.382252   26.856534 H          1 MOL1         0.3603
      29    H20     19.774070   20.778843   28.013078 H          1 MOL1         0.3603
@<TRIPOS>BOND
    1     1     2    1
    2     1     3    1
    3     1     4    1
    4     1     5    1
    5     5     6    1
    6     5     7    1
    7     5     8    1
    8     8     9    1
    9     8    10    1
   10     8    11    1
   11    11    12    1
   12    11    13    1
   13    11    14    1
   14    14    15    1
   15    14    16    1
   16    14    17    1
   17    17    18    1
   18    17    19    1
   19    17    20    1
   20    20    21    1
   21    20    22    1
   22    20    23    1
   23    23    24    1
   24    23    25    1
   25    23    26    1
   26    26    27    1
   27    26    28    1
   28    26    29    1
@<TRIPOS>SUBSTRUCTURE
       1 MOL1            1 RESIDUE      1      MOL     
@<SCITEGIC>MOL_PROPERTY
VM2 Rank
SciTegic.value.IntegerValue
140

@<SCITEGIC>MOL_PROPERTY
Conf_Id
SciTegic.value.IntegerValue
1620

@<SCITEGIC>MOL_PROPERTY
Probability
SciTegic.value.DoubleValue
0.15

@<SCITEGIC>MOL_PROPERTY
Sum Probability
SciTegic.value.DoubleValue
93.35

@<SCITEGIC>MOL_PROPERTY
Delta G
SciTegic.value.DoubleValue
2.119

@<SCITEGIC>MOL_PROPERTY
G
SciTegic.value.DoubleValue
60.267

@<SCITEGIC>MOL_PROPERTY
E
SciTegic.value.DoubleValue
22.360

@<SCITEGIC>MOL_PROPERTY
-TS
SciTegic.value.DoubleValue
37.907

@<SCITEGIC>MOL_PROPERTY
U+W
SciTegic.value.DoubleValue
-1.784

@<SCITEGIC>MOL_PROPERTY
U
SciTegic.value.DoubleValue
50.249

@<SCITEGIC>MOL_PROPERTY
W
SciTegic.value.DoubleValue
-52.033

@<SCITEGIC>MOL_PROPERTY
W(PB)
SciTegic.value.DoubleValue
-54.480

@<SCITEGIC>MOL_PROPERTY
W(SA)
SciTegic.value.DoubleValue
2.447

@<SCITEGIC>MOL_PROPERTY
Valence
SciTegic.value.DoubleValue
3.924

@<SCITEGIC>MOL_PROPERTY
Coulomb
SciTegic.value.DoubleValue
45.456

@<SCITEGIC>MOL_PROPERTY
VdW
SciTegic.value.DoubleValue
0.869

@<SCITEGIC>MOL_PROPERTY
VdW6
SciTegic.value.DoubleValue
-9.872

@<SCITEGIC>MOL_PROPERTY
VdW12
SciTegic.value.DoubleValue
10.741

@<SCITEGIC>MOL_PROPERTY
Bond
SciTegic.value.DoubleValue
0.269

@<SCITEGIC>MOL_PROPERTY
Angle
SciTegic.value.DoubleValue
1.270

@<SCITEGIC>MOL_PROPERTY
Pdih
SciTegic.value.DoubleValue
2.384

@<SCITEGIC>MOL_PROPERTY
Idih
SciTegic.value.DoubleValue
0.000

@<SCITEGIC>MOL_PROPERTY
Tether
SciTegic.value.DoubleValue
0.000

@<TRIPOS>MOLECULE
guest-3_vm2.mol2 : vm2 ligand conformer 141
          29          28           1
SMALL
USER_CHARGES
 
@<TRIPOS>ATOM
       1    C1      19.928515   17.580410   20.562061 C.3        1 MOL1        -0.2427
       2    H1      20.952333   17.345703   20.881010 H          1 MOL1         0.0958
       3    H2      19.231733   17.104791   21.263272 H          1 MOL1         0.0958
       4    H3      19.769962   17.121465   19.577605 H          1 MOL1         0.0958
       5    C2      19.705916   19.108059   20.488397 C.3        1 MOL1        -0.1412
       6    H4      18.666464   19.316657   20.199022 H          1 MOL1         0.0947
       7    H5      20.336455   19.519237   19.687712 H          1 MOL1         0.0947
       8    C3      20.039078   19.843047   21.809104 C.3        1 MOL1        -0.1437
       9    H6      21.084477   19.646781   22.084468 H          1 MOL1         0.0947
      10    H7      19.963267   20.925111   21.634132 H          1 MOL1         0.0947
      11    C4      19.108655   19.454018   22.982745 C.3        1 MOL1        -0.1437
      12    H8      19.226219   18.386072   23.203301 H          1 MOL1         0.0947
      13    H9      18.061734   19.608469   22.687804 H          1 MOL1         0.0947
      14    C5      19.414972   20.281413   24.253955 C.3        1 MOL1        -0.1437
      15    H10     20.450336   20.100292   24.571938 H          1 MOL1         0.0947
      16    H11     19.356251   21.350637   24.007921 H          1 MOL1         0.0947
      17    C6      18.441291   19.997035   25.426719 C.3        1 MOL1        -0.1437
      18    H12     17.423001   20.276007   25.122743 H          1 MOL1         0.0947
      19    H13     18.693092   20.660786   26.264719 H          1 MOL1         0.0947
      20    C7      18.429130   18.527766   25.924501 C.3        1 MOL1        -0.1477
      21    H14     17.751289   18.443961   26.784271 H          1 MOL1         0.0947
      22    H15     18.007604   17.877806   25.147130 H          1 MOL1         0.0947
      23    C8      19.818139   17.990576   26.323227 C.3        1 MOL1         0.0145
      24    H16     20.491885   18.036430   25.463625 H          1 MOL1         0.0921
      25    H17     19.729536   16.945199   26.631073 H          1 MOL1         0.0921
      26    N1      20.458303   18.755677   27.464292 N.4        1 MOL1        -0.5969
      27    H18     21.379446   18.376207   27.708895 H          1 MOL1         0.3603
      28    H19     19.884345   18.722128   28.313135 H          1 MOL1         0.3603
      29    H20     20.591143   19.743704   27.226933 H          1 MOL1         0.3603
@<TRIPOS>BOND
    1     1     2    1
    2     1     3    1
    3     1     4    1
    4     1     5    1
    5     5     6    1
    6     5     7    1
    7     5     8    1
    8     8     9    1
    9     8    10    1
   10     8    11    1
   11    11    12    1
   12    11    13    1
   13    11    14    1
   14    14    15    1
   15    14    16    1
   16    14    17    1
   17    17    18    1
   18    17    19    1
   19    17    20    1
   20    20    21    1
   21    20    22    1
   22    20    23    1
   23    23    24    1
   24    23    25    1
   25    23    26    1
   26    26    27    1
   27    26    28    1
   28    26    29    1
@<TRIPOS>SUBSTRUCTURE
       1 MOL1            1 RESIDUE      1      MOL     
@<SCITEGIC>MOL_PROPERTY
VM2 Rank
SciTegic.value.IntegerValue
141

@<SCITEGIC>MOL_PROPERTY
Conf_Id
SciTegic.value.IntegerValue
2006

@<SCITEGIC>MOL_PROPERTY
Probability
SciTegic.value.DoubleValue
0.15

@<SCITEGIC>MOL_PROPERTY
Sum Probability
SciTegic.value.DoubleValue
93.51

@<SCITEGIC>MOL_PROPERTY
Delta G
SciTegic.value.DoubleValue
2.121

@<SCITEGIC>MOL_PROPERTY
G
SciTegic.value.DoubleValue
60.269

@<SCITEGIC>MOL_PROPERTY
E
SciTegic.value.DoubleValue
22.420

@<SCITEGIC>MOL_PROPERTY
-TS
SciTegic.value.DoubleValue
37.849

@<SCITEGIC>MOL_PROPERTY
U+W
SciTegic.value.DoubleValue
-1.725

@<SCITEGIC>MOL_PROPERTY
U
SciTegic.value.DoubleValue
50.314

@<SCITEGIC>MOL_PROPERTY
W
SciTegic.value.DoubleValue
-52.038

@<SCITEGIC>MOL_PROPERTY
W(PB)
SciTegic.value.DoubleValue
-54.487

@<SCITEGIC>MOL_PROPERTY
W(SA)
SciTegic.value.DoubleValue
2.448

@<SCITEGIC>MOL_PROPERTY
Valence
SciTegic.value.DoubleValue
3.941

@<SCITEGIC>MOL_PROPERTY
Coulomb
SciTegic.value.DoubleValue
45.534

@<SCITEGIC>MOL_PROPERTY
VdW
SciTegic.value.DoubleValue
0.839

@<SCITEGIC>MOL_PROPERTY
VdW6
SciTegic.value.DoubleValue
-9.919

@<SCITEGIC>MOL_PROPERTY
VdW12
SciTegic.value.DoubleValue
10.758

@<SCITEGIC>MOL_PROPERTY
Bond
SciTegic.value.DoubleValue
0.274

@<SCITEGIC>MOL_PROPERTY
Angle
SciTegic.value.DoubleValue
1.197

@<SCITEGIC>MOL_PROPERTY
Pdih
SciTegic.value.DoubleValue
2.470

@<SCITEGIC>MOL_PROPERTY
Idih
SciTegic.value.DoubleValue
0.000

@<SCITEGIC>MOL_PROPERTY
Tether
SciTegic.value.DoubleValue
0.000

@<TRIPOS>MOLECULE
guest-3_vm2.mol2 : vm2 ligand conformer 142
          29          28           1
SMALL
USER_CHARGES
 
@<TRIPOS>ATOM
       1    C1      20.778404   19.575924   19.966592 C.3        1 MOL1        -0.2427
       2    H1      20.743296   18.580221   19.505522 H          1 MOL1         0.0958
       3    H2      20.117248   20.240789   19.395584 H          1 MOL1         0.0958
       4    H3      21.803590   19.956311   19.870035 H          1 MOL1         0.0958
       5    C2      20.357435   19.514661   21.450140 C.3        1 MOL1        -0.1412
       6    H4      20.430715   20.518491   21.891273 H          1 MOL1         0.0947
       7    H5      21.064215   18.874650   21.994679 H          1 MOL1         0.0947
       8    C3      18.916007   18.976924   21.611678 C.3        1 MOL1        -0.1437
       9    H6      18.237386   19.584144   20.996843 H          1 MOL1         0.0947
      10    H7      18.855885   17.953112   21.217506 H          1 MOL1         0.0947
      11    C4      18.407674   19.001652   23.073835 C.3        1 MOL1        -0.1437
      12    H8      17.347317   18.714137   23.079410 H          1 MOL1         0.0947
      13    H9      18.452191   20.031408   23.452192 H          1 MOL1         0.0947
      14    C5      19.192282   18.053337   24.014980 C.3        1 MOL1        -0.1437
      15    H10     19.230005   17.052263   23.563873 H          1 MOL1         0.0947
      16    H11     20.233742   18.386749   24.104219 H          1 MOL1         0.0947
      17    C6      18.563403   17.930795   25.426777 C.3        1 MOL1        -0.1437
      18    H12     19.145559   17.206957   26.012738 H          1 MOL1         0.0947
      19    H13     17.557582   17.498242   25.335362 H          1 MOL1         0.0947
      20    C7      18.464438   19.264522   26.212852 C.3        1 MOL1        -0.1477
      21    H14     17.745082   19.930838   25.719840 H          1 MOL1         0.0947
      22    H15     18.052797   19.065343   27.211136 H          1 MOL1         0.0947
      23    C8      19.808489   20.005431   26.359917 C.3        1 MOL1         0.0145
      24    H16     19.649129   20.945851   26.894377 H          1 MOL1         0.0921
      25    H17     20.210414   20.239887   25.370758 H          1 MOL1         0.0921
      26    N1      20.855868   19.214755   27.118229 N.4        1 MOL1        -0.5969
      27    H18     20.547255   18.991232   28.070016 H          1 MOL1         0.3603
      28    H19     21.737929   19.731772   27.201789 H          1 MOL1         0.3603
      29    H20     21.067969   18.327197   26.651989 H          1 MOL1         0.3603
@<TRIPOS>BOND
    1     1     2    1
    2     1     3    1
    3     1     4    1
    4     1     5    1
    5     5     6    1
    6     5     7    1
    7     5     8    1
    8     8     9    1
    9     8    10    1
   10     8    11    1
   11    11    12    1
   12    11    13    1
   13    11    14    1
   14    14    15    1
   15    14    16    1
   16    14    17    1
   17    17    18    1
   18    17    19    1
   19    17    20    1
   20    20    21    1
   21    20    22    1
   22    20    23    1
   23    23    24    1
   24    23    25    1
   25    23    26    1
   26    26    27    1
   27    26    28    1
   28    26    29    1
@<TRIPOS>SUBSTRUCTURE
       1 MOL1            1 RESIDUE      1      MOL     
@<SCITEGIC>MOL_PROPERTY
VM2 Rank
SciTegic.value.IntegerValue
142

@<SCITEGIC>MOL_PROPERTY
Conf_Id
SciTegic.value.IntegerValue
1595

@<SCITEGIC>MOL_PROPERTY
Probability
SciTegic.value.DoubleValue
0.15

@<SCITEGIC>MOL_PROPERTY
Sum Probability
SciTegic.value.DoubleValue
93.66

@<SCITEGIC>MOL_PROPERTY
Delta G
SciTegic.value.DoubleValue
2.126

@<SCITEGIC>MOL_PROPERTY
G
SciTegic.value.DoubleValue
60.274

@<SCITEGIC>MOL_PROPERTY
E
SciTegic.value.DoubleValue
22.421

@<SCITEGIC>MOL_PROPERTY
-TS
SciTegic.value.DoubleValue
37.853

@<SCITEGIC>MOL_PROPERTY
U+W
SciTegic.value.DoubleValue
-1.724

@<SCITEGIC>MOL_PROPERTY
U
SciTegic.value.DoubleValue
50.589

@<SCITEGIC>MOL_PROPERTY
W
SciTegic.value.DoubleValue
-52.313

@<SCITEGIC>MOL_PROPERTY
W(PB)
SciTegic.value.DoubleValue
-54.773

@<SCITEGIC>MOL_PROPERTY
W(SA)
SciTegic.value.DoubleValue
2.460

@<SCITEGIC>MOL_PROPERTY
Valence
SciTegic.value.DoubleValue
3.943

@<SCITEGIC>MOL_PROPERTY
Coulomb
SciTegic.value.DoubleValue
45.873

@<SCITEGIC>MOL_PROPERTY
VdW
SciTegic.value.DoubleValue
0.773

@<SCITEGIC>MOL_PROPERTY
VdW6
SciTegic.value.DoubleValue
-10.007

@<SCITEGIC>MOL_PROPERTY
VdW12
SciTegic.value.DoubleValue
10.781

@<SCITEGIC>MOL_PROPERTY
Bond
SciTegic.value.DoubleValue
0.275

@<SCITEGIC>MOL_PROPERTY
Angle
SciTegic.value.DoubleValue
1.162

@<SCITEGIC>MOL_PROPERTY
Pdih
SciTegic.value.DoubleValue
2.506

@<SCITEGIC>MOL_PROPERTY
Idih
SciTegic.value.DoubleValue
0.000

@<SCITEGIC>MOL_PROPERTY
Tether
SciTegic.value.DoubleValue
0.000

@<TRIPOS>MOLECULE
guest-3_vm2.mol2 : vm2 ligand conformer 143
          29          28           1
SMALL
USER_CHARGES
 
@<TRIPOS>ATOM
       1    C1      20.215255   17.997431   19.931178 C.3        1 MOL1        -0.2427
       2    H1      20.769764   17.058473   19.805080 H          1 MOL1         0.0958
       3    H2      19.290745   17.924153   19.343695 H          1 MOL1         0.0958
       4    H3      20.824513   18.808029   19.510491 H          1 MOL1         0.0958
       5    C2      19.907113   18.252284   21.421810 C.3        1 MOL1        -0.1412
       6    H4      20.851583   18.278471   21.981244 H          1 MOL1         0.0947
       7    H5      19.322491   17.412070   21.821690 H          1 MOL1         0.0947
       8    C3      19.129011   19.573742   21.624962 C.3        1 MOL1        -0.1437
       9    H6      19.735843   20.419226   21.272698 H          1 MOL1         0.0947
      10    H7      18.228131   19.557935   20.996129 H          1 MOL1         0.0947
      11    C4      18.698987   19.818148   23.092018 C.3        1 MOL1        -0.1437
      12    H8      18.076653   18.978499   23.428506 H          1 MOL1         0.0947
      13    H9      18.059714   20.711097   23.123991 H          1 MOL1         0.0947
      14    C5      19.893082   20.017924   24.058912 C.3        1 MOL1        -0.1437
      15    H10     20.487349   19.097670   24.120133 H          1 MOL1         0.0947
      16    H11     20.561989   20.786248   23.647436 H          1 MOL1         0.0947
      17    C6      19.463542   20.454529   25.483182 C.3        1 MOL1        -0.1437
      18    H12     18.959525   21.428953   25.423181 H          1 MOL1         0.0947
      19    H13     20.363889   20.622968   26.089153 H          1 MOL1         0.0947
      20    C7      18.532105   19.454301   26.217013 C.3        1 MOL1        -0.1477
      21    H14     18.325041   19.829216   27.228077 H          1 MOL1         0.0947
      22    H15     17.560606   19.413376   25.708067 H          1 MOL1         0.0947
      23    C8      19.102282   18.025246   26.315734 C.3        1 MOL1         0.0145
      24    H16     19.279451   17.628844   25.312527 H          1 MOL1         0.0921
      25    H17     18.376406   17.377402   26.814566 H          1 MOL1         0.0921
      26    N1      20.402622   17.944395   27.090192 N.4        1 MOL1        -0.5969
      27    H18     21.134948   18.515259   26.656667 H          1 MOL1         0.3603
      28    H19     20.757508   16.983244   27.140866 H          1 MOL1         0.3603
      29    H20     20.291338   18.274839   28.054309 H          1 MOL1         0.3603
@<TRIPOS>BOND
    1     1     2    1
    2     1     3    1
    3     1     4    1
    4     1     5    1
    5     5     6    1
    6     5     7    1
    7     5     8    1
    8     8     9    1
    9     8    10    1
   10     8    11    1
   11    11    12    1
   12    11    13    1
   13    11    14    1
   14    14    15    1
   15    14    16    1
   16    14    17    1
   17    17    18    1
   18    17    19    1
   19    17    20    1
   20    20    21    1
   21    20    22    1
   22    20    23    1
   23    23    24    1
   24    23    25    1
   25    23    26    1
   26    26    27    1
   27    26    28    1
   28    26    29    1
@<TRIPOS>SUBSTRUCTURE
       1 MOL1            1 RESIDUE      1      MOL     
@<SCITEGIC>MOL_PROPERTY
VM2 Rank
SciTegic.value.IntegerValue
143

@<SCITEGIC>MOL_PROPERTY
Conf_Id
SciTegic.value.IntegerValue
2331

@<SCITEGIC>MOL_PROPERTY
Probability
SciTegic.value.DoubleValue
0.15

@<SCITEGIC>MOL_PROPERTY
Sum Probability
SciTegic.value.DoubleValue
93.81

@<SCITEGIC>MOL_PROPERTY
Delta G
SciTegic.value.DoubleValue
2.130

@<SCITEGIC>MOL_PROPERTY
G
SciTegic.value.DoubleValue
60.278

@<SCITEGIC>MOL_PROPERTY
E
SciTegic.value.DoubleValue
22.425

@<SCITEGIC>MOL_PROPERTY
-TS
SciTegic.value.DoubleValue
37.853

@<SCITEGIC>MOL_PROPERTY
U+W
SciTegic.value.DoubleValue
-1.719

@<SCITEGIC>MOL_PROPERTY
U
SciTegic.value.DoubleValue
50.589

@<SCITEGIC>MOL_PROPERTY
W
SciTegic.value.DoubleValue
-52.308

@<SCITEGIC>MOL_PROPERTY
W(PB)
SciTegic.value.DoubleValue
-54.774

@<SCITEGIC>MOL_PROPERTY
W(SA)
SciTegic.value.DoubleValue
2.466

@<SCITEGIC>MOL_PROPERTY
Valence
SciTegic.value.DoubleValue
3.943

@<SCITEGIC>MOL_PROPERTY
Coulomb
SciTegic.value.DoubleValue
45.872

@<SCITEGIC>MOL_PROPERTY
VdW
SciTegic.value.DoubleValue
0.773

@<SCITEGIC>MOL_PROPERTY
VdW6
SciTegic.value.DoubleValue
-10.007

@<SCITEGIC>MOL_PROPERTY
VdW12
SciTegic.value.DoubleValue
10.780

@<SCITEGIC>MOL_PROPERTY
Bond
SciTegic.value.DoubleValue
0.275

@<SCITEGIC>MOL_PROPERTY
Angle
SciTegic.value.DoubleValue
1.162

@<SCITEGIC>MOL_PROPERTY
Pdih
SciTegic.value.DoubleValue
2.506

@<SCITEGIC>MOL_PROPERTY
Idih
SciTegic.value.DoubleValue
0.000

@<SCITEGIC>MOL_PROPERTY
Tether
SciTegic.value.DoubleValue
0.000

@<TRIPOS>MOLECULE
guest-3_vm2.mol2 : vm2 ligand conformer 144
          29          28           1
SMALL
USER_CHARGES
 
@<TRIPOS>ATOM
       1    C1      19.300783   20.161920   20.090832 C.3        1 MOL1        -0.2427
       2    H1      20.271272   20.615786   19.851874 H          1 MOL1         0.0958
       3    H2      18.640235   20.305234   19.225979 H          1 MOL1         0.0958
       4    H3      18.863055   20.709096   20.935077 H          1 MOL1         0.0958
       5    C2      19.455021   18.658023   20.410921 C.3        1 MOL1        -0.1412
       6    H4      19.780494   18.134677   19.501082 H          1 MOL1         0.0947
       7    H5      18.476354   18.231152   20.667358 H          1 MOL1         0.0947
       8    C3      20.479273   18.368848   21.537959 C.3        1 MOL1        -0.1437
       9    H6      20.544158   17.282246   21.686888 H          1 MOL1         0.0947
      10    H7      21.475325   18.685260   21.199032 H          1 MOL1         0.0947
      11    C4      20.181787   19.047215   22.900517 C.3        1 MOL1        -0.1437
      12    H8      20.213244   20.139074   22.789849 H          1 MOL1         0.0947
      13    H9      20.997610   18.788992   23.587405 H          1 MOL1         0.0947
      14    C5      18.827416   18.621418   23.522121 C.3        1 MOL1        -0.1437
      15    H10     18.013173   18.882458   22.833938 H          1 MOL1         0.0947
      16    H11     18.798409   17.529197   23.636898 H          1 MOL1         0.0947
      17    C6      18.532715   19.295302   24.884908 C.3        1 MOL1        -0.1437
      18    H12     17.503732   19.046407   25.179744 H          1 MOL1         0.0947
      19    H13     18.564436   20.387724   24.770331 H          1 MOL1         0.0947
      20    C7      19.494942   18.860268   26.015167 C.3        1 MOL1        -0.1477
      21    H14     19.503558   17.764893   26.092350 H          1 MOL1         0.0947
      22    H15     20.519471   19.177362   25.784213 H          1 MOL1         0.0947
      23    C8      19.078153   19.464330   27.367596 C.3        1 MOL1         0.0145
      24    H16     18.064775   19.139973   27.619180 H          1 MOL1         0.0921
      25    H17     19.083788   20.555636   27.300762 H          1 MOL1         0.0921
      26    N1      19.993911   19.060676   28.504980 N.4        1 MOL1        -0.5969
      27    H18     19.698310   19.473323   29.396647 H          1 MOL1         0.3603
      28    H19     20.960540   19.361762   28.342320 H          1 MOL1         0.3603
      29    H20     20.012349   18.044052   28.637846 H          1 MOL1         0.3603
@<TRIPOS>BOND
    1     1     2    1
    2     1     3    1
    3     1     4    1
    4     1     5    1
    5     5     6    1
    6     5     7    1
    7     5     8    1
    8     8     9    1
    9     8    10    1
   10     8    11    1
   11    11    12    1
   12    11    13    1
   13    11    14    1
   14    14    15    1
   15    14    16    1
   16    14    17    1
   17    17    18    1
   18    17    19    1
   19    17    20    1
   20    20    21    1
   21    20    22    1
   22    20    23    1
   23    23    24    1
   24    23    25    1
   25    23    26    1
   26    26    27    1
   27    26    28    1
   28    26    29    1
@<TRIPOS>SUBSTRUCTURE
       1 MOL1            1 RESIDUE      1      MOL     
@<SCITEGIC>MOL_PROPERTY
VM2 Rank
SciTegic.value.IntegerValue
144

@<SCITEGIC>MOL_PROPERTY
Conf_Id
SciTegic.value.IntegerValue
2520

@<SCITEGIC>MOL_PROPERTY
Probability
SciTegic.value.DoubleValue
0.15

@<SCITEGIC>MOL_PROPERTY
Sum Probability
SciTegic.value.DoubleValue
93.96

@<SCITEGIC>MOL_PROPERTY
Delta G
SciTegic.value.DoubleValue
2.139

@<SCITEGIC>MOL_PROPERTY
G
SciTegic.value.DoubleValue
60.287

@<SCITEGIC>MOL_PROPERTY
E
SciTegic.value.DoubleValue
22.617

@<SCITEGIC>MOL_PROPERTY
-TS
SciTegic.value.DoubleValue
37.671

@<SCITEGIC>MOL_PROPERTY
U+W
SciTegic.value.DoubleValue
-1.528

@<SCITEGIC>MOL_PROPERTY
U
SciTegic.value.DoubleValue
49.922

@<SCITEGIC>MOL_PROPERTY
W
SciTegic.value.DoubleValue
-51.450

@<SCITEGIC>MOL_PROPERTY
W(PB)
SciTegic.value.DoubleValue
-53.952

@<SCITEGIC>MOL_PROPERTY
W(SA)
SciTegic.value.DoubleValue
2.502

@<SCITEGIC>MOL_PROPERTY
Valence
SciTegic.value.DoubleValue
4.160

@<SCITEGIC>MOL_PROPERTY
Coulomb
SciTegic.value.DoubleValue
44.771

@<SCITEGIC>MOL_PROPERTY
VdW
SciTegic.value.DoubleValue
0.992

@<SCITEGIC>MOL_PROPERTY
VdW6
SciTegic.value.DoubleValue
-9.113

@<SCITEGIC>MOL_PROPERTY
VdW12
SciTegic.value.DoubleValue
10.105

@<SCITEGIC>MOL_PROPERTY
Bond
SciTegic.value.DoubleValue
0.273

@<SCITEGIC>MOL_PROPERTY
Angle
SciTegic.value.DoubleValue
1.388

@<SCITEGIC>MOL_PROPERTY
Pdih
SciTegic.value.DoubleValue
2.499

@<SCITEGIC>MOL_PROPERTY
Idih
SciTegic.value.DoubleValue
0.000

@<SCITEGIC>MOL_PROPERTY
Tether
SciTegic.value.DoubleValue
0.000

@<TRIPOS>MOLECULE
guest-3_vm2.mol2 : vm2 ligand conformer 145
          29          28           1
SMALL
USER_CHARGES
 
@<TRIPOS>ATOM
       1    C1      20.518479   19.428197   20.305222 C.3        1 MOL1        -0.2427
       2    H1      21.423746   19.126538   19.762709 H          1 MOL1         0.0958
       3    H2      19.854996   19.938526   19.595084 H          1 MOL1         0.0958
       4    H3      20.819514   20.149841   21.074863 H          1 MOL1         0.0958
       5    C2      19.823683   18.195675   20.926610 C.3        1 MOL1        -0.1412
       6    H4      20.497947   17.714224   21.647433 H          1 MOL1         0.0947
       7    H5      19.648989   17.452357   20.136310 H          1 MOL1         0.0947
       8    C3      18.467544   18.527019   21.600034 C.3        1 MOL1        -0.1437
       9    H6      17.770655   18.892317   20.833234 H          1 MOL1         0.0947
      10    H7      18.028269   17.597205   21.986780 H          1 MOL1         0.0947
      11    C4      18.533979   19.568000   22.747261 C.3        1 MOL1        -0.1437
      12    H8      17.515686   19.727619   23.127617 H          1 MOL1         0.0947
      13    H9      18.864502   20.538220   22.353422 H          1 MOL1         0.0947
      14    C5      19.448241   19.139049   23.919475 C.3        1 MOL1        -0.1437
      15    H10     19.142340   18.144294   24.269411 H          1 MOL1         0.0947
      16    H11     20.485380   19.051296   23.570142 H          1 MOL1         0.0947
      17    C6      19.392926   20.152167   25.087696 C.3        1 MOL1        -0.1437
      18    H12     18.365169   20.226132   25.467528 H          1 MOL1         0.0947
      19    H13     19.651150   21.151090   24.709827 H          1 MOL1         0.0947
      20    C7      20.358766   19.799068   26.246423 C.3        1 MOL1        -0.1477
      21    H14     21.391823   19.816997   25.874506 H          1 MOL1         0.0947
      22    H15     20.298107   20.576843   27.019194 H          1 MOL1         0.0947
      23    C8      20.089312   18.424577   26.891574 C.3        1 MOL1         0.0145
      24    H16     20.825303   18.242618   27.679407 H          1 MOL1         0.0921
      25    H17     20.193631   17.636759   26.141171 H          1 MOL1         0.0921
      26    N1      18.711070   18.304248   27.510705 N.4        1 MOL1        -0.5969
      27    H18     18.562678   19.002876   28.246268 H          1 MOL1         0.3603
      28    H19     18.563527   17.382857   27.936946 H          1 MOL1         0.3603
      29    H20     17.972221   18.436351   26.812859 H          1 MOL1         0.3603
@<TRIPOS>BOND
    1     1     2    1
    2     1     3    1
    3     1     4    1
    4     1     5    1
    5     5     6    1
    6     5     7    1
    7     5     8    1
    8     8     9    1
    9     8    10    1
   10     8    11    1
   11    11    12    1
   12    11    13    1
   13    11    14    1
   14    14    15    1
   15    14    16    1
   16    14    17    1
   17    17    18    1
   18    17    19    1
   19    17    20    1
   20    20    21    1
   21    20    22    1
   22    20    23    1
   23    23    24    1
   24    23    25    1
   25    23    26    1
   26    26    27    1
   27    26    28    1
   28    26    29    1
@<TRIPOS>SUBSTRUCTURE
       1 MOL1            1 RESIDUE      1      MOL     
@<SCITEGIC>MOL_PROPERTY
VM2 Rank
SciTegic.value.IntegerValue
145

@<SCITEGIC>MOL_PROPERTY
Conf_Id
SciTegic.value.IntegerValue
1804

@<SCITEGIC>MOL_PROPERTY
Probability
SciTegic.value.DoubleValue
0.15

@<SCITEGIC>MOL_PROPERTY
Sum Probability
SciTegic.value.DoubleValue
94.10

@<SCITEGIC>MOL_PROPERTY
Delta G
SciTegic.value.DoubleValue
2.144

@<SCITEGIC>MOL_PROPERTY
G
SciTegic.value.DoubleValue
60.292

@<SCITEGIC>MOL_PROPERTY
E
SciTegic.value.DoubleValue
22.385

@<SCITEGIC>MOL_PROPERTY
-TS
SciTegic.value.DoubleValue
37.907

@<SCITEGIC>MOL_PROPERTY
U+W
SciTegic.value.DoubleValue
-1.760

@<SCITEGIC>MOL_PROPERTY
U
SciTegic.value.DoubleValue
50.249

@<SCITEGIC>MOL_PROPERTY
W
SciTegic.value.DoubleValue
-52.008

@<SCITEGIC>MOL_PROPERTY
W(PB)
SciTegic.value.DoubleValue
-54.458

@<SCITEGIC>MOL_PROPERTY
W(SA)
SciTegic.value.DoubleValue
2.449

@<SCITEGIC>MOL_PROPERTY
Valence
SciTegic.value.DoubleValue
3.924

@<SCITEGIC>MOL_PROPERTY
Coulomb
SciTegic.value.DoubleValue
45.456

@<SCITEGIC>MOL_PROPERTY
VdW
SciTegic.value.DoubleValue
0.869

@<SCITEGIC>MOL_PROPERTY
VdW6
SciTegic.value.DoubleValue
-9.872

@<SCITEGIC>MOL_PROPERTY
VdW12
SciTegic.value.DoubleValue
10.741

@<SCITEGIC>MOL_PROPERTY
Bond
SciTegic.value.DoubleValue
0.270

@<SCITEGIC>MOL_PROPERTY
Angle
SciTegic.value.DoubleValue
1.270

@<SCITEGIC>MOL_PROPERTY
Pdih
SciTegic.value.DoubleValue
2.384

@<SCITEGIC>MOL_PROPERTY
Idih
SciTegic.value.DoubleValue
0.000

@<SCITEGIC>MOL_PROPERTY
Tether
SciTegic.value.DoubleValue
0.000

@<TRIPOS>MOLECULE
guest-3_vm2.mol2 : vm2 ligand conformer 146
          29          28           1
SMALL
USER_CHARGES
 
@<TRIPOS>ATOM
       1    C1      19.533274   18.243074   20.148266 C.3        1 MOL1        -0.2427
       2    H1      20.490749   17.922771   20.577525 H          1 MOL1         0.0958
       3    H2      19.071631   17.365806   19.677002 H          1 MOL1         0.0958
       4    H3      19.738716   18.979184   19.360323 H          1 MOL1         0.0958
       5    C2      18.598261   18.832712   21.228059 C.3        1 MOL1        -0.1412
       6    H4      18.417343   18.083977   22.010812 H          1 MOL1         0.0947
       7    H5      17.618491   19.037084   20.774399 H          1 MOL1         0.0947
       8    C3      19.135385   20.143982   21.855491 C.3        1 MOL1        -0.1437
       9    H6      19.211658   20.907184   21.068927 H          1 MOL1         0.0947
      10    H7      18.393094   20.529097   22.567033 H          1 MOL1         0.0947
      11    C4      20.512769   20.022576   22.561508 C.3        1 MOL1        -0.1437
      12    H8      20.776257   21.000713   22.986656 H          1 MOL1         0.0947
      13    H9      21.286529   19.809898   21.811902 H          1 MOL1         0.0947
      14    C5      20.591223   18.952098   23.680257 C.3        1 MOL1        -0.1437
      15    H10     20.433643   17.952718   23.253612 H          1 MOL1         0.0947
      16    H11     21.612463   18.950017   24.085457 H          1 MOL1         0.0947
      17    C6      19.591339   19.192950   24.836240 C.3        1 MOL1        -0.1437
      18    H12     18.562002   19.130032   24.459260 H          1 MOL1         0.0947
      19    H13     19.728629   20.210081   25.226478 H          1 MOL1         0.0947
      20    C7      19.775272   18.162364   25.974994 C.3        1 MOL1        -0.1477
      21    H14     19.676867   17.147895   25.566180 H          1 MOL1         0.0947
      22    H15     20.789304   18.236274   26.389990 H          1 MOL1         0.0947
      23    C8      18.743110   18.334918   27.105783 C.3        1 MOL1         0.0145
      24    H16     18.868796   17.532247   27.837532 H          1 MOL1         0.0921
      25    H17     17.732140   18.267121   26.695024 H          1 MOL1         0.0921
      26    N1      18.863366   19.653325   27.844401 N.4        1 MOL1        -0.5969
      27    H18     19.787640   19.765658   28.273798 H          1 MOL1         0.3603
      28    H19     18.170978   19.732558   28.597323 H          1 MOL1         0.3603
      29    H20     18.720308   20.452470   27.219008 H          1 MOL1         0.3603
@<TRIPOS>BOND
    1     1     2    1
    2     1     3    1
    3     1     4    1
    4     1     5    1
    5     5     6    1
    6     5     7    1
    7     5     8    1
    8     8     9    1
    9     8    10    1
   10     8    11    1
   11    11    12    1
   12    11    13    1
   13    11    14    1
   14    14    15    1
   15    14    16    1
   16    14    17    1
   17    17    18    1
   18    17    19    1
   19    17    20    1
   20    20    21    1
   21    20    22    1
   22    20    23    1
   23    23    24    1
   24    23    25    1
   25    23    26    1
   26    26    27    1
   27    26    28    1
   28    26    29    1
@<TRIPOS>SUBSTRUCTURE
       1 MOL1            1 RESIDUE      1      MOL     
@<SCITEGIC>MOL_PROPERTY
VM2 Rank
SciTegic.value.IntegerValue
146

@<SCITEGIC>MOL_PROPERTY
Conf_Id
SciTegic.value.IntegerValue
956

@<SCITEGIC>MOL_PROPERTY
Probability
SciTegic.value.DoubleValue
0.14

@<SCITEGIC>MOL_PROPERTY
Sum Probability
SciTegic.value.DoubleValue
94.25

@<SCITEGIC>MOL_PROPERTY
Delta G
SciTegic.value.DoubleValue
2.157

@<SCITEGIC>MOL_PROPERTY
G
SciTegic.value.DoubleValue
60.305

@<SCITEGIC>MOL_PROPERTY
E
SciTegic.value.DoubleValue
22.241

@<SCITEGIC>MOL_PROPERTY
-TS
SciTegic.value.DoubleValue
38.064

@<SCITEGIC>MOL_PROPERTY
U+W
SciTegic.value.DoubleValue
-1.903

@<SCITEGIC>MOL_PROPERTY
U
SciTegic.value.DoubleValue
50.133

@<SCITEGIC>MOL_PROPERTY
W
SciTegic.value.DoubleValue
-52.036

@<SCITEGIC>MOL_PROPERTY
W(PB)
SciTegic.value.DoubleValue
-54.489

@<SCITEGIC>MOL_PROPERTY
W(SA)
SciTegic.value.DoubleValue
2.453

@<SCITEGIC>MOL_PROPERTY
Valence
SciTegic.value.DoubleValue
4.088

@<SCITEGIC>MOL_PROPERTY
Coulomb
SciTegic.value.DoubleValue
45.212

@<SCITEGIC>MOL_PROPERTY
VdW
SciTegic.value.DoubleValue
0.833

@<SCITEGIC>MOL_PROPERTY
VdW6
SciTegic.value.DoubleValue
-10.050

@<SCITEGIC>MOL_PROPERTY
VdW12
SciTegic.value.DoubleValue
10.883

@<SCITEGIC>MOL_PROPERTY
Bond
SciTegic.value.DoubleValue
0.287

@<SCITEGIC>MOL_PROPERTY
Angle
SciTegic.value.DoubleValue
1.410

@<SCITEGIC>MOL_PROPERTY
Pdih
SciTegic.value.DoubleValue
2.391

@<SCITEGIC>MOL_PROPERTY
Idih
SciTegic.value.DoubleValue
0.000

@<SCITEGIC>MOL_PROPERTY
Tether
SciTegic.value.DoubleValue
0.000

@<TRIPOS>MOLECULE
guest-3_vm2.mol2 : vm2 ligand conformer 147
          29          28           1
SMALL
USER_CHARGES
 
@<TRIPOS>ATOM
       1    C1      20.630133   18.687678   20.389860 C.3        1 MOL1        -0.2427
       2    H1      21.495663   18.074218   20.108217 H          1 MOL1         0.0958
       3    H2      20.031753   18.860359   19.485957 H          1 MOL1         0.0958
       4    H3      21.010221   19.655266   20.740470 H          1 MOL1         0.0958
       5    C2      19.795747   17.978897   21.480404 C.3        1 MOL1        -0.1412
       6    H4      20.410425   17.828017   22.377850 H          1 MOL1         0.0947
       7    H5      19.529712   16.973728   21.124898 H          1 MOL1         0.0947
       8    C3      18.492989   18.735084   21.844563 C.3        1 MOL1        -0.1437
       9    H6      17.851836   18.784353   20.953789 H          1 MOL1         0.0947
      10    H7      17.930190   18.143378   22.578503 H          1 MOL1         0.0947
      11    C4      18.695058   20.175309   22.388094 C.3        1 MOL1        -0.1437
      12    H8      17.711669   20.597591   22.636219 H          1 MOL1         0.0947
      13    H9      19.094598   20.811650   21.587284 H          1 MOL1         0.0947
      14    C5      19.618143   20.292242   23.628270 C.3        1 MOL1        -0.1437
      15    H10     20.635669   19.970943   23.369351 H          1 MOL1         0.0947
      16    H11     19.696798   21.353627   23.900956 H          1 MOL1         0.0947
      17    C6      19.111731   19.493093   24.852643 C.3        1 MOL1        -0.1437
      18    H12     19.086213   18.423605   24.609300 H          1 MOL1         0.0947
      19    H13     18.081043   19.794001   25.086001 H          1 MOL1         0.0947
      20    C7      20.008123   19.718457   26.093022 C.3        1 MOL1        -0.1477
      21    H14     21.035628   19.395924   25.878138 H          1 MOL1         0.0947
      22    H15     20.056922   20.792502   26.316522 H          1 MOL1         0.0947
      23    C8      19.489062   18.983833   27.343971 C.3        1 MOL1         0.0145
      24    H16     18.463055   19.296804   27.555491 H          1 MOL1         0.0921
      25    H17     20.110591   19.248181   28.203827 H          1 MOL1         0.0921
      26    N1      19.503013   17.473407   27.214172 N.4        1 MOL1        -0.5969
      27    H18     18.907122   17.153591   26.444271 H          1 MOL1         0.3603
      28    H19     19.164163   17.015135   28.067270 H          1 MOL1         0.3603
      29    H20     20.447354   17.115731   27.036533 H          1 MOL1         0.3603
@<TRIPOS>BOND
    1     1     2    1
    2     1     3    1
    3     1     4    1
    4     1     5    1
    5     5     6    1
    6     5     7    1
    7     5     8    1
    8     8     9    1
    9     8    10    1
   10     8    11    1
   11    11    12    1
   12    11    13    1
   13    11    14    1
   14    14    15    1
   15    14    16    1
   16    14    17    1
   17    17    18    1
   18    17    19    1
   19    17    20    1
   20    20    21    1
   21    20    22    1
   22    20    23    1
   23    23    24    1
   24    23    25    1
   25    23    26    1
   26    26    27    1
   27    26    28    1
   28    26    29    1
@<TRIPOS>SUBSTRUCTURE
       1 MOL1            1 RESIDUE      1      MOL     
@<SCITEGIC>MOL_PROPERTY
VM2 Rank
SciTegic.value.IntegerValue
147

@<SCITEGIC>MOL_PROPERTY
Conf_Id
SciTegic.value.IntegerValue
1602

@<SCITEGIC>MOL_PROPERTY
Probability
SciTegic.value.DoubleValue
0.14

@<SCITEGIC>MOL_PROPERTY
Sum Probability
SciTegic.value.DoubleValue
94.39

@<SCITEGIC>MOL_PROPERTY
Delta G
SciTegic.value.DoubleValue
2.170

@<SCITEGIC>MOL_PROPERTY
G
SciTegic.value.DoubleValue
60.318

@<SCITEGIC>MOL_PROPERTY
E
SciTegic.value.DoubleValue
22.251

@<SCITEGIC>MOL_PROPERTY
-TS
SciTegic.value.DoubleValue
38.066

@<SCITEGIC>MOL_PROPERTY
U+W
SciTegic.value.DoubleValue
-1.893

@<SCITEGIC>MOL_PROPERTY
U
SciTegic.value.DoubleValue
50.557

@<SCITEGIC>MOL_PROPERTY
W
SciTegic.value.DoubleValue
-52.450

@<SCITEGIC>MOL_PROPERTY
W(PB)
SciTegic.value.DoubleValue
-54.892

@<SCITEGIC>MOL_PROPERTY
W(SA)
SciTegic.value.DoubleValue
2.442

@<SCITEGIC>MOL_PROPERTY
Valence
SciTegic.value.DoubleValue
4.083

@<SCITEGIC>MOL_PROPERTY
Coulomb
SciTegic.value.DoubleValue
45.658

@<SCITEGIC>MOL_PROPERTY
VdW
SciTegic.value.DoubleValue
0.816

@<SCITEGIC>MOL_PROPERTY
VdW6
SciTegic.value.DoubleValue
-10.085

@<SCITEGIC>MOL_PROPERTY
VdW12
SciTegic.value.DoubleValue
10.901

@<SCITEGIC>MOL_PROPERTY
Bond
SciTegic.value.DoubleValue
0.289

@<SCITEGIC>MOL_PROPERTY
Angle
SciTegic.value.DoubleValue
1.409

@<SCITEGIC>MOL_PROPERTY
Pdih
SciTegic.value.DoubleValue
2.386

@<SCITEGIC>MOL_PROPERTY
Idih
SciTegic.value.DoubleValue
0.000

@<SCITEGIC>MOL_PROPERTY
Tether
SciTegic.value.DoubleValue
0.000

@<TRIPOS>MOLECULE
guest-3_vm2.mol2 : vm2 ligand conformer 148
          29          28           1
SMALL
USER_CHARGES
 
@<TRIPOS>ATOM
       1    C1      21.126626   19.285759   20.800850 C.3        1 MOL1        -0.2427
       2    H1      21.087557   20.301237   20.385865 H          1 MOL1         0.0958
       3    H2      21.421719   19.355667   21.855258 H          1 MOL1         0.0958
       4    H3      21.916415   18.736494   20.272302 H          1 MOL1         0.0958
       5    C2      19.767579   18.567851   20.640299 C.3        1 MOL1        -0.1412
       6    H4      19.824832   17.563654   21.081215 H          1 MOL1         0.0947
       7    H5      19.572346   18.415305   19.569681 H          1 MOL1         0.0947
       8    C3      18.579414   19.353712   21.251137 C.3        1 MOL1        -0.1437
       9    H6      18.468178   20.304831   20.712548 H          1 MOL1         0.0947
      10    H7      17.652401   18.793661   21.066535 H          1 MOL1         0.0947
      11    C4      18.695021   19.651663   22.768240 C.3        1 MOL1        -0.1437
      12    H8      17.806948   20.219347   23.077999 H          1 MOL1         0.0947
      13    H9      19.554119   20.310206   22.946334 H          1 MOL1         0.0947
      14    C5      18.807622   18.374796   23.638853 C.3        1 MOL1        -0.1437
      15    H10     18.001123   17.682057   23.361836 H          1 MOL1         0.0947
      16    H11     19.750674   17.854758   23.424634 H          1 MOL1         0.0947
      17    C6      18.715558   18.653321   25.159134 C.3        1 MOL1        -0.1437
      18    H12     18.677877   17.688316   25.681496 H          1 MOL1         0.0947
      19    H13     17.768417   19.163198   25.383456 H          1 MOL1         0.0947
      20    C7      19.900453   19.488683   25.705613 C.3        1 MOL1        -0.1477
      21    H14     20.851746   18.997262   25.462048 H          1 MOL1         0.0947
      22    H15     19.919459   20.470719   25.217042 H          1 MOL1         0.0947
      23    C8      19.814294   19.716769   27.227054 C.3        1 MOL1         0.0145
      24    H16     18.859840   20.188842   27.475146 H          1 MOL1         0.0921
      25    H17     20.618460   20.388906   27.538631 H          1 MOL1         0.0921
      26    N1      19.937433   18.445446   28.043821 N.4        1 MOL1        -0.5969
      27    H18     19.187886   17.781137   27.826938 H          1 MOL1         0.3603
      28    H19     19.889798   18.634031   29.051164 H          1 MOL1         0.3603
      29    H20     20.827159   17.966404   27.870131 H          1 MOL1         0.3603
@<TRIPOS>BOND
    1     1     2    1
    2     1     3    1
    3     1     4    1
    4     1     5    1
    5     5     6    1
    6     5     7    1
    7     5     8    1
    8     8     9    1
    9     8    10    1
   10     8    11    1
   11    11    12    1
   12    11    13    1
   13    11    14    1
   14    14    15    1
   15    14    16    1
   16    14    17    1
   17    17    18    1
   18    17    19    1
   19    17    20    1
   20    20    21    1
   21    20    22    1
   22    20    23    1
   23    23    24    1
   24    23    25    1
   25    23    26    1
   26    26    27    1
   27    26    28    1
   28    26    29    1
@<TRIPOS>SUBSTRUCTURE
       1 MOL1            1 RESIDUE      1      MOL     
@<SCITEGIC>MOL_PROPERTY
VM2 Rank
SciTegic.value.IntegerValue
148

@<SCITEGIC>MOL_PROPERTY
Conf_Id
SciTegic.value.IntegerValue
572

@<SCITEGIC>MOL_PROPERTY
Probability
SciTegic.value.DoubleValue
0.14

@<SCITEGIC>MOL_PROPERTY
Sum Probability
SciTegic.value.DoubleValue
94.53

@<SCITEGIC>MOL_PROPERTY
Delta G
SciTegic.value.DoubleValue
2.182

@<SCITEGIC>MOL_PROPERTY
G
SciTegic.value.DoubleValue
60.330

@<SCITEGIC>MOL_PROPERTY
E
SciTegic.value.DoubleValue
22.508

@<SCITEGIC>MOL_PROPERTY
-TS
SciTegic.value.DoubleValue
37.822

@<SCITEGIC>MOL_PROPERTY
U+W
SciTegic.value.DoubleValue
-1.637

@<SCITEGIC>MOL_PROPERTY
U
SciTegic.value.DoubleValue
50.198

@<SCITEGIC>MOL_PROPERTY
W
SciTegic.value.DoubleValue
-51.835

@<SCITEGIC>MOL_PROPERTY
W(PB)
SciTegic.value.DoubleValue
-54.265

@<SCITEGIC>MOL_PROPERTY
W(SA)
SciTegic.value.DoubleValue
2.430

@<SCITEGIC>MOL_PROPERTY
Valence
SciTegic.value.DoubleValue
4.164

@<SCITEGIC>MOL_PROPERTY
Coulomb
SciTegic.value.DoubleValue
45.026

@<SCITEGIC>MOL_PROPERTY
VdW
SciTegic.value.DoubleValue
1.009

@<SCITEGIC>MOL_PROPERTY
VdW6
SciTegic.value.DoubleValue
-9.773

@<SCITEGIC>MOL_PROPERTY
VdW12
SciTegic.value.DoubleValue
10.782

@<SCITEGIC>MOL_PROPERTY
Bond
SciTegic.value.DoubleValue
0.289

@<SCITEGIC>MOL_PROPERTY
Angle
SciTegic.value.DoubleValue
1.298

@<SCITEGIC>MOL_PROPERTY
Pdih
SciTegic.value.DoubleValue
2.577

@<SCITEGIC>MOL_PROPERTY
Idih
SciTegic.value.DoubleValue
0.000

@<SCITEGIC>MOL_PROPERTY
Tether
SciTegic.value.DoubleValue
0.000

@<TRIPOS>MOLECULE
guest-3_vm2.mol2 : vm2 ligand conformer 149
          29          28           1
SMALL
USER_CHARGES
 
@<TRIPOS>ATOM
       1    C1      20.995402   17.992689   21.099076 C.3        1 MOL1        -0.2427
       2    H1      20.609718   17.163147   21.704523 H          1 MOL1         0.0958
       3    H2      21.434106   17.561537   20.189930 H          1 MOL1         0.0958
       4    H3      21.800881   18.483522   21.660563 H          1 MOL1         0.0958
       5    C2      19.878664   18.997672   20.736417 C.3        1 MOL1        -0.1412
       6    H4      19.072173   18.477377   20.201123 H          1 MOL1         0.0947
       7    H5      20.284224   19.740277   20.035156 H          1 MOL1         0.0947
       8    C3      19.299200   19.739027   21.964914 C.3        1 MOL1        -0.1437
       9    H6      20.110470   20.272920   22.476895 H          1 MOL1         0.0947
      10    H7      18.596246   20.506020   21.611970 H          1 MOL1         0.0947
      11    C4      18.567571   18.801759   22.958223 C.3        1 MOL1        -0.1437
      12    H8      19.273992   18.082187   23.390364 H          1 MOL1         0.0947
      13    H9      17.826584   18.206187   22.407672 H          1 MOL1         0.0947
      14    C5      17.837882   19.560640   24.096198 C.3        1 MOL1        -0.1437
      15    H10     17.055999   20.195010   23.656498 H          1 MOL1         0.0947
      16    H11     17.307569   18.832146   24.724192 H          1 MOL1         0.0947
      17    C6      18.748748   20.443894   24.991035 C.3        1 MOL1        -0.1437
      18    H12     18.131041   20.899223   25.777420 H          1 MOL1         0.0947
      19    H13     19.141557   21.282644   24.401061 H          1 MOL1         0.0947
      20    C7      19.930690   19.694663   25.654652 C.3        1 MOL1        -0.1477
      21    H14     20.627829   19.337348   24.885948 H          1 MOL1         0.0947
      22    H15     20.494367   20.402142   26.277111 H          1 MOL1         0.0947
      23    C8      19.469277   18.512585   26.526765 C.3        1 MOL1         0.0145
      24    H16     18.936905   17.784503   25.909200 H          1 MOL1         0.0921
      25    H17     18.787124   18.871593   27.302054 H          1 MOL1         0.0921
      26    N1      20.616566   17.795071   27.207720 N.4        1 MOL1        -0.5969
      27    H18     21.282268   17.409838   26.529721 H          1 MOL1         0.3603
      28    H19     20.287943   17.011753   27.783042 H          1 MOL1         0.3603
      29    H20     21.143274   18.420001   27.826957 H          1 MOL1         0.3603
@<TRIPOS>BOND
    1     1     2    1
    2     1     3    1
    3     1     4    1
    4     1     5    1
    5     5     6    1
    6     5     7    1
    7     5     8    1
    8     8     9    1
    9     8    10    1
   10     8    11    1
   11    11    12    1
   12    11    13    1
   13    11    14    1
   14    14    15    1
   15    14    16    1
   16    14    17    1
   17    17    18    1
   18    17    19    1
   19    17    20    1
   20    20    21    1
   21    20    22    1
   22    20    23    1
   23    23    24    1
   24    23    25    1
   25    23    26    1
   26    26    27    1
   27    26    28    1
   28    26    29    1
@<TRIPOS>SUBSTRUCTURE
       1 MOL1            1 RESIDUE      1      MOL     
@<SCITEGIC>MOL_PROPERTY
VM2 Rank
SciTegic.value.IntegerValue
149

@<SCITEGIC>MOL_PROPERTY
Conf_Id
SciTegic.value.IntegerValue
1691

@<SCITEGIC>MOL_PROPERTY
Probability
SciTegic.value.DoubleValue
0.13

@<SCITEGIC>MOL_PROPERTY
Sum Probability
SciTegic.value.DoubleValue
94.65

@<SCITEGIC>MOL_PROPERTY
Delta G
SciTegic.value.DoubleValue
2.230

@<SCITEGIC>MOL_PROPERTY
G
SciTegic.value.DoubleValue
60.378

@<SCITEGIC>MOL_PROPERTY
E
SciTegic.value.DoubleValue
22.368

@<SCITEGIC>MOL_PROPERTY
-TS
SciTegic.value.DoubleValue
38.009

@<SCITEGIC>MOL_PROPERTY
U+W
SciTegic.value.DoubleValue
-1.776

@<SCITEGIC>MOL_PROPERTY
U
SciTegic.value.DoubleValue
50.712

@<SCITEGIC>MOL_PROPERTY
W
SciTegic.value.DoubleValue
-52.488

@<SCITEGIC>MOL_PROPERTY
W(PB)
SciTegic.value.DoubleValue
-54.906

@<SCITEGIC>MOL_PROPERTY
W(SA)
SciTegic.value.DoubleValue
2.418

@<SCITEGIC>MOL_PROPERTY
Valence
SciTegic.value.DoubleValue
4.258

@<SCITEGIC>MOL_PROPERTY
Coulomb
SciTegic.value.DoubleValue
45.781

@<SCITEGIC>MOL_PROPERTY
VdW
SciTegic.value.DoubleValue
0.673

@<SCITEGIC>MOL_PROPERTY
VdW6
SciTegic.value.DoubleValue
-10.326

@<SCITEGIC>MOL_PROPERTY
VdW12
SciTegic.value.DoubleValue
10.999

@<SCITEGIC>MOL_PROPERTY
Bond
SciTegic.value.DoubleValue
0.292

@<SCITEGIC>MOL_PROPERTY
Angle
SciTegic.value.DoubleValue
1.417

@<SCITEGIC>MOL_PROPERTY
Pdih
SciTegic.value.DoubleValue
2.549

@<SCITEGIC>MOL_PROPERTY
Idih
SciTegic.value.DoubleValue
0.000

@<SCITEGIC>MOL_PROPERTY
Tether
SciTegic.value.DoubleValue
0.000

@<TRIPOS>MOLECULE
guest-3_vm2.mol2 : vm2 ligand conformer 150
          29          28           1
SMALL
USER_CHARGES
 
@<TRIPOS>ATOM
       1    C1      20.923398   18.394438   20.294654 C.3        1 MOL1        -0.2427
       2    H1      21.094630   19.257327   19.637918 H          1 MOL1         0.0958
       3    H2      21.798795   18.282368   20.947590 H          1 MOL1         0.0958
       4    H3      20.856500   17.498775   19.663534 H          1 MOL1         0.0958
       5    C2      19.633851   18.574694   21.123051 C.3        1 MOL1        -0.1412
       6    H4      19.475271   17.677581   21.736125 H          1 MOL1         0.0947
       7    H5      18.772623   18.653839   20.445118 H          1 MOL1         0.0947
       8    C3      19.705795   19.830015   22.023666 C.3        1 MOL1        -0.1437
       9    H6      20.546872   19.737597   22.723313 H          1 MOL1         0.0947
      10    H7      19.928668   20.705236   21.398044 H          1 MOL1         0.0947
      11    C4      18.394852   20.108255   22.803279 C.3        1 MOL1        -0.1437
      12    H8      17.587768   20.299001   22.082681 H          1 MOL1         0.0947
      13    H9      18.508878   21.042509   23.368746 H          1 MOL1         0.0947
      14    C5      17.941891   18.976352   23.764763 C.3        1 MOL1        -0.1437
      15    H10     17.031269   19.302767   24.285604 H          1 MOL1         0.0947
      16    H11     17.643893   18.098594   23.176080 H          1 MOL1         0.0947
      17    C6      18.992293   18.539665   24.818381 C.3        1 MOL1        -0.1437
      18    H12     19.873986   18.118833   24.317083 H          1 MOL1         0.0947
      19    H13     18.560547   17.720762   25.408597 H          1 MOL1         0.0947
      20    C7      19.426619   19.684191   25.767623 C.3        1 MOL1        -0.1477
      21    H14     19.888294   20.492510   25.186975 H          1 MOL1         0.0947
      22    H15     18.547314   20.115561   26.264034 H          1 MOL1         0.0947
      23    C8      20.442313   19.221384   26.829727 C.3        1 MOL1         0.0145
      24    H16     20.783186   20.085874   27.405906 H          1 MOL1         0.0921
      25    H17     21.310988   18.774722   26.338539 H          1 MOL1         0.0921
      26    N1      19.882989   18.209005   27.809855 N.4        1 MOL1        -0.5969
      27    H18     19.074901   18.580241   28.320181 H          1 MOL1         0.3603
      28    H19     20.579375   17.932539   28.510674 H          1 MOL1         0.3603
      29    H20     19.576064   17.353076   27.337313 H          1 MOL1         0.3603
@<TRIPOS>BOND
    1     1     2    1
    2     1     3    1
    3     1     4    1
    4     1     5    1
    5     5     6    1
    6     5     7    1
    7     5     8    1
    8     8     9    1
    9     8    10    1
   10     8    11    1
   11    11    12    1
   12    11    13    1
   13    11    14    1
   14    14    15    1
   15    14    16    1
   16    14    17    1
   17    17    18    1
   18    17    19    1
   19    17    20    1
   20    20    21    1
   21    20    22    1
   22    20    23    1
   23    23    24    1
   24    23    25    1
   25    23    26    1
   26    26    27    1
   27    26    28    1
   28    26    29    1
@<TRIPOS>SUBSTRUCTURE
       1 MOL1            1 RESIDUE      1      MOL     
@<SCITEGIC>MOL_PROPERTY
VM2 Rank
SciTegic.value.IntegerValue
150

@<SCITEGIC>MOL_PROPERTY
Conf_Id
SciTegic.value.IntegerValue
345

@<SCITEGIC>MOL_PROPERTY
Probability
SciTegic.value.DoubleValue
0.13

@<SCITEGIC>MOL_PROPERTY
Sum Probability
SciTegic.value.DoubleValue
94.78

@<SCITEGIC>MOL_PROPERTY
Delta G
SciTegic.value.DoubleValue
2.232

@<SCITEGIC>MOL_PROPERTY
G
SciTegic.value.DoubleValue
60.380

@<SCITEGIC>MOL_PROPERTY
E
SciTegic.value.DoubleValue
22.304

@<SCITEGIC>MOL_PROPERTY
-TS
SciTegic.value.DoubleValue
38.077

@<SCITEGIC>MOL_PROPERTY
U+W
SciTegic.value.DoubleValue
-1.841

@<SCITEGIC>MOL_PROPERTY
U
SciTegic.value.DoubleValue
50.242

@<SCITEGIC>MOL_PROPERTY
W
SciTegic.value.DoubleValue
-52.082

@<SCITEGIC>MOL_PROPERTY
W(PB)
SciTegic.value.DoubleValue
-54.526

@<SCITEGIC>MOL_PROPERTY
W(SA)
SciTegic.value.DoubleValue
2.443

@<SCITEGIC>MOL_PROPERTY
Valence
SciTegic.value.DoubleValue
4.143

@<SCITEGIC>MOL_PROPERTY
Coulomb
SciTegic.value.DoubleValue
45.288

@<SCITEGIC>MOL_PROPERTY
VdW
SciTegic.value.DoubleValue
0.811

@<SCITEGIC>MOL_PROPERTY
VdW6
SciTegic.value.DoubleValue
-10.142

@<SCITEGIC>MOL_PROPERTY
VdW12
SciTegic.value.DoubleValue
10.952

@<SCITEGIC>MOL_PROPERTY
Bond
SciTegic.value.DoubleValue
0.297

@<SCITEGIC>MOL_PROPERTY
Angle
SciTegic.value.DoubleValue
1.473

@<SCITEGIC>MOL_PROPERTY
Pdih
SciTegic.value.DoubleValue
2.372

@<SCITEGIC>MOL_PROPERTY
Idih
SciTegic.value.DoubleValue
0.000

@<SCITEGIC>MOL_PROPERTY
Tether
SciTegic.value.DoubleValue
0.000

@<TRIPOS>MOLECULE
guest-3_vm2.mol2 : vm2 ligand conformer 151
          29          28           1
SMALL
USER_CHARGES
 
@<TRIPOS>ATOM
       1    C1      21.253478   19.127264   20.926766 C.3        1 MOL1        -0.2427
       2    H1      21.881170   18.717764   21.728823 H          1 MOL1         0.0958
       3    H2      21.802004   19.018531   19.982204 H          1 MOL1         0.0958
       4    H3      21.119430   20.200777   21.108672 H          1 MOL1         0.0958
       5    C2      19.896807   18.390800   20.852112 C.3        1 MOL1        -0.1412
       6    H4      20.075220   17.348684   20.552333 H          1 MOL1         0.0947
       7    H5      19.276903   18.836453   20.061674 H          1 MOL1         0.0947
       8    C3      19.122181   18.396855   22.191697 C.3        1 MOL1        -0.1437
       9    H6      18.229601   17.765550   22.083280 H          1 MOL1         0.0947
      10    H7      19.743123   17.928089   22.966261 H          1 MOL1         0.0947
      11    C4      18.687589   19.813973   22.642869 C.3        1 MOL1        -0.1437
      12    H8      18.161825   20.307380   21.813994 H          1 MOL1         0.0947
      13    H9      19.569855   20.431766   22.851723 H          1 MOL1         0.0947
      14    C5      17.752746   19.808169   23.879849 C.3        1 MOL1        -0.1437
      15    H10     17.471717   20.844090   24.114425 H          1 MOL1         0.0947
      16    H11     16.817052   19.295720   23.617136 H          1 MOL1         0.0947
      17    C6      18.343142   19.146565   25.151786 C.3        1 MOL1        -0.1437
      18    H12     18.508563   18.077195   24.968971 H          1 MOL1         0.0947
      19    H13     17.592327   19.204407   25.951995 H          1 MOL1         0.0947
      20    C7      19.652702   19.812755   25.642131 C.3        1 MOL1        -0.1477
      21    H14     20.450352   19.682205   24.899745 H          1 MOL1         0.0947
      22    H15     19.493220   20.894042   25.747320 H          1 MOL1         0.0947
      23    C8      20.128998   19.254594   26.996668 C.3        1 MOL1         0.0145
      24    H16     19.340648   19.379087   27.743905 H          1 MOL1         0.0921
      25    H17     21.007569   19.813023   27.330999 H          1 MOL1         0.0921
      26    N1      20.506358   17.787026   26.951122 N.4        1 MOL1        -0.5969
      27    H18     21.262442   17.609326   26.281918 H          1 MOL1         0.3603
      28    H19     19.712423   17.200409   26.675988 H          1 MOL1         0.3603
      29    H20     20.828149   17.448596   27.864622 H          1 MOL1         0.3603
@<TRIPOS>BOND
    1     1     2    1
    2     1     3    1
    3     1     4    1
    4     1     5    1
    5     5     6    1
    6     5     7    1
    7     5     8    1
    8     8     9    1
    9     8    10    1
   10     8    11    1
   11    11    12    1
   12    11    13    1
   13    11    14    1
   14    14    15    1
   15    14    16    1
   16    14    17    1
   17    17    18    1
   18    17    19    1
   19    17    20    1
   20    20    21    1
   21    20    22    1
   22    20    23    1
   23    23    24    1
   24    23    25    1
   25    23    26    1
   26    26    27    1
   27    26    28    1
   28    26    29    1
@<TRIPOS>SUBSTRUCTURE
       1 MOL1            1 RESIDUE      1      MOL     
@<SCITEGIC>MOL_PROPERTY
VM2 Rank
SciTegic.value.IntegerValue
151

@<SCITEGIC>MOL_PROPERTY
Conf_Id
SciTegic.value.IntegerValue
1942

@<SCITEGIC>MOL_PROPERTY
Probability
SciTegic.value.DoubleValue
0.12

@<SCITEGIC>MOL_PROPERTY
Sum Probability
SciTegic.value.DoubleValue
94.91

@<SCITEGIC>MOL_PROPERTY
Delta G
SciTegic.value.DoubleValue
2.248

@<SCITEGIC>MOL_PROPERTY
G
SciTegic.value.DoubleValue
60.396

@<SCITEGIC>MOL_PROPERTY
E
SciTegic.value.DoubleValue
22.521

@<SCITEGIC>MOL_PROPERTY
-TS
SciTegic.value.DoubleValue
37.875

@<SCITEGIC>MOL_PROPERTY
U+W
SciTegic.value.DoubleValue
-1.624

@<SCITEGIC>MOL_PROPERTY
U
SciTegic.value.DoubleValue
50.861

@<SCITEGIC>MOL_PROPERTY
W
SciTegic.value.DoubleValue
-52.485

@<SCITEGIC>MOL_PROPERTY
W(PB)
SciTegic.value.DoubleValue
-54.915

@<SCITEGIC>MOL_PROPERTY
W(SA)
SciTegic.value.DoubleValue
2.430

@<SCITEGIC>MOL_PROPERTY
Valence
SciTegic.value.DoubleValue
4.116

@<SCITEGIC>MOL_PROPERTY
Coulomb
SciTegic.value.DoubleValue
45.895

@<SCITEGIC>MOL_PROPERTY
VdW
SciTegic.value.DoubleValue
0.850

@<SCITEGIC>MOL_PROPERTY
VdW6
SciTegic.value.DoubleValue
-9.985

@<SCITEGIC>MOL_PROPERTY
VdW12
SciTegic.value.DoubleValue
10.835

@<SCITEGIC>MOL_PROPERTY
Bond
SciTegic.value.DoubleValue
0.285

@<SCITEGIC>MOL_PROPERTY
Angle
SciTegic.value.DoubleValue
1.253

@<SCITEGIC>MOL_PROPERTY
Pdih
SciTegic.value.DoubleValue
2.578

@<SCITEGIC>MOL_PROPERTY
Idih
SciTegic.value.DoubleValue
0.000

@<SCITEGIC>MOL_PROPERTY
Tether
SciTegic.value.DoubleValue
0.000

@<TRIPOS>MOLECULE
guest-3_vm2.mol2 : vm2 ligand conformer 152
          29          28           1
SMALL
USER_CHARGES
 
@<TRIPOS>ATOM
       1    C1      19.548531   19.385544   19.658060 C.3        1 MOL1        -0.2427
       2    H1      20.470199   19.937445   19.879667 H          1 MOL1         0.0958
       3    H2      19.819830   18.358440   19.381532 H          1 MOL1         0.0958
       4    H3      19.084925   19.857522   18.782146 H          1 MOL1         0.0958
       5    C2      18.574313   19.399092   20.857869 C.3        1 MOL1        -0.1412
       6    H4      17.622303   18.948936   20.543569 H          1 MOL1         0.0947
       7    H5      18.345836   20.436961   21.137704 H          1 MOL1         0.0947
       8    C3      19.102601   18.628147   22.091740 C.3        1 MOL1        -0.1437
       9    H6      18.293412   18.579338   22.831636 H          1 MOL1         0.0947
      10    H7      19.327923   17.590977   21.808146 H          1 MOL1         0.0947
      11    C4      20.353236   19.278040   22.736170 C.3        1 MOL1        -0.1437
      12    H8      20.130324   20.315634   23.016861 H          1 MOL1         0.0947
      13    H9      21.158776   19.333981   21.992933 H          1 MOL1         0.0947
      14    C5      20.895631   18.499820   23.963317 C.3        1 MOL1        -0.1437
      15    H10     21.225830   17.504880   23.634318 H          1 MOL1         0.0947
      16    H11     21.797817   19.008311   24.330283 H          1 MOL1         0.0947
      17    C6      19.903594   18.328859   25.143163 C.3        1 MOL1        -0.1437
      18    H12     20.413799   17.763478   25.934016 H          1 MOL1         0.0947
      19    H13     19.052442   17.708818   24.832373 H          1 MOL1         0.0947
      20    C7      19.389875   19.671389   25.720751 C.3        1 MOL1        -0.1477
      21    H14     20.237842   20.304266   26.014215 H          1 MOL1         0.0947
      22    H15     18.839105   20.220887   24.947129 H          1 MOL1         0.0947
      23    C8      18.449667   19.478485   26.926084 C.3        1 MOL1         0.0145
      24    H16     17.614705   18.832286   26.642117 H          1 MOL1         0.0921
      25    H17     18.043602   20.447933   27.227419 H          1 MOL1         0.0921
      26    N1      19.126552   18.868626   28.137846 N.4        1 MOL1        -0.5969
      27    H18     19.500687   17.936545   27.934424 H          1 MOL1         0.3603
      28    H19     18.477265   18.766693   28.925620 H          1 MOL1         0.3603
      29    H20     19.908727   19.444388   28.466427 H          1 MOL1         0.3603
@<TRIPOS>BOND
    1     1     2    1
    2     1     3    1
    3     1     4    1
    4     1     5    1
    5     5     6    1
    6     5     7    1
    7     5     8    1
    8     8     9    1
    9     8    10    1
   10     8    11    1
   11    11    12    1
   12    11    13    1
   13    11    14    1
   14    14    15    1
   15    14    16    1
   16    14    17    1
   17    17    18    1
   18    17    19    1
   19    17    20    1
   20    20    21    1
   21    20    22    1
   22    20    23    1
   23    23    24    1
   24    23    25    1
   25    23    26    1
   26    26    27    1
   27    26    28    1
   28    26    29    1
@<TRIPOS>SUBSTRUCTURE
       1 MOL1            1 RESIDUE      1      MOL     
@<SCITEGIC>MOL_PROPERTY
VM2 Rank
SciTegic.value.IntegerValue
152

@<SCITEGIC>MOL_PROPERTY
Conf_Id
SciTegic.value.IntegerValue
1662

@<SCITEGIC>MOL_PROPERTY
Probability
SciTegic.value.DoubleValue
0.12

@<SCITEGIC>MOL_PROPERTY
Sum Probability
SciTegic.value.DoubleValue
95.03

@<SCITEGIC>MOL_PROPERTY
Delta G
SciTegic.value.DoubleValue
2.251

@<SCITEGIC>MOL_PROPERTY
G
SciTegic.value.DoubleValue
60.399

@<SCITEGIC>MOL_PROPERTY
E
SciTegic.value.DoubleValue
22.594

@<SCITEGIC>MOL_PROPERTY
-TS
SciTegic.value.DoubleValue
37.806

@<SCITEGIC>MOL_PROPERTY
U+W
SciTegic.value.DoubleValue
-1.551

@<SCITEGIC>MOL_PROPERTY
U
SciTegic.value.DoubleValue
50.427

@<SCITEGIC>MOL_PROPERTY
W
SciTegic.value.DoubleValue
-51.978

@<SCITEGIC>MOL_PROPERTY
W(PB)
SciTegic.value.DoubleValue
-54.427

@<SCITEGIC>MOL_PROPERTY
W(SA)
SciTegic.value.DoubleValue
2.449

@<SCITEGIC>MOL_PROPERTY
Valence
SciTegic.value.DoubleValue
4.273

@<SCITEGIC>MOL_PROPERTY
Coulomb
SciTegic.value.DoubleValue
45.070

@<SCITEGIC>MOL_PROPERTY
VdW
SciTegic.value.DoubleValue
1.084

@<SCITEGIC>MOL_PROPERTY
VdW6
SciTegic.value.DoubleValue
-9.709

@<SCITEGIC>MOL_PROPERTY
VdW12
SciTegic.value.DoubleValue
10.792

@<SCITEGIC>MOL_PROPERTY
Bond
SciTegic.value.DoubleValue
0.299

@<SCITEGIC>MOL_PROPERTY
Angle
SciTegic.value.DoubleValue
1.475

@<SCITEGIC>MOL_PROPERTY
Pdih
SciTegic.value.DoubleValue
2.499

@<SCITEGIC>MOL_PROPERTY
Idih
SciTegic.value.DoubleValue
0.000

@<SCITEGIC>MOL_PROPERTY
Tether
SciTegic.value.DoubleValue
0.000

@<TRIPOS>MOLECULE
guest-3_vm2.mol2 : vm2 ligand conformer 153
          29          28           1
SMALL
USER_CHARGES
 
@<TRIPOS>ATOM
       1    C1      20.656782   18.762012   20.391733 C.3        1 MOL1        -0.2427
       2    H1      20.096994   19.042517   19.490138 H          1 MOL1         0.0958
       3    H2      21.719143   18.700652   20.122617 H          1 MOL1         0.0958
       4    H3      20.334493   17.759123   20.698269 H          1 MOL1         0.0958
       5    C2      20.442909   19.794759   21.521134 C.3        1 MOL1        -0.1412
       6    H4      20.877298   20.754839   21.209563 H          1 MOL1         0.0947
       7    H5      21.001709   19.487391   22.415154 H          1 MOL1         0.0947
       8    C3      18.950437   20.018742   21.873231 C.3        1 MOL1        -0.1437
       9    H6      18.878035   20.803335   22.637887 H          1 MOL1         0.0947
      10    H7      18.435261   20.421203   20.990280 H          1 MOL1         0.0947
      11    C4      18.188797   18.754999   22.356310 C.3        1 MOL1        -0.1437
      12    H8      18.107392   18.041752   21.525340 H          1 MOL1         0.0947
      13    H9      17.156496   19.040074   22.601320 H          1 MOL1         0.0947
      14    C5      18.812415   18.031800   23.577736 C.3        1 MOL1        -0.1437
      15    H10     18.198477   17.149986   23.807003 H          1 MOL1         0.0947
      16    H11     19.807450   17.647387   23.317423 H          1 MOL1         0.0947
      17    C6      18.908038   18.921805   24.839848 C.3        1 MOL1        -0.1437
      18    H12     17.916043   19.331252   25.075680 H          1 MOL1         0.0947
      19    H13     19.567774   19.775185   24.639445 H          1 MOL1         0.0947
      20    C7      19.442561   18.131585   26.057502 C.3        1 MOL1        -0.1477
      21    H14     18.798236   17.260770   26.237589 H          1 MOL1         0.0947
      22    H15     20.445484   17.740115   25.841014 H          1 MOL1         0.0947
      23    C8      19.487263   18.978611   27.343781 C.3        1 MOL1         0.0145
      24    H16     19.789503   18.347053   28.183611 H          1 MOL1         0.0921
      25    H17     18.491602   19.376704   27.557236 H          1 MOL1         0.0921
      26    N1      20.454797   20.143686   27.273724 N.4        1 MOL1        -0.5969
      27    H18     21.414973   19.830479   27.096999 H          1 MOL1         0.3603
      28    H19     20.470033   20.678679   28.149030 H          1 MOL1         0.3603
      29    H20     20.206186   20.798417   26.525636 H          1 MOL1         0.3603
@<TRIPOS>BOND
    1     1     2    1
    2     1     3    1
    3     1     4    1
    4     1     5    1
    5     5     6    1
    6     5     7    1
    7     5     8    1
    8     8     9    1
    9     8    10    1
   10     8    11    1
   11    11    12    1
   12    11    13    1
   13    11    14    1
   14    14    15    1
   15    14    16    1
   16    14    17    1
   17    17    18    1
   18    17    19    1
   19    17    20    1
   20    20    21    1
   21    20    22    1
   22    20    23    1
   23    23    24    1
   24    23    25    1
   25    23    26    1
   26    26    27    1
   27    26    28    1
   28    26    29    1
@<TRIPOS>SUBSTRUCTURE
       1 MOL1            1 RESIDUE      1      MOL     
@<SCITEGIC>MOL_PROPERTY
VM2 Rank
SciTegic.value.IntegerValue
153

@<SCITEGIC>MOL_PROPERTY
Conf_Id
SciTegic.value.IntegerValue
254

@<SCITEGIC>MOL_PROPERTY
Probability
SciTegic.value.DoubleValue
0.12

@<SCITEGIC>MOL_PROPERTY
Sum Probability
SciTegic.value.DoubleValue
95.15

@<SCITEGIC>MOL_PROPERTY
Delta G
SciTegic.value.DoubleValue
2.253

@<SCITEGIC>MOL_PROPERTY
G
SciTegic.value.DoubleValue
60.401

@<SCITEGIC>MOL_PROPERTY
E
SciTegic.value.DoubleValue
22.335

@<SCITEGIC>MOL_PROPERTY
-TS
SciTegic.value.DoubleValue
38.066

@<SCITEGIC>MOL_PROPERTY
U+W
SciTegic.value.DoubleValue
-1.810

@<SCITEGIC>MOL_PROPERTY
U
SciTegic.value.DoubleValue
50.557

@<SCITEGIC>MOL_PROPERTY
W
SciTegic.value.DoubleValue
-52.367

@<SCITEGIC>MOL_PROPERTY
W(PB)
SciTegic.value.DoubleValue
-54.823

@<SCITEGIC>MOL_PROPERTY
W(SA)
SciTegic.value.DoubleValue
2.456

@<SCITEGIC>MOL_PROPERTY
Valence
SciTegic.value.DoubleValue
4.083

@<SCITEGIC>MOL_PROPERTY
Coulomb
SciTegic.value.DoubleValue
45.658

@<SCITEGIC>MOL_PROPERTY
VdW
SciTegic.value.DoubleValue
0.816

@<SCITEGIC>MOL_PROPERTY
VdW6
SciTegic.value.DoubleValue
-10.085

@<SCITEGIC>MOL_PROPERTY
VdW12
SciTegic.value.DoubleValue
10.901

@<SCITEGIC>MOL_PROPERTY
Bond
SciTegic.value.DoubleValue
0.289

@<SCITEGIC>MOL_PROPERTY
Angle
SciTegic.value.DoubleValue
1.409

@<SCITEGIC>MOL_PROPERTY
Pdih
SciTegic.value.DoubleValue
2.386

@<SCITEGIC>MOL_PROPERTY
Idih
SciTegic.value.DoubleValue
0.000

@<SCITEGIC>MOL_PROPERTY
Tether
SciTegic.value.DoubleValue
0.000

@<TRIPOS>MOLECULE
guest-3_vm2.mol2 : vm2 ligand conformer 154
          29          28           1
SMALL
USER_CHARGES
 
@<TRIPOS>ATOM
       1    C1      21.368976   19.040374   21.122670 C.3        1 MOL1        -0.2427
       2    H1      21.674485   18.128967   21.652749 H          1 MOL1         0.0958
       3    H2      21.994324   19.132629   20.225270 H          1 MOL1         0.0958
       4    H3      21.586241   19.901982   21.766012 H          1 MOL1         0.0958
       5    C2      19.873649   18.983483   20.736173 C.3        1 MOL1        -0.1412
       6    H4      19.728120   18.180356   20.000296 H          1 MOL1         0.0947
       7    H5      19.585616   19.917269   20.233426 H          1 MOL1         0.0947
       8    C3      18.938580   18.727587   21.942304 C.3        1 MOL1        -0.1437
       9    H6      17.914117   18.592669   21.569123 H          1 MOL1         0.0947
      10    H7      19.222104   17.781228   22.421203 H          1 MOL1         0.0947
      11    C4      18.950410   19.875973   22.982247 C.3        1 MOL1        -0.1437
      12    H8      18.760761   20.827122   22.466279 H          1 MOL1         0.0947
      13    H9      19.946475   19.968956   23.432546 H          1 MOL1         0.0947
      14    C5      17.889281   19.705018   24.099438 C.3        1 MOL1        -0.1437
      15    H10     17.930195   20.579084   24.763250 H          1 MOL1         0.0947
      16    H11     16.888741   19.725953   23.646025 H          1 MOL1         0.0947
      17    C6      18.023783   18.410228   24.945595 C.3        1 MOL1        -0.1437
      18    H12     17.806060   17.536285   24.317353 H          1 MOL1         0.0947
      19    H13     17.246316   18.417308   25.721985 H          1 MOL1         0.0947
      20    C7      19.403702   18.216312   25.621574 C.3        1 MOL1        -0.1477
      21    H14     19.384231   17.287851   26.207485 H          1 MOL1         0.0947
      22    H15     20.180467   18.082445   24.857835 H          1 MOL1         0.0947
      23    C8      19.781397   19.388098   26.546269 C.3        1 MOL1         0.0145
      24    H16     19.015113   19.510854   27.316353 H          1 MOL1         0.0921
      25    H17     19.837992   20.312531   25.965637 H          1 MOL1         0.0921
      26    N1      21.114221   19.190927   27.238731 N.4        1 MOL1        -0.5969
      27    H18     21.118440   18.349821   27.825190 H          1 MOL1         0.3603
      28    H19     21.346810   19.981979   27.849236 H          1 MOL1         0.3603
      29    H20     21.882989   19.095020   26.567129 H          1 MOL1         0.3603
@<TRIPOS>BOND
    1     1     2    1
    2     1     3    1
    3     1     4    1
    4     1     5    1
    5     5     6    1
    6     5     7    1
    7     5     8    1
    8     8     9    1
    9     8    10    1
   10     8    11    1
   11    11    12    1
   12    11    13    1
   13    11    14    1
   14    14    15    1
   15    14    16    1
   16    14    17    1
   17    17    18    1
   18    17    19    1
   19    17    20    1
   20    20    21    1
   21    20    22    1
   22    20    23    1
   23    23    24    1
   24    23    25    1
   25    23    26    1
   26    26    27    1
   27    26    28    1
   28    26    29    1
@<TRIPOS>SUBSTRUCTURE
       1 MOL1            1 RESIDUE      1      MOL     
@<SCITEGIC>MOL_PROPERTY
VM2 Rank
SciTegic.value.IntegerValue
154

@<SCITEGIC>MOL_PROPERTY
Conf_Id
SciTegic.value.IntegerValue
621

@<SCITEGIC>MOL_PROPERTY
Probability
SciTegic.value.DoubleValue
0.12

@<SCITEGIC>MOL_PROPERTY
Sum Probability
SciTegic.value.DoubleValue
95.27

@<SCITEGIC>MOL_PROPERTY
Delta G
SciTegic.value.DoubleValue
2.276

@<SCITEGIC>MOL_PROPERTY
G
SciTegic.value.DoubleValue
60.424

@<SCITEGIC>MOL_PROPERTY
E
SciTegic.value.DoubleValue
22.415

@<SCITEGIC>MOL_PROPERTY
-TS
SciTegic.value.DoubleValue
38.010

@<SCITEGIC>MOL_PROPERTY
U+W
SciTegic.value.DoubleValue
-1.730

@<SCITEGIC>MOL_PROPERTY
U
SciTegic.value.DoubleValue
50.712

@<SCITEGIC>MOL_PROPERTY
W
SciTegic.value.DoubleValue
-52.442

@<SCITEGIC>MOL_PROPERTY
W(PB)
SciTegic.value.DoubleValue
-54.895

@<SCITEGIC>MOL_PROPERTY
W(SA)
SciTegic.value.DoubleValue
2.453

@<SCITEGIC>MOL_PROPERTY
Valence
SciTegic.value.DoubleValue
4.258

@<SCITEGIC>MOL_PROPERTY
Coulomb
SciTegic.value.DoubleValue
45.781

@<SCITEGIC>MOL_PROPERTY
VdW
SciTegic.value.DoubleValue
0.673

@<SCITEGIC>MOL_PROPERTY
VdW6
SciTegic.value.DoubleValue
-10.326

@<SCITEGIC>MOL_PROPERTY
VdW12
SciTegic.value.DoubleValue
10.999

@<SCITEGIC>MOL_PROPERTY
Bond
SciTegic.value.DoubleValue
0.292

@<SCITEGIC>MOL_PROPERTY
Angle
SciTegic.value.DoubleValue
1.417

@<SCITEGIC>MOL_PROPERTY
Pdih
SciTegic.value.DoubleValue
2.549

@<SCITEGIC>MOL_PROPERTY
Idih
SciTegic.value.DoubleValue
0.000

@<SCITEGIC>MOL_PROPERTY
Tether
SciTegic.value.DoubleValue
0.000

@<TRIPOS>MOLECULE
guest-3_vm2.mol2 : vm2 ligand conformer 155
          29          28           1
SMALL
USER_CHARGES
 
@<TRIPOS>ATOM
       1    C1      20.101957   18.270185   19.828028 C.3        1 MOL1        -0.2427
       2    H1      19.673089   17.386286   19.338331 H          1 MOL1         0.0958
       3    H2      20.127601   19.084035   19.091687 H          1 MOL1         0.0958
       4    H3      21.135683   18.031242   20.110038 H          1 MOL1         0.0958
       5    C2      19.267821   18.666386   21.064554 C.3        1 MOL1        -0.1412
       6    H4      19.232603   17.815515   21.757887 H          1 MOL1         0.0947
       7    H5      18.232921   18.870630   20.756562 H          1 MOL1         0.0947
       8    C3      19.855772   19.908198   21.774863 C.3        1 MOL1        -0.1437
       9    H6      20.875049   19.690968   22.120147 H          1 MOL1         0.0947
      10    H7      19.953910   20.723200   21.044582 H          1 MOL1         0.0947
      11    C4      18.990268   20.416240   22.957094 C.3        1 MOL1        -0.1437
      12    H8      18.019680   20.751867   22.566633 H          1 MOL1         0.0947
      13    H9      19.466517   21.309603   23.383871 H          1 MOL1         0.0947
      14    C5      18.739727   19.389700   24.092184 C.3        1 MOL1        -0.1437
      15    H10     18.104651   19.871558   24.846937 H          1 MOL1         0.0947
      16    H11     18.159186   18.540488   23.708481 H          1 MOL1         0.0947
      17    C6      20.039847   18.876073   24.761032 C.3        1 MOL1        -0.1437
      18    H12     20.631897   19.726492   25.124302 H          1 MOL1         0.0947
      19    H13     20.661174   18.367633   24.012419 H          1 MOL1         0.0947
      20    C7      19.777167   17.881437   25.919693 C.3        1 MOL1        -0.1477
      21    H14     19.251805   17.000358   25.527867 H          1 MOL1         0.0947
      22    H15     20.737380   17.517151   26.308376 H          1 MOL1         0.0947
      23    C8      18.955110   18.470939   27.083769 C.3        1 MOL1         0.0145
      24    H16     18.801734   17.701869   27.845657 H          1 MOL1         0.0921
      25    H17     17.974379   18.789020   26.721208 H          1 MOL1         0.0921
      26    N1      19.616330   19.658841   27.753784 N.4        1 MOL1        -0.5969
      27    H18     20.533365   19.414432   28.141654 H          1 MOL1         0.3603
      28    H19     19.050249   20.024267   28.527361 H          1 MOL1         0.3603
      29    H20     19.761081   20.430054   27.094529 H          1 MOL1         0.3603
@<TRIPOS>BOND
    1     1     2    1
    2     1     3    1
    3     1     4    1
    4     1     5    1
    5     5     6    1
    6     5     7    1
    7     5     8    1
    8     8     9    1
    9     8    10    1
   10     8    11    1
   11    11    12    1
   12    11    13    1
   13    11    14    1
   14    14    15    1
   15    14    16    1
   16    14    17    1
   17    17    18    1
   18    17    19    1
   19    17    20    1
   20    20    21    1
   21    20    22    1
   22    20    23    1
   23    23    24    1
   24    23    25    1
   25    23    26    1
   26    26    27    1
   27    26    28    1
   28    26    29    1
@<TRIPOS>SUBSTRUCTURE
       1 MOL1            1 RESIDUE      1      MOL     
@<SCITEGIC>MOL_PROPERTY
VM2 Rank
SciTegic.value.IntegerValue
155

@<SCITEGIC>MOL_PROPERTY
Conf_Id
SciTegic.value.IntegerValue
2015

@<SCITEGIC>MOL_PROPERTY
Probability
SciTegic.value.DoubleValue
0.12

@<SCITEGIC>MOL_PROPERTY
Sum Probability
SciTegic.value.DoubleValue
95.39

@<SCITEGIC>MOL_PROPERTY
Delta G
SciTegic.value.DoubleValue
2.283

@<SCITEGIC>MOL_PROPERTY
G
SciTegic.value.DoubleValue
60.431

@<SCITEGIC>MOL_PROPERTY
E
SciTegic.value.DoubleValue
22.523

@<SCITEGIC>MOL_PROPERTY
-TS
SciTegic.value.DoubleValue
37.908

@<SCITEGIC>MOL_PROPERTY
U+W
SciTegic.value.DoubleValue
-1.622

@<SCITEGIC>MOL_PROPERTY
U
SciTegic.value.DoubleValue
50.350

@<SCITEGIC>MOL_PROPERTY
W
SciTegic.value.DoubleValue
-51.972

@<SCITEGIC>MOL_PROPERTY
W(PB)
SciTegic.value.DoubleValue
-54.437

@<SCITEGIC>MOL_PROPERTY
W(SA)
SciTegic.value.DoubleValue
2.465

@<SCITEGIC>MOL_PROPERTY
Valence
SciTegic.value.DoubleValue
4.001

@<SCITEGIC>MOL_PROPERTY
Coulomb
SciTegic.value.DoubleValue
45.464

@<SCITEGIC>MOL_PROPERTY
VdW
SciTegic.value.DoubleValue
0.885

@<SCITEGIC>MOL_PROPERTY
VdW6
SciTegic.value.DoubleValue
-9.930

@<SCITEGIC>MOL_PROPERTY
VdW12
SciTegic.value.DoubleValue
10.816

@<SCITEGIC>MOL_PROPERTY
Bond
SciTegic.value.DoubleValue
0.283

@<SCITEGIC>MOL_PROPERTY
Angle
SciTegic.value.DoubleValue
1.376

@<SCITEGIC>MOL_PROPERTY
Pdih
SciTegic.value.DoubleValue
2.342

@<SCITEGIC>MOL_PROPERTY
Idih
SciTegic.value.DoubleValue
0.000

@<SCITEGIC>MOL_PROPERTY
Tether
SciTegic.value.DoubleValue
0.000

@<TRIPOS>MOLECULE
guest-3_vm2.mol2 : vm2 ligand conformer 156
          29          28           1
SMALL
USER_CHARGES
 
@<TRIPOS>ATOM
       1    C1      20.382319   18.764183   19.563352 C.3        1 MOL1        -0.2427
       2    H1      21.432321   18.534145   19.786562 H          1 MOL1         0.0958
       3    H2      20.028246   18.037117   18.821028 H          1 MOL1         0.0958
       4    H3      20.340427   19.760913   19.105092 H          1 MOL1         0.0958
       5    C2      19.518169   18.703476   20.840701 C.3        1 MOL1        -0.1412
       6    H4      19.552553   17.683149   21.244489 H          1 MOL1         0.0947
       7    H5      18.470256   18.909126   20.581396 H          1 MOL1         0.0947
       8    C3      20.001943   19.717517   21.904200 C.3        1 MOL1        -0.1437
       9    H6      21.030987   19.477227   22.205067 H          1 MOL1         0.0947
      10    H7      20.039610   20.717326   21.450037 H          1 MOL1         0.0947
      11    C4      19.096232   19.784685   23.158499 C.3        1 MOL1        -0.1437
      12    H8      18.066712   20.021390   22.856788 H          1 MOL1         0.0947
      13    H9      19.438725   20.624421   23.776682 H          1 MOL1         0.0947
      14    C5      19.109369   18.484579   24.001946 C.3        1 MOL1        -0.1437
      15    H10     18.764241   17.644922   23.385386 H          1 MOL1         0.0947
      16    H11     20.140042   18.243641   24.293933 H          1 MOL1         0.0947
      17    C6      18.202954   18.553424   25.258451 C.3        1 MOL1        -0.1437
      18    H12     18.216555   17.575071   25.757342 H          1 MOL1         0.0947
      19    H13     17.162649   18.710190   24.941698 H          1 MOL1         0.0947
      20    C7      18.584249   19.652865   26.284521 C.3        1 MOL1        -0.1477
      21    H14     18.396122   20.643875   25.852426 H          1 MOL1         0.0947
      22    H15     17.921330   19.577019   27.156582 H          1 MOL1         0.0947
      23    C8      20.049772   19.585994   26.758467 C.3        1 MOL1         0.0145
      24    H16     20.245781   20.407787   27.452489 H          1 MOL1         0.0921
      25    H17     20.719721   19.696734   25.901827 H          1 MOL1         0.0921
      26    N1      20.398993   18.291278   27.464861 N.4        1 MOL1        -0.5969
      27    H18     19.821873   18.146667   28.299795 H          1 MOL1         0.3603
      28    H19     21.378353   18.275020   27.769703 H          1 MOL1         0.3603
      29    H20     20.258244   17.480081   26.854677 H          1 MOL1         0.3603
@<TRIPOS>BOND
    1     1     2    1
    2     1     3    1
    3     1     4    1
    4     1     5    1
    5     5     6    1
    6     5     7    1
    7     5     8    1
    8     8     9    1
    9     8    10    1
   10     8    11    1
   11    11    12    1
   12    11    13    1
   13    11    14    1
   14    14    15    1
   15    14    16    1
   16    14    17    1
   17    17    18    1
   18    17    19    1
   19    17    20    1
   20    20    21    1
   21    20    22    1
   22    20    23    1
   23    23    24    1
   24    23    25    1
   25    23    26    1
   26    26    27    1
   27    26    28    1
   28    26    29    1
@<TRIPOS>SUBSTRUCTURE
       1 MOL1            1 RESIDUE      1      MOL     
@<SCITEGIC>MOL_PROPERTY
VM2 Rank
SciTegic.value.IntegerValue
156

@<SCITEGIC>MOL_PROPERTY
Conf_Id
SciTegic.value.IntegerValue
1367

@<SCITEGIC>MOL_PROPERTY
Probability
SciTegic.value.DoubleValue
0.11

@<SCITEGIC>MOL_PROPERTY
Sum Probability
SciTegic.value.DoubleValue
95.50

@<SCITEGIC>MOL_PROPERTY
Delta G
SciTegic.value.DoubleValue
2.306

@<SCITEGIC>MOL_PROPERTY
G
SciTegic.value.DoubleValue
60.455

@<SCITEGIC>MOL_PROPERTY
E
SciTegic.value.DoubleValue
22.661

@<SCITEGIC>MOL_PROPERTY
-TS
SciTegic.value.DoubleValue
37.794

@<SCITEGIC>MOL_PROPERTY
U+W
SciTegic.value.DoubleValue
-1.484

@<SCITEGIC>MOL_PROPERTY
U
SciTegic.value.DoubleValue
50.507

@<SCITEGIC>MOL_PROPERTY
W
SciTegic.value.DoubleValue
-51.991

@<SCITEGIC>MOL_PROPERTY
W(PB)
SciTegic.value.DoubleValue
-54.449

@<SCITEGIC>MOL_PROPERTY
W(SA)
SciTegic.value.DoubleValue
2.458

@<SCITEGIC>MOL_PROPERTY
Valence
SciTegic.value.DoubleValue
4.059

@<SCITEGIC>MOL_PROPERTY
Coulomb
SciTegic.value.DoubleValue
45.540

@<SCITEGIC>MOL_PROPERTY
VdW
SciTegic.value.DoubleValue
0.908

@<SCITEGIC>MOL_PROPERTY
VdW6
SciTegic.value.DoubleValue
-9.838

@<SCITEGIC>MOL_PROPERTY
VdW12
SciTegic.value.DoubleValue
10.746

@<SCITEGIC>MOL_PROPERTY
Bond
SciTegic.value.DoubleValue
0.285

@<SCITEGIC>MOL_PROPERTY
Angle
SciTegic.value.DoubleValue
1.295

@<SCITEGIC>MOL_PROPERTY
Pdih
SciTegic.value.DoubleValue
2.479

@<SCITEGIC>MOL_PROPERTY
Idih
SciTegic.value.DoubleValue
0.000

@<SCITEGIC>MOL_PROPERTY
Tether
SciTegic.value.DoubleValue
0.000

@<TRIPOS>MOLECULE
guest-3_vm2.mol2 : vm2 ligand conformer 157
          29          28           1
SMALL
USER_CHARGES
 
@<TRIPOS>ATOM
       1    C1      20.242500   19.524050   19.651635 C.3        1 MOL1        -0.2427
       2    H1      20.891257   20.250602   20.156030 H          1 MOL1         0.0958
       3    H2      20.796665   18.582420   19.545552 H          1 MOL1         0.0958
       4    H3      20.038829   19.908828   18.643968 H          1 MOL1         0.0958
       5    C2      18.921477   19.307494   20.424268 C.3        1 MOL1        -0.1412
       6    H4      18.257707   18.676586   19.816697 H          1 MOL1         0.0947
       7    H5      18.403105   20.268555   20.548221 H          1 MOL1         0.0947
       8    C3      19.115701   18.635204   21.805046 C.3        1 MOL1        -0.1437
       9    H6      18.122807   18.400076   22.208603 H          1 MOL1         0.0947
      10    H7      19.633595   17.675012   21.675452 H          1 MOL1         0.0947
      11    C4      19.892461   19.516663   22.816154 C.3        1 MOL1        -0.1437
      12    H8      19.372628   20.475238   22.949541 H          1 MOL1         0.0947
      13    H9      20.881160   19.756346   22.404364 H          1 MOL1         0.0947
      14    C5      20.102156   18.843093   24.194931 C.3        1 MOL1        -0.1437
      15    H10     20.605827   17.876203   24.058675 H          1 MOL1         0.0947
      16    H11     20.791196   19.470014   24.775839 H          1 MOL1         0.0947
      17    C6      18.789714   18.642066   24.994736 C.3        1 MOL1        -0.1437
      18    H12     18.111100   17.988295   24.432388 H          1 MOL1         0.0947
      19    H13     18.269373   19.602975   25.102712 H          1 MOL1         0.0947
      20    C7      19.017869   18.006422   26.389419 C.3        1 MOL1        -0.1477
      21    H14     18.046803   17.840591   26.874540 H          1 MOL1         0.0947
      22    H15     19.470815   17.013866   26.264802 H          1 MOL1         0.0947
      23    C8      19.911036   18.843918   27.327185 C.3        1 MOL1         0.0145
      24    H16     20.900199   18.972083   26.880438 H          1 MOL1         0.0921
      25    H17     20.034029   18.316922   28.277248 H          1 MOL1         0.0921
      26    N1      19.351085   20.219091   27.631626 N.4        1 MOL1        -0.5969
      27    H18     19.240181   20.777403   26.779377 H          1 MOL1         0.3603
      28    H19     19.962403   20.748629   28.262745 H          1 MOL1         0.3603
      29    H20     18.431039   20.163886   28.080654 H          1 MOL1         0.3603
@<TRIPOS>BOND
    1     1     2    1
    2     1     3    1
    3     1     4    1
    4     1     5    1
    5     5     6    1
    6     5     7    1
    7     5     8    1
    8     8     9    1
    9     8    10    1
   10     8    11    1
   11    11    12    1
   12    11    13    1
   13    11    14    1
   14    14    15    1
   15    14    16    1
   16    14    17    1
   17    17    18    1
   18    17    19    1
   19    17    20    1
   20    20    21    1
   21    20    22    1
   22    20    23    1
   23    23    24    1
   24    23    25    1
   25    23    26    1
   26    26    27    1
   27    26    28    1
   28    26    29    1
@<TRIPOS>SUBSTRUCTURE
       1 MOL1            1 RESIDUE      1      MOL     
@<SCITEGIC>MOL_PROPERTY
VM2 Rank
SciTegic.value.IntegerValue
157

@<SCITEGIC>MOL_PROPERTY
Conf_Id
SciTegic.value.IntegerValue
647

@<SCITEGIC>MOL_PROPERTY
Probability
SciTegic.value.DoubleValue
0.11

@<SCITEGIC>MOL_PROPERTY
Sum Probability
SciTegic.value.DoubleValue
95.61

@<SCITEGIC>MOL_PROPERTY
Delta G
SciTegic.value.DoubleValue
2.309

@<SCITEGIC>MOL_PROPERTY
G
SciTegic.value.DoubleValue
60.457

@<SCITEGIC>MOL_PROPERTY
E
SciTegic.value.DoubleValue
22.872

@<SCITEGIC>MOL_PROPERTY
-TS
SciTegic.value.DoubleValue
37.585

@<SCITEGIC>MOL_PROPERTY
U+W
SciTegic.value.DoubleValue
-1.273

@<SCITEGIC>MOL_PROPERTY
U
SciTegic.value.DoubleValue
50.585

@<SCITEGIC>MOL_PROPERTY
W
SciTegic.value.DoubleValue
-51.858

@<SCITEGIC>MOL_PROPERTY
W(PB)
SciTegic.value.DoubleValue
-54.330

@<SCITEGIC>MOL_PROPERTY
W(SA)
SciTegic.value.DoubleValue
2.472

@<SCITEGIC>MOL_PROPERTY
Valence
SciTegic.value.DoubleValue
4.139

@<SCITEGIC>MOL_PROPERTY
Coulomb
SciTegic.value.DoubleValue
45.307

@<SCITEGIC>MOL_PROPERTY
VdW
SciTegic.value.DoubleValue
1.139

@<SCITEGIC>MOL_PROPERTY
VdW6
SciTegic.value.DoubleValue
-9.438

@<SCITEGIC>MOL_PROPERTY
VdW12
SciTegic.value.DoubleValue
10.577

@<SCITEGIC>MOL_PROPERTY
Bond
SciTegic.value.DoubleValue
0.283

@<SCITEGIC>MOL_PROPERTY
Angle
SciTegic.value.DoubleValue
1.231

@<SCITEGIC>MOL_PROPERTY
Pdih
SciTegic.value.DoubleValue
2.625

@<SCITEGIC>MOL_PROPERTY
Idih
SciTegic.value.DoubleValue
0.000

@<SCITEGIC>MOL_PROPERTY
Tether
SciTegic.value.DoubleValue
0.000

@<TRIPOS>MOLECULE
guest-3_vm2.mol2 : vm2 ligand conformer 158
          29          28           1
SMALL
USER_CHARGES
 
@<TRIPOS>ATOM
       1    C1      19.982873   18.550717   19.856680 C.3        1 MOL1        -0.2427
       2    H1      20.708884   17.796198   20.186259 H          1 MOL1         0.0958
       3    H2      18.976344   18.125154   19.953533 H          1 MOL1         0.0958
       4    H3      20.158876   18.743132   18.790419 H          1 MOL1         0.0958
       5    C2      20.127889   19.854988   20.672900 C.3        1 MOL1        -0.1412
       6    H4      19.374285   20.583404   20.342454 H          1 MOL1         0.0947
       7    H5      21.106617   20.303940   20.453208 H          1 MOL1         0.0947
       8    C3      20.011986   19.638093   22.200823 C.3        1 MOL1        -0.1437
       9    H6      20.788701   18.931899   22.522294 H          1 MOL1         0.0947
      10    H7      20.227076   20.589806   22.705741 H          1 MOL1         0.0947
      11    C4      18.615765   19.133034   22.644236 C.3        1 MOL1        -0.1437
      12    H8      18.434489   18.126705   22.244220 H          1 MOL1         0.0947
      13    H9      17.844786   19.783498   22.208889 H          1 MOL1         0.0947
      14    C5      18.429461   19.110836   24.180960 C.3        1 MOL1        -0.1437
      15    H10     18.580173   20.123632   24.577774 H          1 MOL1         0.0947
      16    H11     17.386593   18.844339   24.401421 H          1 MOL1         0.0947
      17    C6      19.368655   18.109535   24.899450 C.3        1 MOL1        -0.1437
      18    H12     20.415636   18.410327   24.767500 H          1 MOL1         0.0947
      19    H13     19.271346   17.122126   24.427569 H          1 MOL1         0.0947
      20    C7      19.059148   17.966685   26.410627 C.3        1 MOL1        -0.1477
      21    H14     18.042111   17.572093   26.536216 H          1 MOL1         0.0947
      22    H15     19.733561   17.220134   26.850649 H          1 MOL1         0.0947
      23    C8      19.179293   19.284905   27.201750 C.3        1 MOL1         0.0145
      24    H16     18.919957   19.105235   28.248616 H          1 MOL1         0.0921
      25    H17     18.479321   20.022154   26.800253 H          1 MOL1         0.0921
      26    N1      20.568931   19.889207   27.167574 N.4        1 MOL1        -0.5969
      27    H18     20.618981   20.760610   27.706655 H          1 MOL1         0.3603
      28    H19     20.860306   20.108722   26.209924 H          1 MOL1         0.3603
      29    H20     21.269805   19.252299   27.560390 H          1 MOL1         0.3603
@<TRIPOS>BOND
    1     1     2    1
    2     1     3    1
    3     1     4    1
    4     1     5    1
    5     5     6    1
    6     5     7    1
    7     5     8    1
    8     8     9    1
    9     8    10    1
   10     8    11    1
   11    11    12    1
   12    11    13    1
   13    11    14    1
   14    14    15    1
   15    14    16    1
   16    14    17    1
   17    17    18    1
   18    17    19    1
   19    17    20    1
   20    20    21    1
   21    20    22    1
   22    20    23    1
   23    23    24    1
   24    23    25    1
   25    23    26    1
   26    26    27    1
   27    26    28    1
   28    26    29    1
@<TRIPOS>SUBSTRUCTURE
       1 MOL1            1 RESIDUE      1      MOL     
@<SCITEGIC>MOL_PROPERTY
VM2 Rank
SciTegic.value.IntegerValue
158

@<SCITEGIC>MOL_PROPERTY
Conf_Id
SciTegic.value.IntegerValue
2005

@<SCITEGIC>MOL_PROPERTY
Probability
SciTegic.value.DoubleValue
0.11

@<SCITEGIC>MOL_PROPERTY
Sum Probability
SciTegic.value.DoubleValue
95.72

@<SCITEGIC>MOL_PROPERTY
Delta G
SciTegic.value.DoubleValue
2.311

@<SCITEGIC>MOL_PROPERTY
G
SciTegic.value.DoubleValue
60.459

@<SCITEGIC>MOL_PROPERTY
E
SciTegic.value.DoubleValue
22.739

@<SCITEGIC>MOL_PROPERTY
-TS
SciTegic.value.DoubleValue
37.720

@<SCITEGIC>MOL_PROPERTY
U+W
SciTegic.value.DoubleValue
-1.406

@<SCITEGIC>MOL_PROPERTY
U
SciTegic.value.DoubleValue
50.719

@<SCITEGIC>MOL_PROPERTY
W
SciTegic.value.DoubleValue
-52.125

@<SCITEGIC>MOL_PROPERTY
W(PB)
SciTegic.value.DoubleValue
-54.578

@<SCITEGIC>MOL_PROPERTY
W(SA)
SciTegic.value.DoubleValue
2.453

@<SCITEGIC>MOL_PROPERTY
Valence
SciTegic.value.DoubleValue
3.960

@<SCITEGIC>MOL_PROPERTY
Coulomb
SciTegic.value.DoubleValue
45.808

@<SCITEGIC>MOL_PROPERTY
VdW
SciTegic.value.DoubleValue
0.951

@<SCITEGIC>MOL_PROPERTY
VdW6
SciTegic.value.DoubleValue
-9.643

@<SCITEGIC>MOL_PROPERTY
VdW12
SciTegic.value.DoubleValue
10.594

@<SCITEGIC>MOL_PROPERTY
Bond
SciTegic.value.DoubleValue
0.266

@<SCITEGIC>MOL_PROPERTY
Angle
SciTegic.value.DoubleValue
1.045

@<SCITEGIC>MOL_PROPERTY
Pdih
SciTegic.value.DoubleValue
2.649

@<SCITEGIC>MOL_PROPERTY
Idih
SciTegic.value.DoubleValue
0.000

@<SCITEGIC>MOL_PROPERTY
Tether
SciTegic.value.DoubleValue
0.000

@<TRIPOS>MOLECULE
guest-3_vm2.mol2 : vm2 ligand conformer 159
          29          28           1
SMALL
USER_CHARGES
 
@<TRIPOS>ATOM
       1    C1      21.070092   18.805792   20.303587 C.3        1 MOL1        -0.2427
       2    H1      21.809511   18.312576   20.947948 H          1 MOL1         0.0958
       3    H2      20.665709   18.056187   19.610936 H          1 MOL1         0.0958
       4    H3      21.594030   19.565624   19.709328 H          1 MOL1         0.0958
       5    C2      19.946171   19.449828   21.142446 C.3        1 MOL1        -0.1412
       6    H4      19.238925   19.960553   20.474211 H          1 MOL1         0.0947
       7    H5      20.382626   20.219583   21.792681 H          1 MOL1         0.0947
       8    C3      19.194702   18.398035   21.991645 C.3        1 MOL1        -0.1437
       9    H6      18.822095   17.604983   21.328835 H          1 MOL1         0.0947
      10    H7      19.894435   17.909505   22.682418 H          1 MOL1         0.0947
      11    C4      17.992835   18.981765   22.778127 C.3        1 MOL1        -0.1437
      12    H8      17.481768   18.164835   23.304455 H          1 MOL1         0.0947
      13    H9      17.257547   19.373706   22.062052 H          1 MOL1         0.0947
      14    C5      18.345097   20.105500   23.790034 C.3        1 MOL1        -0.1437
      15    H10     18.678417   20.996087   23.240888 H          1 MOL1         0.0947
      16    H11     17.426251   20.408931   24.310326 H          1 MOL1         0.0947
      17    C6      19.419603   19.736449   24.845207 C.3        1 MOL1        -0.1437
      18    H12     19.595391   20.619469   25.473486 H          1 MOL1         0.0947
      19    H13     20.375558   19.523596   24.348596 H          1 MOL1         0.0947
      20    C7      19.017855   18.538994   25.742062 C.3        1 MOL1        -0.1477
      21    H14     18.057112   18.742348   26.233286 H          1 MOL1         0.0947
      22    H15     18.871869   17.644819   25.123340 H          1 MOL1         0.0947
      23    C8      20.081868   18.211843   26.807305 C.3        1 MOL1         0.0145
      24    H16     21.043979   18.026786   26.322059 H          1 MOL1         0.0921
      25    H17     19.790315   17.304873   27.343890 H          1 MOL1         0.0921
      26    N1      20.275778   19.309795   27.834587 N.4        1 MOL1        -0.5969
      27    H18     20.586704   20.184553   27.400725 H          1 MOL1         0.3603
      28    H19     20.979833   19.055005   28.535960 H          1 MOL1         0.3603
      29    H20     19.408036   19.514056   28.341100 H          1 MOL1         0.3603
@<TRIPOS>BOND
    1     1     2    1
    2     1     3    1
    3     1     4    1
    4     1     5    1
    5     5     6    1
    6     5     7    1
    7     5     8    1
    8     8     9    1
    9     8    10    1
   10     8    11    1
   11    11    12    1
   12    11    13    1
   13    11    14    1
   14    14    15    1
   15    14    16    1
   16    14    17    1
   17    17    18    1
   18    17    19    1
   19    17    20    1
   20    20    21    1
   21    20    22    1
   22    20    23    1
   23    23    24    1
   24    23    25    1
   25    23    26    1
   26    26    27    1
   27    26    28    1
   28    26    29    1
@<TRIPOS>SUBSTRUCTURE
       1 MOL1            1 RESIDUE      1      MOL     
@<SCITEGIC>MOL_PROPERTY
VM2 Rank
SciTegic.value.IntegerValue
159

@<SCITEGIC>MOL_PROPERTY
Conf_Id
SciTegic.value.IntegerValue
1273

@<SCITEGIC>MOL_PROPERTY
Probability
SciTegic.value.DoubleValue
0.11

@<SCITEGIC>MOL_PROPERTY
Sum Probability
SciTegic.value.DoubleValue
95.83

@<SCITEGIC>MOL_PROPERTY
Delta G
SciTegic.value.DoubleValue
2.318

@<SCITEGIC>MOL_PROPERTY
G
SciTegic.value.DoubleValue
60.466

@<SCITEGIC>MOL_PROPERTY
E
SciTegic.value.DoubleValue
22.390

@<SCITEGIC>MOL_PROPERTY
-TS
SciTegic.value.DoubleValue
38.076

@<SCITEGIC>MOL_PROPERTY
U+W
SciTegic.value.DoubleValue
-1.754

@<SCITEGIC>MOL_PROPERTY
U
SciTegic.value.DoubleValue
50.241

@<SCITEGIC>MOL_PROPERTY
W
SciTegic.value.DoubleValue
-51.996

@<SCITEGIC>MOL_PROPERTY
W(PB)
SciTegic.value.DoubleValue
-54.449

@<SCITEGIC>MOL_PROPERTY
W(SA)
SciTegic.value.DoubleValue
2.453

@<SCITEGIC>MOL_PROPERTY
Valence
SciTegic.value.DoubleValue
4.143

@<SCITEGIC>MOL_PROPERTY
Coulomb
SciTegic.value.DoubleValue
45.288

@<SCITEGIC>MOL_PROPERTY
VdW
SciTegic.value.DoubleValue
0.811

@<SCITEGIC>MOL_PROPERTY
VdW6
SciTegic.value.DoubleValue
-10.141

@<SCITEGIC>MOL_PROPERTY
VdW12
SciTegic.value.DoubleValue
10.952

@<SCITEGIC>MOL_PROPERTY
Bond
SciTegic.value.DoubleValue
0.297

@<SCITEGIC>MOL_PROPERTY
Angle
SciTegic.value.DoubleValue
1.473

@<SCITEGIC>MOL_PROPERTY
Pdih
SciTegic.value.DoubleValue
2.372

@<SCITEGIC>MOL_PROPERTY
Idih
SciTegic.value.DoubleValue
0.000

@<SCITEGIC>MOL_PROPERTY
Tether
SciTegic.value.DoubleValue
0.000

@<TRIPOS>MOLECULE
guest-3_vm2.mol2 : vm2 ligand conformer 160
          29          28           1
SMALL
USER_CHARGES
 
@<TRIPOS>ATOM
       1    C1      21.078400   19.284696   20.815670 C.3        1 MOL1        -0.2427
       2    H1      20.775458   18.966202   19.809831 H          1 MOL1         0.0958
       3    H2      21.978891   19.904259   20.715390 H          1 MOL1         0.0958
       4    H3      21.353326   18.391739   21.390686 H          1 MOL1         0.0958
       5    C2      19.949013   20.078967   21.509543 C.3        1 MOL1        -0.1412
       6    H4      19.784103   21.014847   20.957765 H          1 MOL1         0.0947
       7    H5      20.269661   20.376037   22.516988 H          1 MOL1         0.0947
       8    C3      18.608380   19.304744   21.580842 C.3        1 MOL1        -0.1437
       9    H6      17.846373   19.952521   22.034038 H          1 MOL1         0.0947
      10    H7      18.257601   19.109571   20.558180 H          1 MOL1         0.0947
      11    C4      18.663654   17.957287   22.350072 C.3        1 MOL1        -0.1437
      12    H8      19.291308   17.248105   21.794218 H          1 MOL1         0.0947
      13    H9      17.657532   17.516154   22.357864 H          1 MOL1         0.0947
      14    C5      19.182354   18.050091   23.807968 C.3        1 MOL1        -0.1437
      15    H10     19.191820   17.038607   24.236723 H          1 MOL1         0.0947
      16    H11     20.226506   18.387761   23.805789 H          1 MOL1         0.0947
      17    C6      18.322397   18.971689   24.708875 C.3        1 MOL1        -0.1437
      18    H12     17.269921   18.664108   24.639834 H          1 MOL1         0.0947
      19    H13     18.369972   20.006654   24.345139 H          1 MOL1         0.0947
      20    C7      18.754721   18.938232   26.193282 C.3        1 MOL1        -0.1477
      21    H14     18.053954   19.544471   26.782604 H          1 MOL1         0.0947
      22    H15     18.681861   17.911638   26.576361 H          1 MOL1         0.0947
      23    C8      20.184039   19.470721   26.406216 C.3        1 MOL1         0.0145
      24    H16     20.255944   20.493555   26.026752 H          1 MOL1         0.0921
      25    H17     20.896337   18.848683   25.858135 H          1 MOL1         0.0921
      26    N1      20.601042   19.481573   27.862531 N.4        1 MOL1        -0.5969
      27    H18     19.986096   20.073068   28.431249 H          1 MOL1         0.3603
      28    H19     21.555072   19.839212   27.983141 H          1 MOL1         0.3603
      29    H20     20.579900   18.541961   28.272583 H          1 MOL1         0.3603
@<TRIPOS>BOND
    1     1     2    1
    2     1     3    1
    3     1     4    1
    4     1     5    1
    5     5     6    1
    6     5     7    1
    7     5     8    1
    8     8     9    1
    9     8    10    1
   10     8    11    1
   11    11    12    1
   12    11    13    1
   13    11    14    1
   14    14    15    1
   15    14    16    1
   16    14    17    1
   17    17    18    1
   18    17    19    1
   19    17    20    1
   20    20    21    1
   21    20    22    1
   22    20    23    1
   23    23    24    1
   24    23    25    1
   25    23    26    1
   26    26    27    1
   27    26    28    1
   28    26    29    1
@<TRIPOS>SUBSTRUCTURE
       1 MOL1            1 RESIDUE      1      MOL     
@<SCITEGIC>MOL_PROPERTY
VM2 Rank
SciTegic.value.IntegerValue
160

@<SCITEGIC>MOL_PROPERTY
Conf_Id
SciTegic.value.IntegerValue
987

@<SCITEGIC>MOL_PROPERTY
Probability
SciTegic.value.DoubleValue
0.11

@<SCITEGIC>MOL_PROPERTY
Sum Probability
SciTegic.value.DoubleValue
95.94

@<SCITEGIC>MOL_PROPERTY
Delta G
SciTegic.value.DoubleValue
2.326

@<SCITEGIC>MOL_PROPERTY
G
SciTegic.value.DoubleValue
60.474

@<SCITEGIC>MOL_PROPERTY
E
SciTegic.value.DoubleValue
22.407

@<SCITEGIC>MOL_PROPERTY
-TS
SciTegic.value.DoubleValue
38.067

@<SCITEGIC>MOL_PROPERTY
U+W
SciTegic.value.DoubleValue
-1.737

@<SCITEGIC>MOL_PROPERTY
U
SciTegic.value.DoubleValue
50.366

@<SCITEGIC>MOL_PROPERTY
W
SciTegic.value.DoubleValue
-52.103

@<SCITEGIC>MOL_PROPERTY
W(PB)
SciTegic.value.DoubleValue
-54.540

@<SCITEGIC>MOL_PROPERTY
W(SA)
SciTegic.value.DoubleValue
2.437

@<SCITEGIC>MOL_PROPERTY
Valence
SciTegic.value.DoubleValue
4.264

@<SCITEGIC>MOL_PROPERTY
Coulomb
SciTegic.value.DoubleValue
45.392

@<SCITEGIC>MOL_PROPERTY
VdW
SciTegic.value.DoubleValue
0.710

@<SCITEGIC>MOL_PROPERTY
VdW6
SciTegic.value.DoubleValue
-10.226

@<SCITEGIC>MOL_PROPERTY
VdW12
SciTegic.value.DoubleValue
10.935

@<SCITEGIC>MOL_PROPERTY
Bond
SciTegic.value.DoubleValue
0.291

@<SCITEGIC>MOL_PROPERTY
Angle
SciTegic.value.DoubleValue
1.460

@<SCITEGIC>MOL_PROPERTY
Pdih
SciTegic.value.DoubleValue
2.514

@<SCITEGIC>MOL_PROPERTY
Idih
SciTegic.value.DoubleValue
0.000

@<SCITEGIC>MOL_PROPERTY
Tether
SciTegic.value.DoubleValue
0.000

@<TRIPOS>MOLECULE
guest-3_vm2.mol2 : vm2 ligand conformer 161
          29          28           1
SMALL
USER_CHARGES
 
@<TRIPOS>ATOM
       1    C1      20.262867   17.922414   20.347430 C.3        1 MOL1        -0.2427
       2    H1      21.269514   18.289828   20.109504 H          1 MOL1         0.0958
       3    H2      20.319211   17.339485   21.275208 H          1 MOL1         0.0958
       4    H3      19.956024   17.238551   19.545551 H          1 MOL1         0.0958
       5    C2      19.260771   19.091849   20.474617 C.3        1 MOL1        -0.1412
       6    H4      18.267270   18.702414   20.733592 H          1 MOL1         0.0947
       7    H5      19.147982   19.569101   19.491188 H          1 MOL1         0.0947
       8    C3      19.698279   20.170876   21.497938 C.3        1 MOL1        -0.1437
       9    H6      20.627682   20.637233   21.143227 H          1 MOL1         0.0947
      10    H7      18.946469   20.971943   21.510716 H          1 MOL1         0.0947
      11    C4      19.920281   19.665217   22.947140 C.3        1 MOL1        -0.1437
      12    H8      20.258245   20.517217   23.550490 H          1 MOL1         0.0947
      13    H9      20.740366   18.935551   22.967487 H          1 MOL1         0.0947
      14    C5      18.652056   19.047594   23.589021 C.3        1 MOL1        -0.1437
      15    H10     17.832675   19.779179   23.570820 H          1 MOL1         0.0947
      16    H11     18.318066   18.193160   22.986419 H          1 MOL1         0.0947
      17    C6      18.873248   18.550467   25.038727 C.3        1 MOL1        -0.1437
      18    H12     19.690061   17.816461   25.049417 H          1 MOL1         0.0947
      19    H13     17.970600   18.014239   25.363135 H          1 MOL1         0.0947
      20    C7      19.167772   19.689653   26.046416 C.3        1 MOL1        -0.1477
      21    H14     20.124939   20.172426   25.812993 H          1 MOL1         0.0947
      22    H15     18.393776   20.463485   25.957779 H          1 MOL1         0.0947
      23    C8      19.197650   19.194418   27.504983 C.3        1 MOL1         0.0145
      24    H16     18.246693   18.713877   27.750204 H          1 MOL1         0.0921
      25    H17     19.332106   20.047407   28.175696 H          1 MOL1         0.0921
      26    N1      20.311076   18.205512   27.788729 N.4        1 MOL1        -0.5969
      27    H18     20.310557   17.902395   28.768874 H          1 MOL1         0.3603
      28    H19     21.234816   18.608187   27.599610 H          1 MOL1         0.3603
      29    H20     20.224120   17.362086   27.213118 H          1 MOL1         0.3603
@<TRIPOS>BOND
    1     1     2    1
    2     1     3    1
    3     1     4    1
    4     1     5    1
    5     5     6    1
    6     5     7    1
    7     5     8    1
    8     8     9    1
    9     8    10    1
   10     8    11    1
   11    11    12    1
   12    11    13    1
   13    11    14    1
   14    14    15    1
   15    14    16    1
   16    14    17    1
   17    17    18    1
   18    17    19    1
   19    17    20    1
   20    20    21    1
   21    20    22    1
   22    20    23    1
   23    23    24    1
   24    23    25    1
   25    23    26    1
   26    26    27    1
   27    26    28    1
   28    26    29    1
@<TRIPOS>SUBSTRUCTURE
       1 MOL1            1 RESIDUE      1      MOL     
@<SCITEGIC>MOL_PROPERTY
VM2 Rank
SciTegic.value.IntegerValue
161

@<SCITEGIC>MOL_PROPERTY
Conf_Id
SciTegic.value.IntegerValue
2576

@<SCITEGIC>MOL_PROPERTY
Probability
SciTegic.value.DoubleValue
0.11

@<SCITEGIC>MOL_PROPERTY
Sum Probability
SciTegic.value.DoubleValue
96.05

@<SCITEGIC>MOL_PROPERTY
Delta G
SciTegic.value.DoubleValue
2.342

@<SCITEGIC>MOL_PROPERTY
G
SciTegic.value.DoubleValue
60.490

@<SCITEGIC>MOL_PROPERTY
E
SciTegic.value.DoubleValue
22.701

@<SCITEGIC>MOL_PROPERTY
-TS
SciTegic.value.DoubleValue
37.789

@<SCITEGIC>MOL_PROPERTY
U+W
SciTegic.value.DoubleValue
-1.443

@<SCITEGIC>MOL_PROPERTY
U
SciTegic.value.DoubleValue
50.446

@<SCITEGIC>MOL_PROPERTY
W
SciTegic.value.DoubleValue
-51.889

@<SCITEGIC>MOL_PROPERTY
W(PB)
SciTegic.value.DoubleValue
-54.352

@<SCITEGIC>MOL_PROPERTY
W(SA)
SciTegic.value.DoubleValue
2.463

@<SCITEGIC>MOL_PROPERTY
Valence
SciTegic.value.DoubleValue
4.250

@<SCITEGIC>MOL_PROPERTY
Coulomb
SciTegic.value.DoubleValue
45.120

@<SCITEGIC>MOL_PROPERTY
VdW
SciTegic.value.DoubleValue
1.076

@<SCITEGIC>MOL_PROPERTY
VdW6
SciTegic.value.DoubleValue
-9.657

@<SCITEGIC>MOL_PROPERTY
VdW12
SciTegic.value.DoubleValue
10.734

@<SCITEGIC>MOL_PROPERTY
Bond
SciTegic.value.DoubleValue
0.293

@<SCITEGIC>MOL_PROPERTY
Angle
SciTegic.value.DoubleValue
1.397

@<SCITEGIC>MOL_PROPERTY
Pdih
SciTegic.value.DoubleValue
2.559

@<SCITEGIC>MOL_PROPERTY
Idih
SciTegic.value.DoubleValue
0.000

@<SCITEGIC>MOL_PROPERTY
Tether
SciTegic.value.DoubleValue
0.000

@<TRIPOS>MOLECULE
guest-3_vm2.mol2 : vm2 ligand conformer 162
          29          28           1
SMALL
USER_CHARGES
 
@<TRIPOS>ATOM
       1    C1      19.388159   18.934037   19.648009 C.3        1 MOL1        -0.2427
       2    H1      20.250225   19.570026   19.408483 H          1 MOL1         0.0958
       3    H2      19.752264   17.916318   19.834695 H          1 MOL1         0.0958
       4    H3      18.743069   18.895114   18.760730 H          1 MOL1         0.0958
       5    C2      18.606778   19.490458   20.859896 C.3        1 MOL1        -0.1412
       6    H4      17.771125   18.818973   21.101710 H          1 MOL1         0.0947
       7    H5      18.156248   20.452091   20.576993 H          1 MOL1         0.0947
       8    C3      19.485547   19.706231   22.115721 C.3        1 MOL1        -0.1437
       9    H6      20.318316   20.379379   21.870193 H          1 MOL1         0.0947
      10    H7      18.877958   20.225012   22.868262 H          1 MOL1         0.0947
      11    C4      20.037345   18.388460   22.716337 C.3        1 MOL1        -0.1437
      12    H8      20.637729   17.866636   21.960252 H          1 MOL1         0.0947
      13    H9      19.206228   17.713538   22.958828 H          1 MOL1         0.0947
      14    C5      20.931629   18.601233   23.965615 C.3        1 MOL1        -0.1437
      15    H10     21.306039   17.623728   24.299485 H          1 MOL1         0.0947
      16    H11     21.819813   19.177349   23.671682 H          1 MOL1         0.0947
      17    C6      20.252869   19.312520   25.165097 C.3        1 MOL1        -0.1437
      18    H12     19.987611   20.342109   24.891081 H          1 MOL1         0.0947
      19    H13     20.994128   19.397824   25.970499 H          1 MOL1         0.0947
      20    C7      18.999597   18.572817   25.696176 C.3        1 MOL1        -0.1477
      21    H14     18.236574   18.524860   24.909229 H          1 MOL1         0.0947
      22    H15     19.254496   17.535926   25.952271 H          1 MOL1         0.0947
      23    C8      18.374661   19.267294   26.921406 C.3        1 MOL1         0.0145
      24    H16     17.443988   18.759952   27.189688 H          1 MOL1         0.0921
      25    H17     18.138234   20.305973   26.675195 H          1 MOL1         0.0921
      26    N1      19.267416   19.264950   28.146743 N.4        1 MOL1        -0.5969
      27    H18     19.506738   18.312377   28.441013 H          1 MOL1         0.3603
      28    H19     18.816728   19.721982   28.947089 H          1 MOL1         0.3603
      29    H20     20.148335   19.759636   27.975282 H          1 MOL1         0.3603
@<TRIPOS>BOND
    1     1     2    1
    2     1     3    1
    3     1     4    1
    4     1     5    1
    5     5     6    1
    6     5     7    1
    7     5     8    1
    8     8     9    1
    9     8    10    1
   10     8    11    1
   11    11    12    1
   12    11    13    1
   13    11    14    1
   14    14    15    1
   15    14    16    1
   16    14    17    1
   17    17    18    1
   18    17    19    1
   19    17    20    1
   20    20    21    1
   21    20    22    1
   22    20    23    1
   23    23    24    1
   24    23    25    1
   25    23    26    1
   26    26    27    1
   27    26    28    1
   28    26    29    1
@<TRIPOS>SUBSTRUCTURE
       1 MOL1            1 RESIDUE      1      MOL     
@<SCITEGIC>MOL_PROPERTY
VM2 Rank
SciTegic.value.IntegerValue
162

@<SCITEGIC>MOL_PROPERTY
Conf_Id
SciTegic.value.IntegerValue
671

@<SCITEGIC>MOL_PROPERTY
Probability
SciTegic.value.DoubleValue
0.11

@<SCITEGIC>MOL_PROPERTY
Sum Probability
SciTegic.value.DoubleValue
96.15

@<SCITEGIC>MOL_PROPERTY
Delta G
SciTegic.value.DoubleValue
2.342

@<SCITEGIC>MOL_PROPERTY
G
SciTegic.value.DoubleValue
60.490

@<SCITEGIC>MOL_PROPERTY
E
SciTegic.value.DoubleValue
22.684

@<SCITEGIC>MOL_PROPERTY
-TS
SciTegic.value.DoubleValue
37.806

@<SCITEGIC>MOL_PROPERTY
U+W
SciTegic.value.DoubleValue
-1.460

@<SCITEGIC>MOL_PROPERTY
U
SciTegic.value.DoubleValue
50.427

@<SCITEGIC>MOL_PROPERTY
W
SciTegic.value.DoubleValue
-51.887

@<SCITEGIC>MOL_PROPERTY
W(PB)
SciTegic.value.DoubleValue
-54.335

@<SCITEGIC>MOL_PROPERTY
W(SA)
SciTegic.value.DoubleValue
2.448

@<SCITEGIC>MOL_PROPERTY
Valence
SciTegic.value.DoubleValue
4.273

@<SCITEGIC>MOL_PROPERTY
Coulomb
SciTegic.value.DoubleValue
45.070

@<SCITEGIC>MOL_PROPERTY
VdW
SciTegic.value.DoubleValue
1.084

@<SCITEGIC>MOL_PROPERTY
VdW6
SciTegic.value.DoubleValue
-9.708

@<SCITEGIC>MOL_PROPERTY
VdW12
SciTegic.value.DoubleValue
10.792

@<SCITEGIC>MOL_PROPERTY
Bond
SciTegic.value.DoubleValue
0.299

@<SCITEGIC>MOL_PROPERTY
Angle
SciTegic.value.DoubleValue
1.475

@<SCITEGIC>MOL_PROPERTY
Pdih
SciTegic.value.DoubleValue
2.499

@<SCITEGIC>MOL_PROPERTY
Idih
SciTegic.value.DoubleValue
0.000

@<SCITEGIC>MOL_PROPERTY
Tether
SciTegic.value.DoubleValue
0.000

@<TRIPOS>MOLECULE
guest-3_vm2.mol2 : vm2 ligand conformer 163
          29          28           1
SMALL
USER_CHARGES
 
@<TRIPOS>ATOM
       1    C1      20.844505   17.903788   20.608449 C.3        1 MOL1        -0.2427
       2    H1      21.412666   18.635834   20.019806 H          1 MOL1         0.0958
       3    H2      21.516428   17.477223   21.364590 H          1 MOL1         0.0958
       4    H3      20.538376   17.093741   19.933832 H          1 MOL1         0.0958
       5    C2      19.612369   18.558242   21.268130 C.3        1 MOL1        -0.1412
       6    H4      19.049216   17.789401   21.813577 H          1 MOL1         0.0947
       7    H5      18.944688   18.948772   20.487580 H          1 MOL1         0.0947
       8    C3      20.019246   19.701936   22.226493 C.3        1 MOL1        -0.1437
       9    H6      20.661349   19.306976   23.024581 H          1 MOL1         0.0947
      10    H7      20.634339   20.426689   21.675610 H          1 MOL1         0.0947
      11    C4      18.810837   20.454459   22.840809 C.3        1 MOL1        -0.1437
      12    H8      18.240030   20.929438   22.031123 H          1 MOL1         0.0947
      13    H9      19.184594   21.280738   23.459931 H          1 MOL1         0.0947
      14    C5      17.842406   19.579531   23.681772 C.3        1 MOL1        -0.1437
      15    H10     17.053846   20.225123   24.092170 H          1 MOL1         0.0947
      16    H11     17.326250   18.870412   23.021083 H          1 MOL1         0.0947
      17    C6      18.502723   18.793937   24.843668 C.3        1 MOL1        -0.1437
      18    H12     19.217323   18.066512   24.438152 H          1 MOL1         0.0947
      19    H13     17.725160   18.205603   25.350213 H          1 MOL1         0.0947
      20    C7      19.200194   19.705570   25.883494 C.3        1 MOL1        -0.1477
      21    H14     20.039535   20.241197   25.422188 H          1 MOL1         0.0947
      22    H15     18.491547   20.469225   26.230366 H          1 MOL1         0.0947
      23    C8      19.712760   18.922353   27.107016 C.3        1 MOL1         0.0145
      24    H16     18.883436   18.383467   27.573039 H          1 MOL1         0.0921
      25    H17     20.120820   19.622132   27.841387 H          1 MOL1         0.0921
      26    N1      20.798960   17.918185   26.775168 N.4        1 MOL1        -0.5969
      27    H18     20.469459   17.209180   26.112699 H          1 MOL1         0.3603
      28    H19     21.125030   17.420657   27.611060 H          1 MOL1         0.3603
      29    H20     21.618519   18.369246   26.355723 H          1 MOL1         0.3603
@<TRIPOS>BOND
    1     1     2    1
    2     1     3    1
    3     1     4    1
    4     1     5    1
    5     5     6    1
    6     5     7    1
    7     5     8    1
    8     8     9    1
    9     8    10    1
   10     8    11    1
   11    11    12    1
   12    11    13    1
   13    11    14    1
   14    14    15    1
   15    14    16    1
   16    14    17    1
   17    17    18    1
   18    17    19    1
   19    17    20    1
   20    20    21    1
   21    20    22    1
   22    20    23    1
   23    23    24    1
   24    23    25    1
   25    23    26    1
   26    26    27    1
   27    26    28    1
   28    26    29    1
@<TRIPOS>SUBSTRUCTURE
       1 MOL1            1 RESIDUE      1      MOL     
@<SCITEGIC>MOL_PROPERTY
VM2 Rank
SciTegic.value.IntegerValue
163

@<SCITEGIC>MOL_PROPERTY
Conf_Id
SciTegic.value.IntegerValue
1054

@<SCITEGIC>MOL_PROPERTY
Probability
SciTegic.value.DoubleValue
0.10

@<SCITEGIC>MOL_PROPERTY
Sum Probability
SciTegic.value.DoubleValue
96.25

@<SCITEGIC>MOL_PROPERTY
Delta G
SciTegic.value.DoubleValue
2.356

@<SCITEGIC>MOL_PROPERTY
G
SciTegic.value.DoubleValue
60.504

@<SCITEGIC>MOL_PROPERTY
E
SciTegic.value.DoubleValue
22.414

@<SCITEGIC>MOL_PROPERTY
-TS
SciTegic.value.DoubleValue
38.090

@<SCITEGIC>MOL_PROPERTY
U+W
SciTegic.value.DoubleValue
-1.731

@<SCITEGIC>MOL_PROPERTY
U
SciTegic.value.DoubleValue
50.851

@<SCITEGIC>MOL_PROPERTY
W
SciTegic.value.DoubleValue
-52.582

@<SCITEGIC>MOL_PROPERTY
W(PB)
SciTegic.value.DoubleValue
-54.998

@<SCITEGIC>MOL_PROPERTY
W(SA)
SciTegic.value.DoubleValue
2.416

@<SCITEGIC>MOL_PROPERTY
Valence
SciTegic.value.DoubleValue
4.102

@<SCITEGIC>MOL_PROPERTY
Coulomb
SciTegic.value.DoubleValue
46.056

@<SCITEGIC>MOL_PROPERTY
VdW
SciTegic.value.DoubleValue
0.692

@<SCITEGIC>MOL_PROPERTY
VdW6
SciTegic.value.DoubleValue
-10.268

@<SCITEGIC>MOL_PROPERTY
VdW12
SciTegic.value.DoubleValue
10.960

@<SCITEGIC>MOL_PROPERTY
Bond
SciTegic.value.DoubleValue
0.293

@<SCITEGIC>MOL_PROPERTY
Angle
SciTegic.value.DoubleValue
1.409

@<SCITEGIC>MOL_PROPERTY
Pdih
SciTegic.value.DoubleValue
2.400

@<SCITEGIC>MOL_PROPERTY
Idih
SciTegic.value.DoubleValue
0.000

@<SCITEGIC>MOL_PROPERTY
Tether
SciTegic.value.DoubleValue
0.000

@<TRIPOS>MOLECULE
guest-3_vm2.mol2 : vm2 ligand conformer 164
          29          28           1
SMALL
USER_CHARGES
 
@<TRIPOS>ATOM
       1    C1      20.236817   18.377573   19.901094 C.3        1 MOL1        -0.2427
       2    H1      21.002130   19.068691   19.524466 H          1 MOL1         0.0958
       3    H2      20.744221   17.489279   20.299439 H          1 MOL1         0.0958
       4    H3      19.620770   18.060642   19.049600 H          1 MOL1         0.0958
       5    C2      19.365868   19.050031   20.983200 C.3        1 MOL1        -0.1412
       6    H4      18.589534   18.343660   21.305898 H          1 MOL1         0.0947
       7    H5      18.848107   19.916379   20.548532 H          1 MOL1         0.0947
       8    C3      20.212219   19.502503   22.196065 C.3        1 MOL1        -0.1437
       9    H6      20.701427   18.631898   22.652150 H          1 MOL1         0.0947
      10    H7      21.023256   20.153433   21.841688 H          1 MOL1         0.0947
      11    C4      19.398044   20.275495   23.265420 C.3        1 MOL1        -0.1437
      12    H8      18.996214   21.191634   22.811320 H          1 MOL1         0.0947
      13    H9      20.081017   20.614444   24.055605 H          1 MOL1         0.0947
      14    C5      18.225610   19.483633   23.904334 C.3        1 MOL1        -0.1437
      15    H10     17.734359   20.123302   24.649709 H          1 MOL1         0.0947
      16    H11     17.459429   19.290670   23.141892 H          1 MOL1         0.0947
      17    C6      18.622726   18.136829   24.566219 C.3        1 MOL1        -0.1437
      18    H12     18.972445   17.437422   23.795256 H          1 MOL1         0.0947
      19    H13     17.721326   17.678122   24.995506 H          1 MOL1         0.0947
      20    C7      19.700339   18.251678   25.672582 C.3        1 MOL1        -0.1477
      21    H14     19.899234   17.251135   26.078859 H          1 MOL1         0.0947
      22    H15     20.646182   18.603112   25.241139 H          1 MOL1         0.0947
      23    C8      19.275287   19.186041   26.820230 C.3        1 MOL1         0.0145
      24    H16     18.339757   18.828376   27.258578 H          1 MOL1         0.0921
      25    H17     19.111139   20.194913   26.432789 H          1 MOL1         0.0921
      26    N1      20.307090   19.274217   27.925856 N.4        1 MOL1        -0.5969
      27    H18     20.487945   18.359542   28.352555 H          1 MOL1         0.3603
      28    H19     20.004856   19.901110   28.679674 H          1 MOL1         0.3603
      29    H20     21.205160   19.630411   27.582510 H          1 MOL1         0.3603
@<TRIPOS>BOND
    1     1     2    1
    2     1     3    1
    3     1     4    1
    4     1     5    1
    5     5     6    1
    6     5     7    1
    7     5     8    1
    8     8     9    1
    9     8    10    1
   10     8    11    1
   11    11    12    1
   12    11    13    1
   13    11    14    1
   14    14    15    1
   15    14    16    1
   16    14    17    1
   17    17    18    1
   18    17    19    1
   19    17    20    1
   20    20    21    1
   21    20    22    1
   22    20    23    1
   23    23    24    1
   24    23    25    1
   25    23    26    1
   26    26    27    1
   27    26    28    1
   28    26    29    1
@<TRIPOS>SUBSTRUCTURE
       1 MOL1            1 RESIDUE      1      MOL     
@<SCITEGIC>MOL_PROPERTY
VM2 Rank
SciTegic.value.IntegerValue
164

@<SCITEGIC>MOL_PROPERTY
Conf_Id
SciTegic.value.IntegerValue
841

@<SCITEGIC>MOL_PROPERTY
Probability
SciTegic.value.DoubleValue
0.10

@<SCITEGIC>MOL_PROPERTY
Sum Probability
SciTegic.value.DoubleValue
96.36

@<SCITEGIC>MOL_PROPERTY
Delta G
SciTegic.value.DoubleValue
2.356

@<SCITEGIC>MOL_PROPERTY
G
SciTegic.value.DoubleValue
60.504

@<SCITEGIC>MOL_PROPERTY
E
SciTegic.value.DoubleValue
22.318

@<SCITEGIC>MOL_PROPERTY
-TS
SciTegic.value.DoubleValue
38.186

@<SCITEGIC>MOL_PROPERTY
U+W
SciTegic.value.DoubleValue
-1.826

@<SCITEGIC>MOL_PROPERTY
U
SciTegic.value.DoubleValue
50.384

@<SCITEGIC>MOL_PROPERTY
W
SciTegic.value.DoubleValue
-52.210

@<SCITEGIC>MOL_PROPERTY
W(PB)
SciTegic.value.DoubleValue
-54.658

@<SCITEGIC>MOL_PROPERTY
W(SA)
SciTegic.value.DoubleValue
2.448

@<SCITEGIC>MOL_PROPERTY
Valence
SciTegic.value.DoubleValue
4.249

@<SCITEGIC>MOL_PROPERTY
Coulomb
SciTegic.value.DoubleValue
45.544

@<SCITEGIC>MOL_PROPERTY
VdW
SciTegic.value.DoubleValue
0.592

@<SCITEGIC>MOL_PROPERTY
VdW6
SciTegic.value.DoubleValue
-10.475

@<SCITEGIC>MOL_PROPERTY
VdW12
SciTegic.value.DoubleValue
11.067

@<SCITEGIC>MOL_PROPERTY
Bond
SciTegic.value.DoubleValue
0.300

@<SCITEGIC>MOL_PROPERTY
Angle
SciTegic.value.DoubleValue
1.566

@<SCITEGIC>MOL_PROPERTY
Pdih
SciTegic.value.DoubleValue
2.383

@<SCITEGIC>MOL_PROPERTY
Idih
SciTegic.value.DoubleValue
0.000

@<SCITEGIC>MOL_PROPERTY
Tether
SciTegic.value.DoubleValue
0.000

@<TRIPOS>MOLECULE
guest-3_vm2.mol2 : vm2 ligand conformer 165
          29          28           1
SMALL
USER_CHARGES
 
@<TRIPOS>ATOM
       1    C1      21.411755   19.229754   21.706409 C.3        1 MOL1        -0.2427
       2    H1      21.725403   18.232242   21.372470 H          1 MOL1         0.0958
       3    H2      22.175939   19.948343   21.383199 H          1 MOL1         0.0958
       4    H3      21.395297   19.236231   22.803213 H          1 MOL1         0.0958
       5    C2      20.033010   19.604177   21.117058 C.3        1 MOL1        -0.1412
       6    H4      20.129234   19.702161   20.026764 H          1 MOL1         0.0947
       7    H5      19.731042   20.595055   21.481715 H          1 MOL1         0.0947
       8    C3      18.927627   18.561276   21.422407 C.3        1 MOL1        -0.1437
       9    H6      17.992115   18.887079   20.947285 H          1 MOL1         0.0947
      10    H7      19.194116   17.610446   20.940779 H          1 MOL1         0.0947
      11    C4      18.664757   18.299267   22.927572 C.3        1 MOL1        -0.1437
      12    H8      19.563186   17.866370   23.384827 H          1 MOL1         0.0947
      13    H9      17.880580   17.534897   23.015166 H          1 MOL1         0.0947
      14    C5      18.224163   19.564872   23.705017 C.3        1 MOL1        -0.1437
      15    H10     19.031463   20.308189   23.704018 H          1 MOL1         0.0947
      16    H11     17.380114   20.031621   23.178981 H          1 MOL1         0.0947
      17    C6      17.791375   19.272139   25.164702 C.3        1 MOL1        -0.1437
      18    H12     16.911985   18.613540   25.155168 H          1 MOL1         0.0947
      19    H13     17.460457   20.211452   25.628985 H          1 MOL1         0.0947
      20    C7      18.888842   18.633750   26.052171 C.3        1 MOL1        -0.1477
      21    H14     18.490367   18.499608   27.066576 H          1 MOL1         0.0947
      22    H15     19.133350   17.629578   25.683041 H          1 MOL1         0.0947
      23    C8      20.169055   19.486720   26.122340 C.3        1 MOL1         0.0145
      24    H16     19.927614   20.482009   26.505002 H          1 MOL1         0.0921
      25    H17     20.594735   19.595746   25.121496 H          1 MOL1         0.0921
      26    N1      21.233416   18.886044   27.017324 N.4        1 MOL1        -0.5969
      27    H18     21.523727   17.956983   26.695114 H          1 MOL1         0.3603
      28    H19     20.904894   18.781740   27.983047 H          1 MOL1         0.3603
      29    H20     22.077025   19.468952   27.050148 H          1 MOL1         0.3603
@<TRIPOS>BOND
    1     1     2    1
    2     1     3    1
    3     1     4    1
    4     1     5    1
    5     5     6    1
    6     5     7    1
    7     5     8    1
    8     8     9    1
    9     8    10    1
   10     8    11    1
   11    11    12    1
   12    11    13    1
   13    11    14    1
   14    14    15    1
   15    14    16    1
   16    14    17    1
   17    17    18    1
   18    17    19    1
   19    17    20    1
   20    20    21    1
   21    20    22    1
   22    20    23    1
   23    23    24    1
   24    23    25    1
   25    23    26    1
   26    26    27    1
   27    26    28    1
   28    26    29    1
@<TRIPOS>SUBSTRUCTURE
       1 MOL1            1 RESIDUE      1      MOL     
@<SCITEGIC>MOL_PROPERTY
VM2 Rank
SciTegic.value.IntegerValue
165

@<SCITEGIC>MOL_PROPERTY
Conf_Id
SciTegic.value.IntegerValue
1622

@<SCITEGIC>MOL_PROPERTY
Probability
SciTegic.value.DoubleValue
0.10

@<SCITEGIC>MOL_PROPERTY
Sum Probability
SciTegic.value.DoubleValue
96.46

@<SCITEGIC>MOL_PROPERTY
Delta G
SciTegic.value.DoubleValue
2.357

@<SCITEGIC>MOL_PROPERTY
G
SciTegic.value.DoubleValue
60.505

@<SCITEGIC>MOL_PROPERTY
E
SciTegic.value.DoubleValue
22.455

@<SCITEGIC>MOL_PROPERTY
-TS
SciTegic.value.DoubleValue
38.050

@<SCITEGIC>MOL_PROPERTY
U+W
SciTegic.value.DoubleValue
-1.690

@<SCITEGIC>MOL_PROPERTY
U
SciTegic.value.DoubleValue
50.968

@<SCITEGIC>MOL_PROPERTY
W
SciTegic.value.DoubleValue
-52.658

@<SCITEGIC>MOL_PROPERTY
W(PB)
SciTegic.value.DoubleValue
-55.065

@<SCITEGIC>MOL_PROPERTY
W(SA)
SciTegic.value.DoubleValue
2.407

@<SCITEGIC>MOL_PROPERTY
Valence
SciTegic.value.DoubleValue
4.230

@<SCITEGIC>MOL_PROPERTY
Coulomb
SciTegic.value.DoubleValue
46.141

@<SCITEGIC>MOL_PROPERTY
VdW
SciTegic.value.DoubleValue
0.598

@<SCITEGIC>MOL_PROPERTY
VdW6
SciTegic.value.DoubleValue
-10.517

@<SCITEGIC>MOL_PROPERTY
VdW12
SciTegic.value.DoubleValue
11.115

@<SCITEGIC>MOL_PROPERTY
Bond
SciTegic.value.DoubleValue
0.292

@<SCITEGIC>MOL_PROPERTY
Angle
SciTegic.value.DoubleValue
1.459

@<SCITEGIC>MOL_PROPERTY
Pdih
SciTegic.value.DoubleValue
2.478

@<SCITEGIC>MOL_PROPERTY
Idih
SciTegic.value.DoubleValue
0.000

@<SCITEGIC>MOL_PROPERTY
Tether
SciTegic.value.DoubleValue
0.000

@<TRIPOS>MOLECULE
guest-3_vm2.mol2 : vm2 ligand conformer 166
          29          28           1
SMALL
USER_CHARGES
 
@<TRIPOS>ATOM
       1    C1      21.315539   19.224504   20.638868 C.3        1 MOL1        -0.2427
       2    H1      21.301527   18.322227   20.013652 H          1 MOL1         0.0958
       3    H2      21.600177   20.071652   20.001436 H          1 MOL1         0.0958
       4    H3      22.094782   19.099860   21.402040 H          1 MOL1         0.0958
       5    C2      19.937702   19.470725   21.288934 C.3        1 MOL1        -0.1412
       6    H4      19.184858   19.621514   20.502766 H          1 MOL1         0.0947
       7    H5      19.979492   20.400046   21.872356 H          1 MOL1         0.0947
       8    C3      19.516134   18.290464   22.195195 C.3        1 MOL1        -0.1437
       9    H6      19.542341   17.362670   21.607325 H          1 MOL1         0.0947
      10    H7      20.251818   18.158451   22.999295 H          1 MOL1         0.0947
      11    C4      18.095475   18.447747   22.795961 C.3        1 MOL1        -0.1437
      12    H8      17.853832   17.547560   23.376492 H          1 MOL1         0.0947
      13    H9      17.364575   18.473118   21.976108 H          1 MOL1         0.0947
      14    C5      17.886312   19.703685   23.684476 C.3        1 MOL1        -0.1437
      15    H10     17.943938   20.604861   23.059706 H          1 MOL1         0.0947
      16    H11     16.861504   19.686256   24.080088 H          1 MOL1         0.0947
      17    C6      18.878114   19.848315   24.867098 C.3        1 MOL1        -0.1437
      18    H12     18.640448   20.775078   25.407424 H          1 MOL1         0.0947
      19    H13     19.897265   19.975605   24.480613 H          1 MOL1         0.0947
      20    C7      18.827635   18.660842   25.860142 C.3        1 MOL1        -0.1477
      21    H14     17.791083   18.504351   26.186856 H          1 MOL1         0.0947
      22    H15     19.145449   17.733941   25.366140 H          1 MOL1         0.0947
      23    C8      19.703100   18.894370   27.106007 C.3        1 MOL1         0.0145
      24    H16     19.566473   18.065992   27.806454 H          1 MOL1         0.0921
      25    H17     19.395193   19.817373   27.604615 H          1 MOL1         0.0921
      26    N1      21.183989   18.997349   26.798318 N.4        1 MOL1        -0.5969
      27    H18     21.539210   18.146642   26.349781 H          1 MOL1         0.3603
      28    H19     21.739696   19.143023   27.648342 H          1 MOL1         0.3603
      29    H20     21.386313   19.780377   26.168988 H          1 MOL1         0.3603
@<TRIPOS>BOND
    1     1     2    1
    2     1     3    1
    3     1     4    1
    4     1     5    1
    5     5     6    1
    6     5     7    1
    7     5     8    1
    8     8     9    1
    9     8    10    1
   10     8    11    1
   11    11    12    1
   12    11    13    1
   13    11    14    1
   14    14    15    1
   15    14    16    1
   16    14    17    1
   17    17    18    1
   18    17    19    1
   19    17    20    1
   20    20    21    1
   21    20    22    1
   22    20    23    1
   23    23    24    1
   24    23    25    1
   25    23    26    1
   26    26    27    1
   27    26    28    1
   28    26    29    1
@<TRIPOS>SUBSTRUCTURE
       1 MOL1            1 RESIDUE      1      MOL     
@<SCITEGIC>MOL_PROPERTY
VM2 Rank
SciTegic.value.IntegerValue
166

@<SCITEGIC>MOL_PROPERTY
Conf_Id
SciTegic.value.IntegerValue
82

@<SCITEGIC>MOL_PROPERTY
Probability
SciTegic.value.DoubleValue
0.10

@<SCITEGIC>MOL_PROPERTY
Sum Probability
SciTegic.value.DoubleValue
96.56

@<SCITEGIC>MOL_PROPERTY
Delta G
SciTegic.value.DoubleValue
2.362

@<SCITEGIC>MOL_PROPERTY
G
SciTegic.value.DoubleValue
60.510

@<SCITEGIC>MOL_PROPERTY
E
SciTegic.value.DoubleValue
22.419

@<SCITEGIC>MOL_PROPERTY
-TS
SciTegic.value.DoubleValue
38.091

@<SCITEGIC>MOL_PROPERTY
U+W
SciTegic.value.DoubleValue
-1.725

@<SCITEGIC>MOL_PROPERTY
U
SciTegic.value.DoubleValue
50.852

@<SCITEGIC>MOL_PROPERTY
W
SciTegic.value.DoubleValue
-52.577

@<SCITEGIC>MOL_PROPERTY
W(PB)
SciTegic.value.DoubleValue
-55.008

@<SCITEGIC>MOL_PROPERTY
W(SA)
SciTegic.value.DoubleValue
2.431

@<SCITEGIC>MOL_PROPERTY
Valence
SciTegic.value.DoubleValue
4.102

@<SCITEGIC>MOL_PROPERTY
Coulomb
SciTegic.value.DoubleValue
46.058

@<SCITEGIC>MOL_PROPERTY
VdW
SciTegic.value.DoubleValue
0.693

@<SCITEGIC>MOL_PROPERTY
VdW6
SciTegic.value.DoubleValue
-10.269

@<SCITEGIC>MOL_PROPERTY
VdW12
SciTegic.value.DoubleValue
10.961

@<SCITEGIC>MOL_PROPERTY
Bond
SciTegic.value.DoubleValue
0.293

@<SCITEGIC>MOL_PROPERTY
Angle
SciTegic.value.DoubleValue
1.409

@<SCITEGIC>MOL_PROPERTY
Pdih
SciTegic.value.DoubleValue
2.400

@<SCITEGIC>MOL_PROPERTY
Idih
SciTegic.value.DoubleValue
0.000

@<SCITEGIC>MOL_PROPERTY
Tether
SciTegic.value.DoubleValue
0.000

@<TRIPOS>MOLECULE
guest-3_vm2.mol2 : vm2 ligand conformer 167
          29          28           1
SMALL
USER_CHARGES
 
@<TRIPOS>ATOM
       1    C1      19.790354   20.288783   20.206156 C.3        1 MOL1        -0.2427
       2    H1      19.853714   20.900076   21.115036 H          1 MOL1         0.0958
       3    H2      20.520540   20.685861   19.489226 H          1 MOL1         0.0958
       4    H3      18.789772   20.417236   19.773401 H          1 MOL1         0.0958
       5    C2      20.079127   18.800366   20.504769 C.3        1 MOL1        -0.1412
       6    H4      21.075062   18.699060   20.956005 H          1 MOL1         0.0947
       7    H5      20.124412   18.251518   19.553802 H          1 MOL1         0.0947
       8    C3      19.009923   18.133295   21.407418 C.3        1 MOL1        -0.1437
       9    H6      18.050100   18.128839   20.872789 H          1 MOL1         0.0947
      10    H7      19.277680   17.077611   21.552092 H          1 MOL1         0.0947
      11    C4      18.800329   18.794501   22.794571 C.3        1 MOL1        -0.1437
      12    H8      17.998090   18.248501   23.306534 H          1 MOL1         0.0947
      13    H9      18.434426   19.821861   22.667964 H          1 MOL1         0.0947
      14    C5      20.073151   18.795880   23.679003 C.3        1 MOL1        -0.1437
      15    H10     20.436281   17.767292   23.809733 H          1 MOL1         0.0947
      16    H11     20.872548   19.343366   23.163315 H          1 MOL1         0.0947
      17    C6      19.865075   19.453941   25.065394 C.3        1 MOL1        -0.1437
      18    H12     19.486016   20.476891   24.933944 H          1 MOL1         0.0947
      19    H13     20.847006   19.548655   25.547428 H          1 MOL1         0.0947
      20    C7      18.913456   18.658836   25.994475 C.3        1 MOL1        -0.1477
      21    H14     17.915512   18.598928   25.543393 H          1 MOL1         0.0947
      22    H15     19.271308   17.626721   26.105997 H          1 MOL1         0.0947
      23    C8      18.766023   19.304589   27.385768 C.3        1 MOL1         0.0145
      24    H16     18.012304   18.759060   27.960083 H          1 MOL1         0.0921
      25    H17     18.429571   20.339247   27.277746 H          1 MOL1         0.0921
      26    N1      20.046562   19.307809   28.197446 N.4        1 MOL1        -0.5969
      27    H18     20.789951   19.837196   27.731316 H          1 MOL1         0.3603
      28    H19     20.401328   18.358306   28.351961 H          1 MOL1         0.3603
      29    H20     19.910246   19.731325   29.121911 H          1 MOL1         0.3603
@<TRIPOS>BOND
    1     1     2    1
    2     1     3    1
    3     1     4    1
    4     1     5    1
    5     5     6    1
    6     5     7    1
    7     5     8    1
    8     8     9    1
    9     8    10    1
   10     8    11    1
   11    11    12    1
   12    11    13    1
   13    11    14    1
   14    14    15    1
   15    14    16    1
   16    14    17    1
   17    17    18    1
   18    17    19    1
   19    17    20    1
   20    20    21    1
   21    20    22    1
   22    20    23    1
   23    23    24    1
   24    23    25    1
   25    23    26    1
   26    26    27    1
   27    26    28    1
   28    26    29    1
@<TRIPOS>SUBSTRUCTURE
       1 MOL1            1 RESIDUE      1      MOL     
@<SCITEGIC>MOL_PROPERTY
VM2 Rank
SciTegic.value.IntegerValue
167

@<SCITEGIC>MOL_PROPERTY
Conf_Id
SciTegic.value.IntegerValue
1311

@<SCITEGIC>MOL_PROPERTY
Probability
SciTegic.value.DoubleValue
0.10

@<SCITEGIC>MOL_PROPERTY
Sum Probability
SciTegic.value.DoubleValue
96.66

@<SCITEGIC>MOL_PROPERTY
Delta G
SciTegic.value.DoubleValue
2.369

@<SCITEGIC>MOL_PROPERTY
G
SciTegic.value.DoubleValue
60.517

@<SCITEGIC>MOL_PROPERTY
E
SciTegic.value.DoubleValue
22.772

@<SCITEGIC>MOL_PROPERTY
-TS
SciTegic.value.DoubleValue
37.744

@<SCITEGIC>MOL_PROPERTY
U+W
SciTegic.value.DoubleValue
-1.372

@<SCITEGIC>MOL_PROPERTY
U
SciTegic.value.DoubleValue
50.320

@<SCITEGIC>MOL_PROPERTY
W
SciTegic.value.DoubleValue
-51.692

@<SCITEGIC>MOL_PROPERTY
W(PB)
SciTegic.value.DoubleValue
-54.159

@<SCITEGIC>MOL_PROPERTY
W(SA)
SciTegic.value.DoubleValue
2.467

@<SCITEGIC>MOL_PROPERTY
Valence
SciTegic.value.DoubleValue
4.288

@<SCITEGIC>MOL_PROPERTY
Coulomb
SciTegic.value.DoubleValue
44.897

@<SCITEGIC>MOL_PROPERTY
VdW
SciTegic.value.DoubleValue
1.135

@<SCITEGIC>MOL_PROPERTY
VdW6
SciTegic.value.DoubleValue
-9.608

@<SCITEGIC>MOL_PROPERTY
VdW12
SciTegic.value.DoubleValue
10.744

@<SCITEGIC>MOL_PROPERTY
Bond
SciTegic.value.DoubleValue
0.299

@<SCITEGIC>MOL_PROPERTY
Angle
SciTegic.value.DoubleValue
1.449

@<SCITEGIC>MOL_PROPERTY
Pdih
SciTegic.value.DoubleValue
2.539

@<SCITEGIC>MOL_PROPERTY
Idih
SciTegic.value.DoubleValue
0.000

@<SCITEGIC>MOL_PROPERTY
Tether
SciTegic.value.DoubleValue
0.000

@<TRIPOS>MOLECULE
guest-3_vm2.mol2 : vm2 ligand conformer 168
          29          28           1
SMALL
USER_CHARGES
 
@<TRIPOS>ATOM
       1    C1      21.178063   18.509988   21.114847 C.3        1 MOL1        -0.2427
       2    H1      21.416307   19.294680   20.385162 H          1 MOL1         0.0958
       3    H2      21.498139   18.853233   22.106482 H          1 MOL1         0.0958
       4    H3      21.775088   17.623983   20.863090 H          1 MOL1         0.0958
       5    C2      19.670529   18.171052   21.092961 C.3        1 MOL1        -0.1412
       6    H4      19.453087   17.399577   21.843641 H          1 MOL1         0.0947
       7    H5      19.423170   17.721804   20.121053 H          1 MOL1         0.0947
       8    C3      18.757863   19.404631   21.312073 C.3        1 MOL1        -0.1437
       9    H6      18.902151   20.104880   20.477860 H          1 MOL1         0.0947
      10    H7      17.708866   19.082808   21.256165 H          1 MOL1         0.0947
      11    C4      18.980609   20.166769   22.643924 C.3        1 MOL1        -0.1437
      12    H8      18.291904   21.022366   22.670824 H          1 MOL1         0.0947
      13    H9      19.992242   20.593065   22.666311 H          1 MOL1         0.0947
      14    C5      18.751322   19.295066   23.901535 C.3        1 MOL1        -0.1437
      15    H10     17.752555   18.839791   23.854626 H          1 MOL1         0.0947
      16    H11     19.477862   18.473177   23.914688 H          1 MOL1         0.0947
      17    C6      18.881535   20.122662   25.202477 C.3        1 MOL1        -0.1437
      18    H12     18.177844   20.965686   25.165288 H          1 MOL1         0.0947
      19    H13     19.884758   20.565458   25.261770 H          1 MOL1         0.0947
      20    C7      18.593058   19.297186   26.481426 C.3        1 MOL1        -0.1477
      21    H14     18.661026   19.953117   27.359448 H          1 MOL1         0.0947
      22    H15     17.557573   18.932925   26.450924 H          1 MOL1         0.0947
      23    C8      19.535507   18.092398   26.677874 C.3        1 MOL1         0.0145
      24    H16     19.440344   17.406277   25.832420 H          1 MOL1         0.0921
      25    H17     19.251457   17.553504   27.585829 H          1 MOL1         0.0921
      26    N1      20.995514   18.478249   26.807883 N.4        1 MOL1        -0.5969
      27    H18     21.332236   18.964529   25.970998 H          1 MOL1         0.3603
      28    H19     21.596087   17.657711   26.943713 H          1 MOL1         0.3603
      29    H20     21.153802   19.101847   27.606165 H          1 MOL1         0.3603
@<TRIPOS>BOND
    1     1     2    1
    2     1     3    1
    3     1     4    1
    4     1     5    1
    5     5     6    1
    6     5     7    1
    7     5     8    1
    8     8     9    1
    9     8    10    1
   10     8    11    1
   11    11    12    1
   12    11    13    1
   13    11    14    1
   14    14    15    1
   15    14    16    1
   16    14    17    1
   17    17    18    1
   18    17    19    1
   19    17    20    1
   20    20    21    1
   21    20    22    1
   22    20    23    1
   23    23    24    1
   24    23    25    1
   25    23    26    1
   26    26    27    1
   27    26    28    1
   28    26    29    1
@<TRIPOS>SUBSTRUCTURE
       1 MOL1            1 RESIDUE      1      MOL     
@<SCITEGIC>MOL_PROPERTY
VM2 Rank
SciTegic.value.IntegerValue
168

@<SCITEGIC>MOL_PROPERTY
Conf_Id
SciTegic.value.IntegerValue
676

@<SCITEGIC>MOL_PROPERTY
Probability
SciTegic.value.DoubleValue
0.10

@<SCITEGIC>MOL_PROPERTY
Sum Probability
SciTegic.value.DoubleValue
96.76

@<SCITEGIC>MOL_PROPERTY
Delta G
SciTegic.value.DoubleValue
2.379

@<SCITEGIC>MOL_PROPERTY
G
SciTegic.value.DoubleValue
60.527

@<SCITEGIC>MOL_PROPERTY
E
SciTegic.value.DoubleValue
22.617

@<SCITEGIC>MOL_PROPERTY
-TS
SciTegic.value.DoubleValue
37.910

@<SCITEGIC>MOL_PROPERTY
U+W
SciTegic.value.DoubleValue
-1.528

@<SCITEGIC>MOL_PROPERTY
U
SciTegic.value.DoubleValue
50.684

@<SCITEGIC>MOL_PROPERTY
W
SciTegic.value.DoubleValue
-52.212

@<SCITEGIC>MOL_PROPERTY
W(PB)
SciTegic.value.DoubleValue
-54.660

@<SCITEGIC>MOL_PROPERTY
W(SA)
SciTegic.value.DoubleValue
2.448

@<SCITEGIC>MOL_PROPERTY
Valence
SciTegic.value.DoubleValue
3.913

@<SCITEGIC>MOL_PROPERTY
Coulomb
SciTegic.value.DoubleValue
45.943

@<SCITEGIC>MOL_PROPERTY
VdW
SciTegic.value.DoubleValue
0.829

@<SCITEGIC>MOL_PROPERTY
VdW6
SciTegic.value.DoubleValue
-9.954

@<SCITEGIC>MOL_PROPERTY
VdW12
SciTegic.value.DoubleValue
10.782

@<SCITEGIC>MOL_PROPERTY
Bond
SciTegic.value.DoubleValue
0.272

@<SCITEGIC>MOL_PROPERTY
Angle
SciTegic.value.DoubleValue
1.273

@<SCITEGIC>MOL_PROPERTY
Pdih
SciTegic.value.DoubleValue
2.367

@<SCITEGIC>MOL_PROPERTY
Idih
SciTegic.value.DoubleValue
0.000

@<SCITEGIC>MOL_PROPERTY
Tether
SciTegic.value.DoubleValue
0.000

@<TRIPOS>MOLECULE
guest-3_vm2.mol2 : vm2 ligand conformer 169
          29          28           1
SMALL
USER_CHARGES
 
@<TRIPOS>ATOM
       1    C1      20.232076   18.603912   19.778167 C.3        1 MOL1        -0.2427
       2    H1      21.175489   18.119883   20.062245 H          1 MOL1         0.0958
       3    H2      19.426472   17.864222   19.862177 H          1 MOL1         0.0958
       4    H3      20.306872   18.890282   18.721130 H          1 MOL1         0.0958
       5    C2      19.958282   19.846089   20.656198 C.3        1 MOL1        -0.1412
       6    H4      18.993396   20.291728   20.376705 H          1 MOL1         0.0947
       7    H5      20.721995   20.605968   20.439192 H          1 MOL1         0.0947
       8    C3      19.976321   19.545876   22.174622 C.3        1 MOL1        -0.1437
       9    H6      20.943201   19.102135   22.448780 H          1 MOL1         0.0947
      10    H7      19.910571   20.502060   22.709104 H          1 MOL1         0.0947
      11    C4      18.824481   18.615474   22.632772 C.3        1 MOL1        -0.1437
      12    H8      18.889457   17.661806   22.093460 H          1 MOL1         0.0947
      13    H9      17.857439   19.059742   22.360015 H          1 MOL1         0.0947
      14    C5      18.845046   18.307826   24.150216 C.3        1 MOL1        -0.1437
      15    H10     18.084310   17.543009   24.358953 H          1 MOL1         0.0947
      16    H11     19.812706   17.861180   24.415026 H          1 MOL1         0.0947
      17    C6      18.566440   19.547368   25.037581 C.3        1 MOL1        -0.1437
      18    H12     17.645437   20.037588   24.693302 H          1 MOL1         0.0947
      19    H13     19.368996   20.286343   24.921666 H          1 MOL1         0.0947
      20    C7      18.405636   19.193629   26.537235 C.3        1 MOL1        -0.1477
      21    H14     18.177362   20.106372   27.103440 H          1 MOL1         0.0947
      22    H15     17.538780   18.531208   26.662157 H          1 MOL1         0.0947
      23    C8      19.642564   18.511239   27.155627 C.3        1 MOL1         0.0145
      24    H16     19.852421   17.577583   26.627465 H          1 MOL1         0.0921
      25    H17     19.439382   18.270892   28.202725 H          1 MOL1         0.0921
      26    N1      20.893155   19.366588   27.112580 N.4        1 MOL1        -0.5969
      27    H18     20.767237   20.249215   27.618838 H          1 MOL1         0.3603
      28    H19     21.154598   19.602636   26.150221 H          1 MOL1         0.3603
      29    H20     21.696299   18.889076   27.536129 H          1 MOL1         0.3603
@<TRIPOS>BOND
    1     1     2    1
    2     1     3    1
    3     1     4    1
    4     1     5    1
    5     5     6    1
    6     5     7    1
    7     5     8    1
    8     8     9    1
    9     8    10    1
   10     8    11    1
   11    11    12    1
   12    11    13    1
   13    11    14    1
   14    14    15    1
   15    14    16    1
   16    14    17    1
   17    17    18    1
   18    17    19    1
   19    17    20    1
   20    20    21    1
   21    20    22    1
   22    20    23    1
   23    23    24    1
   24    23    25    1
   25    23    26    1
   26    26    27    1
   27    26    28    1
   28    26    29    1
@<TRIPOS>SUBSTRUCTURE
       1 MOL1            1 RESIDUE      1      MOL     
@<SCITEGIC>MOL_PROPERTY
VM2 Rank
SciTegic.value.IntegerValue
169

@<SCITEGIC>MOL_PROPERTY
Conf_Id
SciTegic.value.IntegerValue
646

@<SCITEGIC>MOL_PROPERTY
Probability
SciTegic.value.DoubleValue
0.10

@<SCITEGIC>MOL_PROPERTY
Sum Probability
SciTegic.value.DoubleValue
96.86

@<SCITEGIC>MOL_PROPERTY
Delta G
SciTegic.value.DoubleValue
2.383

@<SCITEGIC>MOL_PROPERTY
G
SciTegic.value.DoubleValue
60.531

@<SCITEGIC>MOL_PROPERTY
E
SciTegic.value.DoubleValue
22.887

@<SCITEGIC>MOL_PROPERTY
-TS
SciTegic.value.DoubleValue
37.644

@<SCITEGIC>MOL_PROPERTY
U+W
SciTegic.value.DoubleValue
-1.257

@<SCITEGIC>MOL_PROPERTY
U
SciTegic.value.DoubleValue
50.887

@<SCITEGIC>MOL_PROPERTY
W
SciTegic.value.DoubleValue
-52.145

@<SCITEGIC>MOL_PROPERTY
W(PB)
SciTegic.value.DoubleValue
-54.618

@<SCITEGIC>MOL_PROPERTY
W(SA)
SciTegic.value.DoubleValue
2.473

@<SCITEGIC>MOL_PROPERTY
Valence
SciTegic.value.DoubleValue
4.062

@<SCITEGIC>MOL_PROPERTY
Coulomb
SciTegic.value.DoubleValue
45.799

@<SCITEGIC>MOL_PROPERTY
VdW
SciTegic.value.DoubleValue
1.026

@<SCITEGIC>MOL_PROPERTY
VdW6
SciTegic.value.DoubleValue
-9.554

@<SCITEGIC>MOL_PROPERTY
VdW12
SciTegic.value.DoubleValue
10.580

@<SCITEGIC>MOL_PROPERTY
Bond
SciTegic.value.DoubleValue
0.275

@<SCITEGIC>MOL_PROPERTY
Angle
SciTegic.value.DoubleValue
1.140

@<SCITEGIC>MOL_PROPERTY
Pdih
SciTegic.value.DoubleValue
2.648

@<SCITEGIC>MOL_PROPERTY
Idih
SciTegic.value.DoubleValue
0.000

@<SCITEGIC>MOL_PROPERTY
Tether
SciTegic.value.DoubleValue
0.000

@<TRIPOS>MOLECULE
guest-3_vm2.mol2 : vm2 ligand conformer 170
          29          28           1
SMALL
USER_CHARGES
 
@<TRIPOS>ATOM
       1    C1      20.409701   19.102747   19.789275 C.3        1 MOL1        -0.2427
       2    H1      20.251898   20.181065   19.913871 H          1 MOL1         0.0958
       3    H2      21.442575   18.869772   20.078937 H          1 MOL1         0.0958
       4    H3      20.301536   18.875713   18.720778 H          1 MOL1         0.0958
       5    C2      19.400041   18.279728   20.621219 C.3        1 MOL1        -0.1412
       6    H4      19.514469   17.217534   20.363505 H          1 MOL1         0.0947
       7    H5      18.374732   18.555840   20.337986 H          1 MOL1         0.0947
       8    C3      19.582406   18.440480   22.149932 C.3        1 MOL1        -0.1437
       9    H6      18.919432   17.720990   22.647005 H          1 MOL1         0.0947
      10    H7      20.608092   18.161714   22.427752 H          1 MOL1         0.0947
      11    C4      19.271861   19.870464   22.660803 C.3        1 MOL1        -0.1437
      12    H8      18.245709   20.148887   22.384333 H          1 MOL1         0.0947
      13    H9      19.932743   20.588680   22.158843 H          1 MOL1         0.0947
      14    C5      19.460850   20.035389   24.188804 C.3        1 MOL1        -0.1437
      15    H10     20.489095   19.758725   24.457420 H          1 MOL1         0.0947
      16    H11     19.352122   21.099868   24.438400 H          1 MOL1         0.0947
      17    C6      18.448815   19.217240   25.030186 C.3        1 MOL1        -0.1437
      18    H12     18.604994   18.142640   24.873783 H          1 MOL1         0.0947
      19    H13     17.430293   19.433809   24.679755 H          1 MOL1         0.0947
      20    C7      18.526649   19.533227   26.544795 C.3        1 MOL1        -0.1477
      21    H14     18.272150   20.588887   26.708068 H          1 MOL1         0.0947
      22    H15     17.764750   18.948858   27.077543 H          1 MOL1         0.0947
      23    C8      19.907517   19.254757   27.172255 C.3        1 MOL1         0.0145
      24    H16     19.887249   19.527713   28.230816 H          1 MOL1         0.0921
      25    H17     20.667825   19.865447   26.678597 H          1 MOL1         0.0921
      26    N1      20.336160   17.803969   27.077731 N.4        1 MOL1        -0.5969
      27    H18     19.673424   17.180559   27.550302 H          1 MOL1         0.3603
      28    H19     21.254206   17.648923   27.508550 H          1 MOL1         0.3603
      29    H20     20.403119   17.494157   26.103187 H          1 MOL1         0.3603
@<TRIPOS>BOND
    1     1     2    1
    2     1     3    1
    3     1     4    1
    4     1     5    1
    5     5     6    1
    6     5     7    1
    7     5     8    1
    8     8     9    1
    9     8    10    1
   10     8    11    1
   11    11    12    1
   12    11    13    1
   13    11    14    1
   14    14    15    1
   15    14    16    1
   16    14    17    1
   17    17    18    1
   18    17    19    1
   19    17    20    1
   20    20    21    1
   21    20    22    1
   22    20    23    1
   23    23    24    1
   24    23    25    1
   25    23    26    1
   26    26    27    1
   27    26    28    1
   28    26    29    1
@<TRIPOS>SUBSTRUCTURE
       1 MOL1            1 RESIDUE      1      MOL     
@<SCITEGIC>MOL_PROPERTY
VM2 Rank
SciTegic.value.IntegerValue
170

@<SCITEGIC>MOL_PROPERTY
Conf_Id
SciTegic.value.IntegerValue
284

@<SCITEGIC>MOL_PROPERTY
Probability
SciTegic.value.DoubleValue
0.10

@<SCITEGIC>MOL_PROPERTY
Sum Probability
SciTegic.value.DoubleValue
96.96

@<SCITEGIC>MOL_PROPERTY
Delta G
SciTegic.value.DoubleValue
2.387

@<SCITEGIC>MOL_PROPERTY
G
SciTegic.value.DoubleValue
60.535

@<SCITEGIC>MOL_PROPERTY
E
SciTegic.value.DoubleValue
22.891

@<SCITEGIC>MOL_PROPERTY
-TS
SciTegic.value.DoubleValue
37.644

@<SCITEGIC>MOL_PROPERTY
U+W
SciTegic.value.DoubleValue
-1.254

@<SCITEGIC>MOL_PROPERTY
U
SciTegic.value.DoubleValue
50.887

@<SCITEGIC>MOL_PROPERTY
W
SciTegic.value.DoubleValue
-52.141

@<SCITEGIC>MOL_PROPERTY
W(PB)
SciTegic.value.DoubleValue
-54.601

@<SCITEGIC>MOL_PROPERTY
W(SA)
SciTegic.value.DoubleValue
2.460

@<SCITEGIC>MOL_PROPERTY
Valence
SciTegic.value.DoubleValue
4.062

@<SCITEGIC>MOL_PROPERTY
Coulomb
SciTegic.value.DoubleValue
45.799

@<SCITEGIC>MOL_PROPERTY
VdW
SciTegic.value.DoubleValue
1.026

@<SCITEGIC>MOL_PROPERTY
VdW6
SciTegic.value.DoubleValue
-9.554

@<SCITEGIC>MOL_PROPERTY
VdW12
SciTegic.value.DoubleValue
10.580

@<SCITEGIC>MOL_PROPERTY
Bond
SciTegic.value.DoubleValue
0.275

@<SCITEGIC>MOL_PROPERTY
Angle
SciTegic.value.DoubleValue
1.140

@<SCITEGIC>MOL_PROPERTY
Pdih
SciTegic.value.DoubleValue
2.648

@<SCITEGIC>MOL_PROPERTY
Idih
SciTegic.value.DoubleValue
0.000

@<SCITEGIC>MOL_PROPERTY
Tether
SciTegic.value.DoubleValue
0.000

@<TRIPOS>MOLECULE
guest-3_vm2.mol2 : vm2 ligand conformer 171
          29          28           1
SMALL
USER_CHARGES
 
@<TRIPOS>ATOM
       1    C1      20.620284   17.999635   20.786953 C.3        1 MOL1        -0.2427
       2    H1      20.927366   16.954866   20.649277 H          1 MOL1         0.0958
       3    H2      20.601400   18.477707   19.799019 H          1 MOL1         0.0958
       4    H3      21.389711   18.493668   21.393182 H          1 MOL1         0.0958
       5    C2      19.233372   18.071707   21.464540 C.3        1 MOL1        -0.1412
       6    H4      19.279538   17.599063   22.454736 H          1 MOL1         0.0947
       7    H5      18.521705   17.473862   20.878334 H          1 MOL1         0.0947
       8    C3      18.683514   19.515598   21.585523 C.3        1 MOL1        -0.1437
       9    H6      18.549646   19.929010   20.576491 H          1 MOL1         0.0947
      10    H7      17.677284   19.478266   22.023434 H          1 MOL1         0.0947
      11    C4      19.567517   20.492618   22.406729 C.3        1 MOL1        -0.1437
      12    H8      19.067049   21.469812   22.446266 H          1 MOL1         0.0947
      13    H9      20.509966   20.666462   21.870605 H          1 MOL1         0.0947
      14    C5      19.890018   20.034980   23.852300 C.3        1 MOL1        -0.1437
      15    H10     20.485255   19.113540   23.821952 H          1 MOL1         0.0947
      16    H11     20.530922   20.794532   24.320638 H          1 MOL1         0.0947
      17    C6      18.628449   19.830069   24.728054 C.3        1 MOL1        -0.1437
      18    H12     18.016000   19.013636   24.323004 H          1 MOL1         0.0947
      19    H13     18.008694   20.736279   24.686083 H          1 MOL1         0.0947
      20    C7      18.963520   19.523853   26.206378 C.3        1 MOL1        -0.1477
      21    H14     19.550788   20.349051   26.630784 H          1 MOL1         0.0947
      22    H15     18.029059   19.474580   26.781054 H          1 MOL1         0.0947
      23    C8      19.730961   18.199672   26.377894 C.3        1 MOL1         0.0145
      24    H16     20.683818   18.252302   25.844988 H          1 MOL1         0.0921
      25    H17     19.145335   17.377868   25.957140 H          1 MOL1         0.0921
      26    N1      20.026366   17.869868   27.826629 N.4        1 MOL1        -0.5969
      27    H18     20.598258   18.593965   28.273935 H          1 MOL1         0.3603
      28    H19     20.537501   16.985144   27.919526 H          1 MOL1         0.3603
      29    H20     19.167928   17.778503   28.379983 H          1 MOL1         0.3603
@<TRIPOS>BOND
    1     1     2    1
    2     1     3    1
    3     1     4    1
    4     1     5    1
    5     5     6    1
    6     5     7    1
    7     5     8    1
    8     8     9    1
    9     8    10    1
   10     8    11    1
   11    11    12    1
   12    11    13    1
   13    11    14    1
   14    14    15    1
   15    14    16    1
   16    14    17    1
   17    17    18    1
   18    17    19    1
   19    17    20    1
   20    20    21    1
   21    20    22    1
   22    20    23    1
   23    23    24    1
   24    23    25    1
   25    23    26    1
   26    26    27    1
   27    26    28    1
   28    26    29    1
@<TRIPOS>SUBSTRUCTURE
       1 MOL1            1 RESIDUE      1      MOL     
@<SCITEGIC>MOL_PROPERTY
VM2 Rank
SciTegic.value.IntegerValue
171

@<SCITEGIC>MOL_PROPERTY
Conf_Id
SciTegic.value.IntegerValue
1932

@<SCITEGIC>MOL_PROPERTY
Probability
SciTegic.value.DoubleValue
0.10

@<SCITEGIC>MOL_PROPERTY
Sum Probability
SciTegic.value.DoubleValue
97.06

@<SCITEGIC>MOL_PROPERTY
Delta G
SciTegic.value.DoubleValue
2.398

@<SCITEGIC>MOL_PROPERTY
G
SciTegic.value.DoubleValue
60.546

@<SCITEGIC>MOL_PROPERTY
E
SciTegic.value.DoubleValue
22.479

@<SCITEGIC>MOL_PROPERTY
-TS
SciTegic.value.DoubleValue
38.067

@<SCITEGIC>MOL_PROPERTY
U+W
SciTegic.value.DoubleValue
-1.666

@<SCITEGIC>MOL_PROPERTY
U
SciTegic.value.DoubleValue
50.365

@<SCITEGIC>MOL_PROPERTY
W
SciTegic.value.DoubleValue
-52.031

@<SCITEGIC>MOL_PROPERTY
W(PB)
SciTegic.value.DoubleValue
-54.487

@<SCITEGIC>MOL_PROPERTY
W(SA)
SciTegic.value.DoubleValue
2.456

@<SCITEGIC>MOL_PROPERTY
Valence
SciTegic.value.DoubleValue
4.264

@<SCITEGIC>MOL_PROPERTY
Coulomb
SciTegic.value.DoubleValue
45.392

@<SCITEGIC>MOL_PROPERTY
VdW
SciTegic.value.DoubleValue
0.709

@<SCITEGIC>MOL_PROPERTY
VdW6
SciTegic.value.DoubleValue
-10.226

@<SCITEGIC>MOL_PROPERTY
VdW12
SciTegic.value.DoubleValue
10.935

@<SCITEGIC>MOL_PROPERTY
Bond
SciTegic.value.DoubleValue
0.291

@<SCITEGIC>MOL_PROPERTY
Angle
SciTegic.value.DoubleValue
1.460

@<SCITEGIC>MOL_PROPERTY
Pdih
SciTegic.value.DoubleValue
2.514

@<SCITEGIC>MOL_PROPERTY
Idih
SciTegic.value.DoubleValue
0.000

@<SCITEGIC>MOL_PROPERTY
Tether
SciTegic.value.DoubleValue
0.000

@<TRIPOS>MOLECULE
guest-3_vm2.mol2 : vm2 ligand conformer 172
          29          28           1
SMALL
USER_CHARGES
 
@<TRIPOS>ATOM
       1    C1      20.900724   17.796003   21.674469 C.3        1 MOL1        -0.2427
       2    H1      21.779031   18.382685   21.375635 H          1 MOL1         0.0958
       3    H2      20.868571   17.758195   22.770293 H          1 MOL1         0.0958
       4    H3      21.042866   16.769558   21.312506 H          1 MOL1         0.0958
       5    C2      19.604194   18.401211   21.090342 C.3        1 MOL1        -0.1412
       6    H4      18.738711   17.811017   21.419895 H          1 MOL1         0.0947
       7    H5      19.632046   18.307567   19.995785 H          1 MOL1         0.0947
       8    C3      19.402970   19.894995   21.452107 C.3        1 MOL1        -0.1437
       9    H6      20.217291   20.481244   21.004610 H          1 MOL1         0.0947
      10    H7      18.478940   20.253087   20.977756 H          1 MOL1         0.0947
      11    C4      19.343914   20.204563   22.969984 C.3        1 MOL1        -0.1437
      12    H8      19.218661   21.288361   23.098682 H          1 MOL1         0.0947
      13    H9      20.307114   19.953320   23.431260 H          1 MOL1         0.0947
      14    C5      18.191404   19.473372   23.703044 C.3        1 MOL1        -0.1437
      15    H10     17.249862   19.666910   23.171036 H          1 MOL1         0.0947
      16    H11     18.346551   18.387815   23.661234 H          1 MOL1         0.0947
      17    C6      18.020961   19.915815   25.179145 C.3        1 MOL1        -0.1437
      18    H12     17.164026   19.380211   25.610608 H          1 MOL1         0.0947
      19    H13     17.756707   20.981885   25.208112 H          1 MOL1         0.0947
      20    C7      19.262204   19.680287   26.075486 C.3        1 MOL1        -0.1477
      21    H14     20.091947   20.316897   25.742840 H          1 MOL1         0.0947
      22    H15     19.024289   19.996044   27.099930 H          1 MOL1         0.0947
      23    C8      19.712971   18.207906   26.093828 C.3        1 MOL1         0.0145
      24    H16     19.987595   17.893810   25.083529 H          1 MOL1         0.0921
      25    H17     18.891048   17.575703   26.440359 H          1 MOL1         0.0921
      26    N1      20.904659   17.963847   26.996595 N.4        1 MOL1        -0.5969
      27    H18     21.721673   18.511557   26.707192 H          1 MOL1         0.3603
      28    H19     21.188723   16.978027   26.994410 H          1 MOL1         0.3603
      29    H20     20.702765   18.214165   27.970251 H          1 MOL1         0.3603
@<TRIPOS>BOND
    1     1     2    1
    2     1     3    1
    3     1     4    1
    4     1     5    1
    5     5     6    1
    6     5     7    1
    7     5     8    1
    8     8     9    1
    9     8    10    1
   10     8    11    1
   11    11    12    1
   12    11    13    1
   13    11    14    1
   14    14    15    1
   15    14    16    1
   16    14    17    1
   17    17    18    1
   18    17    19    1
   19    17    20    1
   20    20    21    1
   21    20    22    1
   22    20    23    1
   23    23    24    1
   24    23    25    1
   25    23    26    1
   26    26    27    1
   27    26    28    1
   28    26    29    1
@<TRIPOS>SUBSTRUCTURE
       1 MOL1            1 RESIDUE      1      MOL     
@<SCITEGIC>MOL_PROPERTY
VM2 Rank
SciTegic.value.IntegerValue
172

@<SCITEGIC>MOL_PROPERTY
Conf_Id
SciTegic.value.IntegerValue
2283

@<SCITEGIC>MOL_PROPERTY
Probability
SciTegic.value.DoubleValue
0.10

@<SCITEGIC>MOL_PROPERTY
Sum Probability
SciTegic.value.DoubleValue
97.15

@<SCITEGIC>MOL_PROPERTY
Delta G
SciTegic.value.DoubleValue
2.402

@<SCITEGIC>MOL_PROPERTY
G
SciTegic.value.DoubleValue
60.550

@<SCITEGIC>MOL_PROPERTY
E
SciTegic.value.DoubleValue
22.500

@<SCITEGIC>MOL_PROPERTY
-TS
SciTegic.value.DoubleValue
38.050

@<SCITEGIC>MOL_PROPERTY
U+W
SciTegic.value.DoubleValue
-1.645

@<SCITEGIC>MOL_PROPERTY
U
SciTegic.value.DoubleValue
50.968

@<SCITEGIC>MOL_PROPERTY
W
SciTegic.value.DoubleValue
-52.613

@<SCITEGIC>MOL_PROPERTY
W(PB)
SciTegic.value.DoubleValue
-55.012

@<SCITEGIC>MOL_PROPERTY
W(SA)
SciTegic.value.DoubleValue
2.399

@<SCITEGIC>MOL_PROPERTY
Valence
SciTegic.value.DoubleValue
4.230

@<SCITEGIC>MOL_PROPERTY
Coulomb
SciTegic.value.DoubleValue
46.141

@<SCITEGIC>MOL_PROPERTY
VdW
SciTegic.value.DoubleValue
0.598

@<SCITEGIC>MOL_PROPERTY
VdW6
SciTegic.value.DoubleValue
-10.516

@<SCITEGIC>MOL_PROPERTY
VdW12
SciTegic.value.DoubleValue
11.114

@<SCITEGIC>MOL_PROPERTY
Bond
SciTegic.value.DoubleValue
0.292

@<SCITEGIC>MOL_PROPERTY
Angle
SciTegic.value.DoubleValue
1.459

@<SCITEGIC>MOL_PROPERTY
Pdih
SciTegic.value.DoubleValue
2.478

@<SCITEGIC>MOL_PROPERTY
Idih
SciTegic.value.DoubleValue
0.000

@<SCITEGIC>MOL_PROPERTY
Tether
SciTegic.value.DoubleValue
0.000

@<TRIPOS>MOLECULE
guest-3_vm2.mol2 : vm2 ligand conformer 173
          29          28           1
SMALL
USER_CHARGES
 
@<TRIPOS>ATOM
       1    C1      20.554856   19.270469   19.921130 C.3        1 MOL1        -0.2427
       2    H1      20.289687   19.938740   19.091612 H          1 MOL1         0.0958
       3    H2      21.503621   19.621848   20.347252 H          1 MOL1         0.0958
       4    H3      20.716780   18.266873   19.506674 H          1 MOL1         0.0958
       5    C2      19.439637   19.257198   20.987815 C.3        1 MOL1        -0.1412
       6    H4      18.497219   18.930793   20.526427 H          1 MOL1         0.0947
       7    H5      19.279581   20.281703   21.349140 H          1 MOL1         0.0947
       8    C3      19.792556   18.324191   22.169774 C.3        1 MOL1        -0.1437
       9    H6      20.014828   17.321901   21.778515 H          1 MOL1         0.0947
      10    H7      20.715317   18.670985   22.653031 H          1 MOL1         0.0947
      11    C4      18.658106   18.197909   23.219056 C.3        1 MOL1        -0.1437
      12    H8      18.962090   17.472720   23.985494 H          1 MOL1         0.0947
      13    H9      17.774253   17.760604   22.734749 H          1 MOL1         0.0947
      14    C5      18.240817   19.526370   23.905293 C.3        1 MOL1        -0.1437
      15    H10     17.779720   20.190033   23.161972 H          1 MOL1         0.0947
      16    H11     17.445430   19.312087   24.631605 H          1 MOL1         0.0947
      17    C6      19.390195   20.291797   24.614327 C.3        1 MOL1        -0.1437
      18    H12     18.975403   21.199411   25.074119 H          1 MOL1         0.0947
      19    H13     20.113999   20.642773   23.866810 H          1 MOL1         0.0947
      20    C7      20.137152   19.478205   25.699962 C.3        1 MOL1        -0.1477
      21    H14     20.654217   18.625655   25.241629 H          1 MOL1         0.0947
      22    H15     20.917720   20.110964   26.142724 H          1 MOL1         0.0947
      23    C8      19.201194   18.977989   26.815563 C.3        1 MOL1         0.0145
      24    H16     18.441963   18.316167   26.390784 H          1 MOL1         0.0921
      25    H17     18.696037   19.828580   27.280968 H          1 MOL1         0.0921
      26    N1      19.929487   18.213873   27.902078 N.4        1 MOL1        -0.5969
      27    H18     20.405204   17.384321   27.532175 H          1 MOL1         0.3603
      28    H19     19.288530   17.889671   28.634642 H          1 MOL1         0.3603
      29    H20     20.641589   18.790661   28.362118 H          1 MOL1         0.3603
@<TRIPOS>BOND
    1     1     2    1
    2     1     3    1
    3     1     4    1
    4     1     5    1
    5     5     6    1
    6     5     7    1
    7     5     8    1
    8     8     9    1
    9     8    10    1
   10     8    11    1
   11    11    12    1
   12    11    13    1
   13    11    14    1
   14    14    15    1
   15    14    16    1
   16    14    17    1
   17    17    18    1
   18    17    19    1
   19    17    20    1
   20    20    21    1
   21    20    22    1
   22    20    23    1
   23    23    24    1
   24    23    25    1
   25    23    26    1
   26    26    27    1
   27    26    28    1
   28    26    29    1
@<TRIPOS>SUBSTRUCTURE
       1 MOL1            1 RESIDUE      1      MOL     
@<SCITEGIC>MOL_PROPERTY
VM2 Rank
SciTegic.value.IntegerValue
173

@<SCITEGIC>MOL_PROPERTY
Conf_Id
SciTegic.value.IntegerValue
684

@<SCITEGIC>MOL_PROPERTY
Probability
SciTegic.value.DoubleValue
0.10

@<SCITEGIC>MOL_PROPERTY
Sum Probability
SciTegic.value.DoubleValue
97.25

@<SCITEGIC>MOL_PROPERTY
Delta G
SciTegic.value.DoubleValue
2.404

@<SCITEGIC>MOL_PROPERTY
G
SciTegic.value.DoubleValue
60.552

@<SCITEGIC>MOL_PROPERTY
E
SciTegic.value.DoubleValue
22.366

@<SCITEGIC>MOL_PROPERTY
-TS
SciTegic.value.DoubleValue
38.186

@<SCITEGIC>MOL_PROPERTY
U+W
SciTegic.value.DoubleValue
-1.779

@<SCITEGIC>MOL_PROPERTY
U
SciTegic.value.DoubleValue
50.384

@<SCITEGIC>MOL_PROPERTY
W
SciTegic.value.DoubleValue
-52.163

@<SCITEGIC>MOL_PROPERTY
W(PB)
SciTegic.value.DoubleValue
-54.622

@<SCITEGIC>MOL_PROPERTY
W(SA)
SciTegic.value.DoubleValue
2.459

@<SCITEGIC>MOL_PROPERTY
Valence
SciTegic.value.DoubleValue
4.248

@<SCITEGIC>MOL_PROPERTY
Coulomb
SciTegic.value.DoubleValue
45.544

@<SCITEGIC>MOL_PROPERTY
VdW
SciTegic.value.DoubleValue
0.592

@<SCITEGIC>MOL_PROPERTY
VdW6
SciTegic.value.DoubleValue
-10.476

@<SCITEGIC>MOL_PROPERTY
VdW12
SciTegic.value.DoubleValue
11.067

@<SCITEGIC>MOL_PROPERTY
Bond
SciTegic.value.DoubleValue
0.300

@<SCITEGIC>MOL_PROPERTY
Angle
SciTegic.value.DoubleValue
1.566

@<SCITEGIC>MOL_PROPERTY
Pdih
SciTegic.value.DoubleValue
2.382

@<SCITEGIC>MOL_PROPERTY
Idih
SciTegic.value.DoubleValue
0.000

@<SCITEGIC>MOL_PROPERTY
Tether
SciTegic.value.DoubleValue
0.000

@<TRIPOS>MOLECULE
guest-3_vm2.mol2 : vm2 ligand conformer 174
          29          28           1
SMALL
USER_CHARGES
 
@<TRIPOS>ATOM
       1    C1      19.812654   19.534160   19.824103 C.3        1 MOL1        -0.2427
       2    H1      20.075211   20.256888   19.040750 H          1 MOL1         0.0958
       3    H2      20.222055   18.558576   19.531461 H          1 MOL1         0.0958
       4    H3      18.718765   19.456048   19.846133 H          1 MOL1         0.0958
       5    C2      20.378669   19.987533   21.188983 C.3        1 MOL1        -0.1412
       6    H4      19.928108   20.947833   21.476208 H          1 MOL1         0.0947
       7    H5      21.456049   20.174316   21.078945 H          1 MOL1         0.0947
       8    C3      20.169081   18.951654   22.319842 C.3        1 MOL1        -0.1437
       9    H6      20.622670   17.994077   22.029648 H          1 MOL1         0.0947
      10    H7      20.718223   19.300625   23.203642 H          1 MOL1         0.0947
      11    C4      18.679713   18.734674   22.689285 C.3        1 MOL1        -0.1437
      12    H8      18.130206   18.392884   21.802919 H          1 MOL1         0.0947
      13    H9      18.224688   19.691822   22.975734 H          1 MOL1         0.0947
      14    C5      18.464449   17.687169   23.812599 C.3        1 MOL1        -0.1437
      15    H10     17.384934   17.566867   23.977937 H          1 MOL1         0.0947
      16    H11     18.824369   16.710157   23.461791 H          1 MOL1         0.0947
      17    C6      19.144864   18.011555   25.167697 C.3        1 MOL1        -0.1437
      18    H12     20.235482   17.995689   25.047889 H          1 MOL1         0.0947
      19    H13     18.907409   17.204755   25.874886 H          1 MOL1         0.0947
      20    C7      18.693905   19.362173   25.777136 C.3        1 MOL1        -0.1477
      21    H14     19.009340   20.195686   25.136733 H          1 MOL1         0.0947
      22    H15     17.597131   19.393852   25.819378 H          1 MOL1         0.0947
      23    C8      19.244653   19.582818   27.198840 C.3        1 MOL1         0.0145
      24    H16     18.936272   18.756895   27.845455 H          1 MOL1         0.0921
      25    H17     18.832655   20.509159   27.608299 H          1 MOL1         0.0921
      26    N1      20.756012   19.686265   27.256515 N.4        1 MOL1        -0.5969
      27    H18     21.106170   20.462535   26.685639 H          1 MOL1         0.3603
      28    H19     21.207253   18.831197   26.916814 H          1 MOL1         0.3603
      29    H20     21.090274   19.842917   28.213750 H          1 MOL1         0.3603
@<TRIPOS>BOND
    1     1     2    1
    2     1     3    1
    3     1     4    1
    4     1     5    1
    5     5     6    1
    6     5     7    1
    7     5     8    1
    8     8     9    1
    9     8    10    1
   10     8    11    1
   11    11    12    1
   12    11    13    1
   13    11    14    1
   14    14    15    1
   15    14    16    1
   16    14    17    1
   17    17    18    1
   18    17    19    1
   19    17    20    1
   20    20    21    1
   21    20    22    1
   22    20    23    1
   23    23    24    1
   24    23    25    1
   25    23    26    1
   26    26    27    1
   27    26    28    1
   28    26    29    1
@<TRIPOS>SUBSTRUCTURE
       1 MOL1            1 RESIDUE      1      MOL     
@<SCITEGIC>MOL_PROPERTY
VM2 Rank
SciTegic.value.IntegerValue
174

@<SCITEGIC>MOL_PROPERTY
Conf_Id
SciTegic.value.IntegerValue
2444

@<SCITEGIC>MOL_PROPERTY
Probability
SciTegic.value.DoubleValue
0.09

@<SCITEGIC>MOL_PROPERTY
Sum Probability
SciTegic.value.DoubleValue
97.34

@<SCITEGIC>MOL_PROPERTY
Delta G
SciTegic.value.DoubleValue
2.422

@<SCITEGIC>MOL_PROPERTY
G
SciTegic.value.DoubleValue
60.570

@<SCITEGIC>MOL_PROPERTY
E
SciTegic.value.DoubleValue
22.750

@<SCITEGIC>MOL_PROPERTY
-TS
SciTegic.value.DoubleValue
37.820

@<SCITEGIC>MOL_PROPERTY
U+W
SciTegic.value.DoubleValue
-1.395

@<SCITEGIC>MOL_PROPERTY
U
SciTegic.value.DoubleValue
50.985

@<SCITEGIC>MOL_PROPERTY
W
SciTegic.value.DoubleValue
-52.380

@<SCITEGIC>MOL_PROPERTY
W(PB)
SciTegic.value.DoubleValue
-54.815

@<SCITEGIC>MOL_PROPERTY
W(SA)
SciTegic.value.DoubleValue
2.435

@<SCITEGIC>MOL_PROPERTY
Valence
SciTegic.value.DoubleValue
4.232

@<SCITEGIC>MOL_PROPERTY
Coulomb
SciTegic.value.DoubleValue
45.770

@<SCITEGIC>MOL_PROPERTY
VdW
SciTegic.value.DoubleValue
0.982

@<SCITEGIC>MOL_PROPERTY
VdW6
SciTegic.value.DoubleValue
-9.806

@<SCITEGIC>MOL_PROPERTY
VdW12
SciTegic.value.DoubleValue
10.788

@<SCITEGIC>MOL_PROPERTY
Bond
SciTegic.value.DoubleValue
0.294

@<SCITEGIC>MOL_PROPERTY
Angle
SciTegic.value.DoubleValue
1.395

@<SCITEGIC>MOL_PROPERTY
Pdih
SciTegic.value.DoubleValue
2.544

@<SCITEGIC>MOL_PROPERTY
Idih
SciTegic.value.DoubleValue
0.000

@<SCITEGIC>MOL_PROPERTY
Tether
SciTegic.value.DoubleValue
0.000

@<TRIPOS>MOLECULE
guest-3_vm2.mol2 : vm2 ligand conformer 175
          29          28           1
SMALL
USER_CHARGES
 
@<TRIPOS>ATOM
       1    C1      19.496218   18.646365   19.804260 C.3        1 MOL1        -0.2427
       2    H1      18.698204   19.397843   19.844691 H          1 MOL1         0.0958
       3    H2      20.434554   19.153643   19.545019 H          1 MOL1         0.0958
       4    H3      19.253656   17.952355   18.989134 H          1 MOL1         0.0958
       5    C2      19.628142   17.883454   21.141938 C.3        1 MOL1        -0.1412
       6    H4      20.345786   17.061765   21.009436 H          1 MOL1         0.0947
       7    H5      18.667635   17.414377   21.397031 H          1 MOL1         0.0947
       8    C3      20.105018   18.772340   22.315941 C.3        1 MOL1        -0.1437
       9    H6      20.296820   18.119951   23.177360 H          1 MOL1         0.0947
      10    H7      21.066187   19.237509   22.057721 H          1 MOL1         0.0947
      11    C4      19.083766   19.867734   22.714612 C.3        1 MOL1        -0.1437
      12    H8      18.121853   19.403937   22.969274 H          1 MOL1         0.0947
      13    H9      18.887060   20.514815   21.850312 H          1 MOL1         0.0947
      14    C5      19.563808   20.769636   23.881475 C.3        1 MOL1        -0.1437
      15    H10     20.465491   21.311588   23.564589 H          1 MOL1         0.0947
      16    H11     18.801610   21.538992   24.066699 H          1 MOL1         0.0947
      17    C6      19.866403   20.034631   25.212895 C.3        1 MOL1        -0.1437
      18    H12     20.182869   20.780877   25.954781 H          1 MOL1         0.0947
      19    H13     20.722704   19.361792   25.078391 H          1 MOL1         0.0947
      20    C7      18.654260   19.251009   25.774670 C.3        1 MOL1        -0.1477
      21    H14     17.784294   19.918594   25.831165 H          1 MOL1         0.0947
      22    H15     18.380321   18.432146   25.097337 H          1 MOL1         0.0947
      23    C8      18.921155   18.675604   27.178565 C.3        1 MOL1         0.0145
      24    H16     18.010363   18.203511   27.556843 H          1 MOL1         0.0921
      25    H17     19.195742   19.483884   27.861678 H          1 MOL1         0.0921
      26    N1      20.025230   17.637227   27.210643 N.4        1 MOL1        -0.5969
      27    H18     19.813312   16.837899   26.604615 H          1 MOL1         0.3603
      28    H19     20.171545   17.266713   28.156095 H          1 MOL1         0.3603
      29    H20     20.920329   18.026592   26.898633 H          1 MOL1         0.3603
@<TRIPOS>BOND
    1     1     2    1
    2     1     3    1
    3     1     4    1
    4     1     5    1
    5     5     6    1
    6     5     7    1
    7     5     8    1
    8     8     9    1
    9     8    10    1
   10     8    11    1
   11    11    12    1
   12    11    13    1
   13    11    14    1
   14    14    15    1
   15    14    16    1
   16    14    17    1
   17    17    18    1
   18    17    19    1
   19    17    20    1
   20    20    21    1
   21    20    22    1
   22    20    23    1
   23    23    24    1
   24    23    25    1
   25    23    26    1
   26    26    27    1
   27    26    28    1
   28    26    29    1
@<TRIPOS>SUBSTRUCTURE
       1 MOL1            1 RESIDUE      1      MOL     
@<SCITEGIC>MOL_PROPERTY
VM2 Rank
SciTegic.value.IntegerValue
175

@<SCITEGIC>MOL_PROPERTY
Conf_Id
SciTegic.value.IntegerValue
2010

@<SCITEGIC>MOL_PROPERTY
Probability
SciTegic.value.DoubleValue
0.09

@<SCITEGIC>MOL_PROPERTY
Sum Probability
SciTegic.value.DoubleValue
97.43

@<SCITEGIC>MOL_PROPERTY
Delta G
SciTegic.value.DoubleValue
2.426

@<SCITEGIC>MOL_PROPERTY
G
SciTegic.value.DoubleValue
60.574

@<SCITEGIC>MOL_PROPERTY
E
SciTegic.value.DoubleValue
22.754

@<SCITEGIC>MOL_PROPERTY
-TS
SciTegic.value.DoubleValue
37.820

@<SCITEGIC>MOL_PROPERTY
U+W
SciTegic.value.DoubleValue
-1.391

@<SCITEGIC>MOL_PROPERTY
U
SciTegic.value.DoubleValue
50.985

@<SCITEGIC>MOL_PROPERTY
W
SciTegic.value.DoubleValue
-52.376

@<SCITEGIC>MOL_PROPERTY
W(PB)
SciTegic.value.DoubleValue
-54.819

@<SCITEGIC>MOL_PROPERTY
W(SA)
SciTegic.value.DoubleValue
2.443

@<SCITEGIC>MOL_PROPERTY
Valence
SciTegic.value.DoubleValue
4.233

@<SCITEGIC>MOL_PROPERTY
Coulomb
SciTegic.value.DoubleValue
45.770

@<SCITEGIC>MOL_PROPERTY
VdW
SciTegic.value.DoubleValue
0.982

@<SCITEGIC>MOL_PROPERTY
VdW6
SciTegic.value.DoubleValue
-9.806

@<SCITEGIC>MOL_PROPERTY
VdW12
SciTegic.value.DoubleValue
10.788

@<SCITEGIC>MOL_PROPERTY
Bond
SciTegic.value.DoubleValue
0.294

@<SCITEGIC>MOL_PROPERTY
Angle
SciTegic.value.DoubleValue
1.395

@<SCITEGIC>MOL_PROPERTY
Pdih
SciTegic.value.DoubleValue
2.544

@<SCITEGIC>MOL_PROPERTY
Idih
SciTegic.value.DoubleValue
0.000

@<SCITEGIC>MOL_PROPERTY
Tether
SciTegic.value.DoubleValue
0.000

@<TRIPOS>MOLECULE
guest-3_vm2.mol2 : vm2 ligand conformer 176
          29          28           1
SMALL
USER_CHARGES
 
@<TRIPOS>ATOM
       1    C1      21.183010   18.523490   21.115513 C.3        1 MOL1        -0.2427
       2    H1      21.199732   18.016599   22.088337 H          1 MOL1         0.0958
       3    H2      20.881665   17.794398   20.352260 H          1 MOL1         0.0958
       4    H3      22.209306   18.841248   20.890634 H          1 MOL1         0.0958
       5    C2      20.230077   19.739953   21.127826 C.3        1 MOL1        -0.1412
       6    H4      20.336421   20.282085   20.177879 H          1 MOL1         0.0947
       7    H5      20.538884   20.444843   21.911243 H          1 MOL1         0.0947
       8    C3      18.739969   19.354213   21.310781 C.3        1 MOL1        -0.1437
       9    H6      18.131861   20.268804   21.282160 H          1 MOL1         0.0947
      10    H7      18.420698   18.754017   20.447699 H          1 MOL1         0.0947
      11    C4      18.411568   18.571413   22.608345 C.3        1 MOL1        -0.1437
      12    H8      18.924955   17.600848   22.599780 H          1 MOL1         0.0947
      13    H9      17.336640   18.344236   22.611165 H          1 MOL1         0.0947
      14    C5      18.767756   19.341232   23.902378 C.3        1 MOL1        -0.1437
      15    H10     19.850139   19.516523   23.937842 H          1 MOL1         0.0947
      16    H11     18.283298   20.327176   23.887270 H          1 MOL1         0.0947
      17    C6      18.326317   18.567786   25.167773 C.3        1 MOL1        -0.1437
      18    H12     18.821603   17.588011   25.195508 H          1 MOL1         0.0947
      19    H13     17.248510   18.363022   25.107300 H          1 MOL1         0.0947
      20    C7      18.607657   19.338268   26.482132 C.3        1 MOL1        -0.1477
      21    H14     18.037567   20.276797   26.480356 H          1 MOL1         0.0947
      22    H15     18.232334   18.753786   27.332601 H          1 MOL1         0.0947
      23    C8      20.097107   19.664826   26.712822 C.3        1 MOL1         0.0145
      24    H16     20.205674   20.225668   27.645100 H          1 MOL1         0.0921
      25    H17     20.470092   20.288490   25.896407 H          1 MOL1         0.0921
      26    N1      20.980540   18.436819   26.807431 N.4        1 MOL1        -0.5969
      27    H18     20.696662   17.823338   27.578299 H          1 MOL1         0.3603
      28    H19     21.962971   18.685288   26.967160 H          1 MOL1         0.3603
      29    H20     20.945046   17.880498   25.947504 H          1 MOL1         0.3603
@<TRIPOS>BOND
    1     1     2    1
    2     1     3    1
    3     1     4    1
    4     1     5    1
    5     5     6    1
    6     5     7    1
    7     5     8    1
    8     8     9    1
    9     8    10    1
   10     8    11    1
   11    11    12    1
   12    11    13    1
   13    11    14    1
   14    14    15    1
   15    14    16    1
   16    14    17    1
   17    17    18    1
   18    17    19    1
   19    17    20    1
   20    20    21    1
   21    20    22    1
   22    20    23    1
   23    23    24    1
   24    23    25    1
   25    23    26    1
   26    26    27    1
   27    26    28    1
   28    26    29    1
@<TRIPOS>SUBSTRUCTURE
       1 MOL1            1 RESIDUE      1      MOL     
@<SCITEGIC>MOL_PROPERTY
VM2 Rank
SciTegic.value.IntegerValue
176

@<SCITEGIC>MOL_PROPERTY
Conf_Id
SciTegic.value.IntegerValue
1689

@<SCITEGIC>MOL_PROPERTY
Probability
SciTegic.value.DoubleValue
0.09

@<SCITEGIC>MOL_PROPERTY
Sum Probability
SciTegic.value.DoubleValue
97.52

@<SCITEGIC>MOL_PROPERTY
Delta G
SciTegic.value.DoubleValue
2.444

@<SCITEGIC>MOL_PROPERTY
G
SciTegic.value.DoubleValue
60.592

@<SCITEGIC>MOL_PROPERTY
E
SciTegic.value.DoubleValue
22.682

@<SCITEGIC>MOL_PROPERTY
-TS
SciTegic.value.DoubleValue
37.910

@<SCITEGIC>MOL_PROPERTY
U+W
SciTegic.value.DoubleValue
-1.463

@<SCITEGIC>MOL_PROPERTY
U
SciTegic.value.DoubleValue
50.684

@<SCITEGIC>MOL_PROPERTY
W
SciTegic.value.DoubleValue
-52.146

@<SCITEGIC>MOL_PROPERTY
W(PB)
SciTegic.value.DoubleValue
-54.567

@<SCITEGIC>MOL_PROPERTY
W(SA)
SciTegic.value.DoubleValue
2.421

@<SCITEGIC>MOL_PROPERTY
Valence
SciTegic.value.DoubleValue
3.913

@<SCITEGIC>MOL_PROPERTY
Coulomb
SciTegic.value.DoubleValue
45.942

@<SCITEGIC>MOL_PROPERTY
VdW
SciTegic.value.DoubleValue
0.829

@<SCITEGIC>MOL_PROPERTY
VdW6
SciTegic.value.DoubleValue
-9.954

@<SCITEGIC>MOL_PROPERTY
VdW12
SciTegic.value.DoubleValue
10.782

@<SCITEGIC>MOL_PROPERTY
Bond
SciTegic.value.DoubleValue
0.272

@<SCITEGIC>MOL_PROPERTY
Angle
SciTegic.value.DoubleValue
1.273

@<SCITEGIC>MOL_PROPERTY
Pdih
SciTegic.value.DoubleValue
2.367

@<SCITEGIC>MOL_PROPERTY
Idih
SciTegic.value.DoubleValue
0.000

@<SCITEGIC>MOL_PROPERTY
Tether
SciTegic.value.DoubleValue
0.000

@<TRIPOS>MOLECULE
guest-3_vm2.mol2 : vm2 ligand conformer 177
          29          28           1
SMALL
USER_CHARGES
 
@<TRIPOS>ATOM
       1    C1      20.649787   18.409731   20.380995 C.3        1 MOL1        -0.2427
       2    H1      20.012121   18.168053   19.520823 H          1 MOL1         0.0958
       3    H2      21.677205   18.531517   20.014413 H          1 MOL1         0.0958
       4    H3      20.642101   17.552830   21.066033 H          1 MOL1         0.0958
       5    C2      20.168722   19.699566   21.082996 C.3        1 MOL1        -0.1412
       6    H4      20.295806   20.545956   20.393790 H          1 MOL1         0.0947
       7    H5      20.813089   19.914599   21.945897 H          1 MOL1         0.0947
       8    C3      18.684518   19.640739   21.524832 C.3        1 MOL1        -0.1437
       9    H6      18.403125   20.608521   21.960364 H          1 MOL1         0.0947
      10    H7      18.054175   19.526793   20.632268 H          1 MOL1         0.0947
      11    C4      18.336799   18.503691   22.523268 C.3        1 MOL1        -0.1437
      12    H8      18.445772   17.534484   22.018629 H          1 MOL1         0.0947
      13    H9      17.272707   18.580458   22.785492 H          1 MOL1         0.0947
      14    C5      19.174436   18.484953   23.827981 C.3        1 MOL1        -0.1437
      15    H10     18.852807   17.620384   24.423224 H          1 MOL1         0.0947
      16    H11     20.232342   18.311612   23.590801 H          1 MOL1         0.0947
      17    C6      19.031018   19.776311   24.672503 C.3        1 MOL1        -0.1437
      18    H12     17.971264   19.953640   24.902170 H          1 MOL1         0.0947
      19    H13     19.371893   20.639422   24.086164 H          1 MOL1         0.0947
      20    C7      19.844381   19.733887   25.987445 C.3        1 MOL1        -0.1477
      21    H14     20.905603   19.566878   25.759642 H          1 MOL1         0.0947
      22    H15     19.778537   20.714210   26.477906 H          1 MOL1         0.0947
      23    C8      19.346466   18.650803   26.962685 C.3        1 MOL1         0.0145
      24    H16     19.450719   17.663614   26.505430 H          1 MOL1         0.0921
      25    H17     18.289612   18.816682   27.188295 H          1 MOL1         0.0921
      26    N1      20.107873   18.638319   28.272295 N.4        1 MOL1        -0.5969
      27    H18     21.107752   18.460289   28.130853 H          1 MOL1         0.3603
      28    H19     19.761426   17.910899   28.907506 H          1 MOL1         0.3603
      29    H20     20.027472   19.531742   28.769093 H          1 MOL1         0.3603
@<TRIPOS>BOND
    1     1     2    1
    2     1     3    1
    3     1     4    1
    4     1     5    1
    5     5     6    1
    6     5     7    1
    7     5     8    1
    8     8     9    1
    9     8    10    1
   10     8    11    1
   11    11    12    1
   12    11    13    1
   13    11    14    1
   14    14    15    1
   15    14    16    1
   16    14    17    1
   17    17    18    1
   18    17    19    1
   19    17    20    1
   20    20    21    1
   21    20    22    1
   22    20    23    1
   23    23    24    1
   24    23    25    1
   25    23    26    1
   26    26    27    1
   27    26    28    1
   28    26    29    1
@<TRIPOS>SUBSTRUCTURE
       1 MOL1            1 RESIDUE      1      MOL     
@<SCITEGIC>MOL_PROPERTY
VM2 Rank
SciTegic.value.IntegerValue
177

@<SCITEGIC>MOL_PROPERTY
Conf_Id
SciTegic.value.IntegerValue
602

@<SCITEGIC>MOL_PROPERTY
Probability
SciTegic.value.DoubleValue
0.08

@<SCITEGIC>MOL_PROPERTY
Sum Probability
SciTegic.value.DoubleValue
97.60

@<SCITEGIC>MOL_PROPERTY
Delta G
SciTegic.value.DoubleValue
2.507

@<SCITEGIC>MOL_PROPERTY
G
SciTegic.value.DoubleValue
60.655

@<SCITEGIC>MOL_PROPERTY
E
SciTegic.value.DoubleValue
22.607

@<SCITEGIC>MOL_PROPERTY
-TS
SciTegic.value.DoubleValue
38.048

@<SCITEGIC>MOL_PROPERTY
U+W
SciTegic.value.DoubleValue
-1.537

@<SCITEGIC>MOL_PROPERTY
U
SciTegic.value.DoubleValue
50.223

@<SCITEGIC>MOL_PROPERTY
W
SciTegic.value.DoubleValue
-51.761

@<SCITEGIC>MOL_PROPERTY
W(PB)
SciTegic.value.DoubleValue
-54.216

@<SCITEGIC>MOL_PROPERTY
W(SA)
SciTegic.value.DoubleValue
2.455

@<SCITEGIC>MOL_PROPERTY
Valence
SciTegic.value.DoubleValue
4.334

@<SCITEGIC>MOL_PROPERTY
Coulomb
SciTegic.value.DoubleValue
45.055

@<SCITEGIC>MOL_PROPERTY
VdW
SciTegic.value.DoubleValue
0.835

@<SCITEGIC>MOL_PROPERTY
VdW6
SciTegic.value.DoubleValue
-10.074

@<SCITEGIC>MOL_PROPERTY
VdW12
SciTegic.value.DoubleValue
10.909

@<SCITEGIC>MOL_PROPERTY
Bond
SciTegic.value.DoubleValue
0.297

@<SCITEGIC>MOL_PROPERTY
Angle
SciTegic.value.DoubleValue
1.541

@<SCITEGIC>MOL_PROPERTY
Pdih
SciTegic.value.DoubleValue
2.496

@<SCITEGIC>MOL_PROPERTY
Idih
SciTegic.value.DoubleValue
0.000

@<SCITEGIC>MOL_PROPERTY
Tether
SciTegic.value.DoubleValue
0.000

@<TRIPOS>MOLECULE
guest-3_vm2.mol2 : vm2 ligand conformer 178
          29          28           1
SMALL
USER_CHARGES
 
@<TRIPOS>ATOM
       1    C1      20.847622   18.965190   20.393232 C.3        1 MOL1        -0.2427
       2    H1      20.518402   19.589249   19.552349 H          1 MOL1         0.0958
       3    H2      21.373625   19.606160   21.111629 H          1 MOL1         0.0958
       4    H3      21.571858   18.236054   20.007687 H          1 MOL1         0.0958
       5    C2      19.649781   18.243263   21.050424 C.3        1 MOL1        -0.1412
       6    H4      20.000992   17.635388   21.894927 H          1 MOL1         0.0947
       7    H5      19.222928   17.535214   20.326550 H          1 MOL1         0.0947
       8    C3      18.530840   19.209429   21.515219 C.3        1 MOL1        -0.1437
       9    H6      18.127090   19.731449   20.636888 H          1 MOL1         0.0947
      10    H7      17.694951   18.621091   21.915991 H          1 MOL1         0.0947
      11    C4      18.966098   20.269552   22.562763 C.3        1 MOL1        -0.1437
      12    H8      18.089465   20.872365   22.836767 H          1 MOL1         0.0947
      13    H9      19.670289   20.970718   22.095455 H          1 MOL1         0.0947
      14    C5      19.608490   19.702839   23.855215 C.3        1 MOL1        -0.1437
      15    H10     20.541028   19.177686   23.610157 H          1 MOL1         0.0947
      16    H11     19.897400   20.551604   24.488752 H          1 MOL1         0.0947
      17    C6      18.669185   18.760660   24.649820 C.3        1 MOL1        -0.1437
      18    H12     18.396049   17.900470   24.024984 H          1 MOL1         0.0947
      19    H13     17.732769   19.284167   24.887174 H          1 MOL1         0.0947
      20    C7      19.307552   18.227307   25.953835 C.3        1 MOL1        -0.1477
      21    H14     18.629963   17.490825   26.405928 H          1 MOL1         0.0947
      22    H15     20.238562   17.694816   25.717924 H          1 MOL1         0.0947
      23    C8      19.592526   19.341601   26.978149 C.3        1 MOL1         0.0145
      24    H16     18.665625   19.872226   27.211914 H          1 MOL1         0.0921
      25    H17     20.303672   20.057858   26.558932 H          1 MOL1         0.0921
      26    N1      20.171905   18.818160   28.276342 N.4        1 MOL1        -0.5969
      27    H18     19.537949   18.157824   28.738437 H          1 MOL1         0.3603
      28    H19     20.354236   19.574935   28.944701 H          1 MOL1         0.3603
      29    H20     21.061159   18.329622   28.127957 H          1 MOL1         0.3603
@<TRIPOS>BOND
    1     1     2    1
    2     1     3    1
    3     1     4    1
    4     1     5    1
    5     5     6    1
    6     5     7    1
    7     5     8    1
    8     8     9    1
    9     8    10    1
   10     8    11    1
   11    11    12    1
   12    11    13    1
   13    11    14    1
   14    14    15    1
   15    14    16    1
   16    14    17    1
   17    17    18    1
   18    17    19    1
   19    17    20    1
   20    20    21    1
   21    20    22    1
   22    20    23    1
   23    23    24    1
   24    23    25    1
   25    23    26    1
   26    26    27    1
   27    26    28    1
   28    26    29    1
@<TRIPOS>SUBSTRUCTURE
       1 MOL1            1 RESIDUE      1      MOL     
@<SCITEGIC>MOL_PROPERTY
VM2 Rank
SciTegic.value.IntegerValue
178

@<SCITEGIC>MOL_PROPERTY
Conf_Id
SciTegic.value.IntegerValue
1178

@<SCITEGIC>MOL_PROPERTY
Probability
SciTegic.value.DoubleValue
0.08

@<SCITEGIC>MOL_PROPERTY
Sum Probability
SciTegic.value.DoubleValue
97.68

@<SCITEGIC>MOL_PROPERTY
Delta G
SciTegic.value.DoubleValue
2.530

@<SCITEGIC>MOL_PROPERTY
G
SciTegic.value.DoubleValue
60.678

@<SCITEGIC>MOL_PROPERTY
E
SciTegic.value.DoubleValue
22.631

@<SCITEGIC>MOL_PROPERTY
-TS
SciTegic.value.DoubleValue
38.048

@<SCITEGIC>MOL_PROPERTY
U+W
SciTegic.value.DoubleValue
-1.514

@<SCITEGIC>MOL_PROPERTY
U
SciTegic.value.DoubleValue
50.223

@<SCITEGIC>MOL_PROPERTY
W
SciTegic.value.DoubleValue
-51.737

@<SCITEGIC>MOL_PROPERTY
W(PB)
SciTegic.value.DoubleValue
-54.184

@<SCITEGIC>MOL_PROPERTY
W(SA)
SciTegic.value.DoubleValue
2.447

@<SCITEGIC>MOL_PROPERTY
Valence
SciTegic.value.DoubleValue
4.334

@<SCITEGIC>MOL_PROPERTY
Coulomb
SciTegic.value.DoubleValue
45.055

@<SCITEGIC>MOL_PROPERTY
VdW
SciTegic.value.DoubleValue
0.835

@<SCITEGIC>MOL_PROPERTY
VdW6
SciTegic.value.DoubleValue
-10.074

@<SCITEGIC>MOL_PROPERTY
VdW12
SciTegic.value.DoubleValue
10.909

@<SCITEGIC>MOL_PROPERTY
Bond
SciTegic.value.DoubleValue
0.297

@<SCITEGIC>MOL_PROPERTY
Angle
SciTegic.value.DoubleValue
1.541

@<SCITEGIC>MOL_PROPERTY
Pdih
SciTegic.value.DoubleValue
2.496

@<SCITEGIC>MOL_PROPERTY
Idih
SciTegic.value.DoubleValue
0.000

@<SCITEGIC>MOL_PROPERTY
Tether
SciTegic.value.DoubleValue
0.000

@<TRIPOS>MOLECULE
guest-3_vm2.mol2 : vm2 ligand conformer 179
          29          28           1
SMALL
USER_CHARGES
 
@<TRIPOS>ATOM
       1    C1      19.414234   18.476167   20.059370 C.3        1 MOL1        -0.2427
       2    H1      18.824561   18.572700   19.138612 H          1 MOL1         0.0958
       3    H2      20.392304   18.056820   19.790182 H          1 MOL1         0.0958
       4    H3      18.898144   17.757695   20.708375 H          1 MOL1         0.0958
       5    C2      19.570138   19.850233   20.748984 C.3        1 MOL1        -0.1412
       6    H4      18.581960   20.239453   21.027853 H          1 MOL1         0.0947
       7    H5      19.979363   20.565896   20.022363 H          1 MOL1         0.0947
       8    C3      20.503316   19.817318   21.986297 C.3        1 MOL1        -0.1437
       9    H6      21.517801   19.554866   21.656103 H          1 MOL1         0.0947
      10    H7      20.576041   20.831788   22.401794 H          1 MOL1         0.0947
      11    C4      20.081998   18.839961   23.114227 C.3        1 MOL1        -0.1437
      12    H8      20.842666   18.893365   23.903482 H          1 MOL1         0.0947
      13    H9      20.102495   17.807112   22.742523 H          1 MOL1         0.0947
      14    C5      18.689405   19.153149   23.717567 C.3        1 MOL1        -0.1437
      15    H10     18.670007   20.186535   24.088446 H          1 MOL1         0.0947
      16    H11     17.929743   19.099793   22.927172 H          1 MOL1         0.0947
      17    C6      18.267752   18.175543   24.845196 C.3        1 MOL1        -0.1437
      18    H12     18.199300   17.159201   24.433424 H          1 MOL1         0.0947
      19    H13     17.252353   18.436788   25.173998 H          1 MOL1         0.0947
      20    C7      19.201956   18.155868   26.080722 C.3        1 MOL1        -0.1477
      21    H14     18.787870   17.463392   26.825584 H          1 MOL1         0.0947
      22    H15     20.185154   17.755049   25.803612 H          1 MOL1         0.0947
      23    C8      19.369400   19.545041   26.723591 C.3        1 MOL1         0.0145
      24    H16     18.390364   19.938456   27.009977 H          1 MOL1         0.0921
      25    H17     19.820459   20.232656   26.003381 H          1 MOL1         0.0921
      26    N1      20.245802   19.524720   27.959048 N.4        1 MOL1        -0.5969
      27    H18     19.862139   18.915207   28.688931 H          1 MOL1         0.3603
      28    H19     20.344595   20.458988   28.371334 H          1 MOL1         0.3603
      29    H20     21.191664   19.188159   27.750723 H          1 MOL1         0.3603
@<TRIPOS>BOND
    1     1     2    1
    2     1     3    1
    3     1     4    1
    4     1     5    1
    5     5     6    1
    6     5     7    1
    7     5     8    1
    8     8     9    1
    9     8    10    1
   10     8    11    1
   11    11    12    1
   12    11    13    1
   13    11    14    1
   14    14    15    1
   15    14    16    1
   16    14    17    1
   17    17    18    1
   18    17    19    1
   19    17    20    1
   20    20    21    1
   21    20    22    1
   22    20    23    1
   23    23    24    1
   24    23    25    1
   25    23    26    1
   26    26    27    1
   27    26    28    1
   28    26    29    1
@<TRIPOS>SUBSTRUCTURE
       1 MOL1            1 RESIDUE      1      MOL     
@<SCITEGIC>MOL_PROPERTY
VM2 Rank
SciTegic.value.IntegerValue
179

@<SCITEGIC>MOL_PROPERTY
Conf_Id
SciTegic.value.IntegerValue
1346

@<SCITEGIC>MOL_PROPERTY
Probability
SciTegic.value.DoubleValue
0.08

@<SCITEGIC>MOL_PROPERTY
Sum Probability
SciTegic.value.DoubleValue
97.75

@<SCITEGIC>MOL_PROPERTY
Delta G
SciTegic.value.DoubleValue
2.540

@<SCITEGIC>MOL_PROPERTY
G
SciTegic.value.DoubleValue
60.688

@<SCITEGIC>MOL_PROPERTY
E
SciTegic.value.DoubleValue
22.763

@<SCITEGIC>MOL_PROPERTY
-TS
SciTegic.value.DoubleValue
37.925

@<SCITEGIC>MOL_PROPERTY
U+W
SciTegic.value.DoubleValue
-1.381

@<SCITEGIC>MOL_PROPERTY
U
SciTegic.value.DoubleValue
50.634

@<SCITEGIC>MOL_PROPERTY
W
SciTegic.value.DoubleValue
-52.016

@<SCITEGIC>MOL_PROPERTY
W(PB)
SciTegic.value.DoubleValue
-54.458

@<SCITEGIC>MOL_PROPERTY
W(SA)
SciTegic.value.DoubleValue
2.443

@<SCITEGIC>MOL_PROPERTY
Valence
SciTegic.value.DoubleValue
4.369

@<SCITEGIC>MOL_PROPERTY
Coulomb
SciTegic.value.DoubleValue
45.368

@<SCITEGIC>MOL_PROPERTY
VdW
SciTegic.value.DoubleValue
0.896

@<SCITEGIC>MOL_PROPERTY
VdW6
SciTegic.value.DoubleValue
-10.051

@<SCITEGIC>MOL_PROPERTY
VdW12
SciTegic.value.DoubleValue
10.947

@<SCITEGIC>MOL_PROPERTY
Bond
SciTegic.value.DoubleValue
0.301

@<SCITEGIC>MOL_PROPERTY
Angle
SciTegic.value.DoubleValue
1.640

@<SCITEGIC>MOL_PROPERTY
Pdih
SciTegic.value.DoubleValue
2.428

@<SCITEGIC>MOL_PROPERTY
Idih
SciTegic.value.DoubleValue
0.000

@<SCITEGIC>MOL_PROPERTY
Tether
SciTegic.value.DoubleValue
0.000

@<TRIPOS>MOLECULE
guest-3_vm2.mol2 : vm2 ligand conformer 180
          29          28           1
SMALL
USER_CHARGES
 
@<TRIPOS>ATOM
       1    C1      19.377393   19.270824   19.947516 C.3        1 MOL1        -0.2427
       2    H1      18.615811   19.563489   19.213254 H          1 MOL1         0.0958
       3    H2      19.935412   20.174232   20.223284 H          1 MOL1         0.0958
       4    H3      20.069672   18.575604   19.455248 H          1 MOL1         0.0958
       5    C2      18.716622   18.615477   21.181102 C.3        1 MOL1        -0.1412
       6    H4      18.081395   17.785122   20.842717 H          1 MOL1         0.0947
       7    H5      18.041451   19.333973   21.664595 H          1 MOL1         0.0947
       8    C3      19.740226   18.067699   22.207675 C.3        1 MOL1        -0.1437
       9    H6      19.197423   17.563441   23.018030 H          1 MOL1         0.0947
      10    H7      20.341884   17.285582   21.724772 H          1 MOL1         0.0947
      11    C4      20.699402   19.128290   22.811638 C.3        1 MOL1        -0.1437
      12    H8      21.350811   19.519819   22.019200 H          1 MOL1         0.0947
      13    H9      21.375932   18.631060   23.519056 H          1 MOL1         0.0947
      14    C5      20.002482   20.321505   23.518988 C.3        1 MOL1        -0.1437
      15    H10     20.775222   20.990556   23.921720 H          1 MOL1         0.0947
      16    H11     19.457644   20.916387   22.773957 H          1 MOL1         0.0947
      17    C6      19.028729   19.934731   24.661806 C.3        1 MOL1        -0.1437
      18    H12     18.194236   19.344270   24.260938 H          1 MOL1         0.0947
      19    H13     18.582413   20.855267   25.062861 H          1 MOL1         0.0947
      20    C7      19.707886   19.162318   25.816559 C.3        1 MOL1        -0.1477
      21    H14     20.098326   18.204188   25.451032 H          1 MOL1         0.0947
      22    H15     20.563167   19.738537   26.193727 H          1 MOL1         0.0947
      23    C8      18.722334   18.895949   26.967619 C.3        1 MOL1         0.0145
      24    H16     17.876671   18.308656   26.599701 H          1 MOL1         0.0921
      25    H17     18.340705   19.845393   27.352764 H          1 MOL1         0.0921
      26    N1      19.348926   18.141206   28.122096 N.4        1 MOL1        -0.5969
      27    H18     18.675743   17.974654   28.878252 H          1 MOL1         0.3603
      28    H19     20.136585   18.654820   28.531098 H          1 MOL1         0.3603
      29    H20     19.704364   17.224484   27.831053 H          1 MOL1         0.3603
@<TRIPOS>BOND
    1     1     2    1
    2     1     3    1
    3     1     4    1
    4     1     5    1
    5     5     6    1
    6     5     7    1
    7     5     8    1
    8     8     9    1
    9     8    10    1
   10     8    11    1
   11    11    12    1
   12    11    13    1
   13    11    14    1
   14    14    15    1
   15    14    16    1
   16    14    17    1
   17    17    18    1
   18    17    19    1
   19    17    20    1
   20    20    21    1
   21    20    22    1
   22    20    23    1
   23    23    24    1
   24    23    25    1
   25    23    26    1
   26    26    27    1
   27    26    28    1
   28    26    29    1
@<TRIPOS>SUBSTRUCTURE
       1 MOL1            1 RESIDUE      1      MOL     
@<SCITEGIC>MOL_PROPERTY
VM2 Rank
SciTegic.value.IntegerValue
180

@<SCITEGIC>MOL_PROPERTY
Conf_Id
SciTegic.value.IntegerValue
90

@<SCITEGIC>MOL_PROPERTY
Probability
SciTegic.value.DoubleValue
0.07

@<SCITEGIC>MOL_PROPERTY
Sum Probability
SciTegic.value.DoubleValue
97.83

@<SCITEGIC>MOL_PROPERTY
Delta G
SciTegic.value.DoubleValue
2.559

@<SCITEGIC>MOL_PROPERTY
G
SciTegic.value.DoubleValue
60.707

@<SCITEGIC>MOL_PROPERTY
E
SciTegic.value.DoubleValue
22.445

@<SCITEGIC>MOL_PROPERTY
-TS
SciTegic.value.DoubleValue
38.262

@<SCITEGIC>MOL_PROPERTY
U+W
SciTegic.value.DoubleValue
-1.700

@<SCITEGIC>MOL_PROPERTY
U
SciTegic.value.DoubleValue
50.310

@<SCITEGIC>MOL_PROPERTY
W
SciTegic.value.DoubleValue
-52.010

@<SCITEGIC>MOL_PROPERTY
W(PB)
SciTegic.value.DoubleValue
-54.452

@<SCITEGIC>MOL_PROPERTY
W(SA)
SciTegic.value.DoubleValue
2.443

@<SCITEGIC>MOL_PROPERTY
Valence
SciTegic.value.DoubleValue
4.444

@<SCITEGIC>MOL_PROPERTY
Coulomb
SciTegic.value.DoubleValue
45.193

@<SCITEGIC>MOL_PROPERTY
VdW
SciTegic.value.DoubleValue
0.673

@<SCITEGIC>MOL_PROPERTY
VdW6
SciTegic.value.DoubleValue
-10.458

@<SCITEGIC>MOL_PROPERTY
VdW12
SciTegic.value.DoubleValue
11.131

@<SCITEGIC>MOL_PROPERTY
Bond
SciTegic.value.DoubleValue
0.312

@<SCITEGIC>MOL_PROPERTY
Angle
SciTegic.value.DoubleValue
1.703

@<SCITEGIC>MOL_PROPERTY
Pdih
SciTegic.value.DoubleValue
2.429

@<SCITEGIC>MOL_PROPERTY
Idih
SciTegic.value.DoubleValue
0.000

@<SCITEGIC>MOL_PROPERTY
Tether
SciTegic.value.DoubleValue
0.000

@<TRIPOS>MOLECULE
guest-3_vm2.mol2 : vm2 ligand conformer 181
          29          28           1
SMALL
USER_CHARGES
 
@<TRIPOS>ATOM
       1    C1      19.323691   19.119318   19.943968 C.3        1 MOL1        -0.2427
       2    H1      20.306253   19.240666   19.469882 H          1 MOL1         0.0958
       3    H2      19.182767   18.056387   20.176129 H          1 MOL1         0.0958
       4    H3      18.558582   19.401892   19.209420 H          1 MOL1         0.0958
       5    C2      19.207176   19.995462   21.211498 C.3        1 MOL1        -0.1412
       6    H4      18.223322   19.845639   21.675655 H          1 MOL1         0.0947
       7    H5      19.243005   21.052956   20.914970 H          1 MOL1         0.0947
       8    C3      20.332373   19.733756   22.244514 C.3        1 MOL1        -0.1437
       9    H6      21.299327   19.979251   21.784479 H          1 MOL1         0.0947
      10    H7      20.218004   20.435037   23.081599 H          1 MOL1         0.0947
      11    C4      20.398878   18.283024   22.792777 C.3        1 MOL1        -0.1437
      12    H8      21.227408   18.213675   23.509782 H          1 MOL1         0.0947
      13    H9      20.668407   17.599891   21.976523 H          1 MOL1         0.0947
      14    C5      19.095493   17.770202   23.462112 C.3        1 MOL1        -0.1437
      15    H10     18.307998   17.682471   22.701878 H          1 MOL1         0.0947
      16    H11     19.267145   16.748330   23.827167 H          1 MOL1         0.0947
      17    C6      18.568107   18.639048   24.632919 C.3        1 MOL1        -0.1437
      18    H12     17.635340   18.191642   25.003332 H          1 MOL1         0.0947
      19    H13     18.299173   19.639002   24.267565 H          1 MOL1         0.0947
      20    C7      19.565933   18.763039   25.807780 C.3        1 MOL1        -0.1477
      21    H14     19.860408   17.761924   26.149604 H          1 MOL1         0.0947
      22    H15     20.478529   19.273544   25.475179 H          1 MOL1         0.0947
      23    C8      18.953260   19.545485   26.982352 C.3        1 MOL1         0.0145
      24    H16     18.052598   19.035463   27.334643 H          1 MOL1         0.0921
      25    H17     18.673271   20.548817   26.650156 H          1 MOL1         0.0921
      26    N1      19.899089   19.688666   28.157078 N.4        1 MOL1        -0.5969
      27    H18     20.180017   18.777371   28.534055 H          1 MOL1         0.3603
      28    H19     19.471318   20.212352   28.928733 H          1 MOL1         0.3603
      29    H20     20.757442   20.186130   27.897888 H          1 MOL1         0.3603
@<TRIPOS>BOND
    1     1     2    1
    2     1     3    1
    3     1     4    1
    4     1     5    1
    5     5     6    1
    6     5     7    1
    7     5     8    1
    8     8     9    1
    9     8    10    1
   10     8    11    1
   11    11    12    1
   12    11    13    1
   13    11    14    1
   14    14    15    1
   15    14    16    1
   16    14    17    1
   17    17    18    1
   18    17    19    1
   19    17    20    1
   20    20    21    1
   21    20    22    1
   22    20    23    1
   23    23    24    1
   24    23    25    1
   25    23    26    1
   26    26    27    1
   27    26    28    1
   28    26    29    1
@<TRIPOS>SUBSTRUCTURE
       1 MOL1            1 RESIDUE      1      MOL     
@<SCITEGIC>MOL_PROPERTY
VM2 Rank
SciTegic.value.IntegerValue
181

@<SCITEGIC>MOL_PROPERTY
Conf_Id
SciTegic.value.IntegerValue
468

@<SCITEGIC>MOL_PROPERTY
Probability
SciTegic.value.DoubleValue
0.07

@<SCITEGIC>MOL_PROPERTY
Sum Probability
SciTegic.value.DoubleValue
97.90

@<SCITEGIC>MOL_PROPERTY
Delta G
SciTegic.value.DoubleValue
2.576

@<SCITEGIC>MOL_PROPERTY
G
SciTegic.value.DoubleValue
60.724

@<SCITEGIC>MOL_PROPERTY
E
SciTegic.value.DoubleValue
22.462

@<SCITEGIC>MOL_PROPERTY
-TS
SciTegic.value.DoubleValue
38.262

@<SCITEGIC>MOL_PROPERTY
U+W
SciTegic.value.DoubleValue
-1.682

@<SCITEGIC>MOL_PROPERTY
U
SciTegic.value.DoubleValue
50.309

@<SCITEGIC>MOL_PROPERTY
W
SciTegic.value.DoubleValue
-51.991

@<SCITEGIC>MOL_PROPERTY
W(PB)
SciTegic.value.DoubleValue
-54.442

@<SCITEGIC>MOL_PROPERTY
W(SA)
SciTegic.value.DoubleValue
2.451

@<SCITEGIC>MOL_PROPERTY
Valence
SciTegic.value.DoubleValue
4.444

@<SCITEGIC>MOL_PROPERTY
Coulomb
SciTegic.value.DoubleValue
45.192

@<SCITEGIC>MOL_PROPERTY
VdW
SciTegic.value.DoubleValue
0.673

@<SCITEGIC>MOL_PROPERTY
VdW6
SciTegic.value.DoubleValue
-10.457

@<SCITEGIC>MOL_PROPERTY
VdW12
SciTegic.value.DoubleValue
11.130

@<SCITEGIC>MOL_PROPERTY
Bond
SciTegic.value.DoubleValue
0.312

@<SCITEGIC>MOL_PROPERTY
Angle
SciTegic.value.DoubleValue
1.703

@<SCITEGIC>MOL_PROPERTY
Pdih
SciTegic.value.DoubleValue
2.429

@<SCITEGIC>MOL_PROPERTY
Idih
SciTegic.value.DoubleValue
0.000

@<SCITEGIC>MOL_PROPERTY
Tether
SciTegic.value.DoubleValue
0.000

@<TRIPOS>MOLECULE
guest-3_vm2.mol2 : vm2 ligand conformer 182
          29          28           1
SMALL
USER_CHARGES
 
@<TRIPOS>ATOM
       1    C1      21.393218   19.025562   20.801408 C.3        1 MOL1        -0.2427
       2    H1      21.032016   18.919176   19.770179 H          1 MOL1         0.0958
       3    H2      22.261839   19.696594   20.786417 H          1 MOL1         0.0958
       4    H3      21.733473   18.040980   21.147854 H          1 MOL1         0.0958
       5    C2      20.287993   19.585428   21.721459 C.3        1 MOL1        -0.1412
       6    H4      19.988939   20.582053   21.367989 H          1 MOL1         0.0947
       7    H5      20.697872   19.715349   22.731330 H          1 MOL1         0.0947
       8    C3      19.053583   18.654267   21.761508 C.3        1 MOL1        -0.1437
       9    H6      18.701143   18.486421   20.734479 H          1 MOL1         0.0947
      10    H7      19.344350   17.667052   22.143891 H          1 MOL1         0.0947
      11    C4      17.874622   19.221087   22.594221 C.3        1 MOL1        -0.1437
      12    H8      17.031225   18.519492   22.534592 H          1 MOL1         0.0947
      13    H9      17.524191   20.151579   22.126768 H          1 MOL1         0.0947
      14    C5      18.190270   19.501574   24.086064 C.3        1 MOL1        -0.1437
      15    H10     18.949250   20.290485   24.160605 H          1 MOL1         0.0947
      16    H11     17.285896   19.907819   24.559524 H          1 MOL1         0.0947
      17    C6      18.644142   18.242816   24.867180 C.3        1 MOL1        -0.1437
      18    H12     19.590155   17.864540   24.459736 H          1 MOL1         0.0947
      19    H13     17.905146   17.443126   24.720810 H          1 MOL1         0.0947
      20    C7      18.802191   18.497897   26.386843 C.3        1 MOL1        -0.1477
      21    H14     17.832581   18.796747   26.806811 H          1 MOL1         0.0947
      22    H15     19.075897   17.559172   26.886507 H          1 MOL1         0.0947
      23    C8      19.846590   19.578016   26.733998 C.3        1 MOL1         0.0145
      24    H16     19.872037   19.723729   27.817319 H          1 MOL1         0.0921
      25    H17     19.565603   20.527081   26.270390 H          1 MOL1         0.0921
      26    N1      21.251392   19.231353   26.282320 N.4        1 MOL1        -0.5969
      27    H18     21.585008   18.363404   26.714395 H          1 MOL1         0.3603
      28    H19     21.923004   19.966728   26.528728 H          1 MOL1         0.3603
      29    H20     21.299756   19.103674   25.266914 H          1 MOL1         0.3603
@<TRIPOS>BOND
    1     1     2    1
    2     1     3    1
    3     1     4    1
    4     1     5    1
    5     5     6    1
    6     5     7    1
    7     5     8    1
    8     8     9    1
    9     8    10    1
   10     8    11    1
   11    11    12    1
   12    11    13    1
   13    11    14    1
   14    14    15    1
   15    14    16    1
   16    14    17    1
   17    17    18    1
   18    17    19    1
   19    17    20    1
   20    20    21    1
   21    20    22    1
   22    20    23    1
   23    23    24    1
   24    23    25    1
   25    23    26    1
   26    26    27    1
   27    26    28    1
   28    26    29    1
@<TRIPOS>SUBSTRUCTURE
       1 MOL1            1 RESIDUE      1      MOL     
@<SCITEGIC>MOL_PROPERTY
VM2 Rank
SciTegic.value.IntegerValue
182

@<SCITEGIC>MOL_PROPERTY
Conf_Id
SciTegic.value.IntegerValue
703

@<SCITEGIC>MOL_PROPERTY
Probability
SciTegic.value.DoubleValue
0.06

@<SCITEGIC>MOL_PROPERTY
Sum Probability
SciTegic.value.DoubleValue
97.96

@<SCITEGIC>MOL_PROPERTY
Delta G
SciTegic.value.DoubleValue
2.696

@<SCITEGIC>MOL_PROPERTY
G
SciTegic.value.DoubleValue
60.844

@<SCITEGIC>MOL_PROPERTY
E
SciTegic.value.DoubleValue
22.943

@<SCITEGIC>MOL_PROPERTY
-TS
SciTegic.value.DoubleValue
37.902

@<SCITEGIC>MOL_PROPERTY
U+W
SciTegic.value.DoubleValue
-1.202

@<SCITEGIC>MOL_PROPERTY
U
SciTegic.value.DoubleValue
51.249

@<SCITEGIC>MOL_PROPERTY
W
SciTegic.value.DoubleValue
-52.451

@<SCITEGIC>MOL_PROPERTY
W(PB)
SciTegic.value.DoubleValue
-54.849

@<SCITEGIC>MOL_PROPERTY
W(SA)
SciTegic.value.DoubleValue
2.398

@<SCITEGIC>MOL_PROPERTY
Valence
SciTegic.value.DoubleValue
3.914

@<SCITEGIC>MOL_PROPERTY
Coulomb
SciTegic.value.DoubleValue
46.712

@<SCITEGIC>MOL_PROPERTY
VdW
SciTegic.value.DoubleValue
0.624

@<SCITEGIC>MOL_PROPERTY
VdW6
SciTegic.value.DoubleValue
-10.190

@<SCITEGIC>MOL_PROPERTY
VdW12
SciTegic.value.DoubleValue
10.814

@<SCITEGIC>MOL_PROPERTY
Bond
SciTegic.value.DoubleValue
0.275

@<SCITEGIC>MOL_PROPERTY
Angle
SciTegic.value.DoubleValue
1.253

@<SCITEGIC>MOL_PROPERTY
Pdih
SciTegic.value.DoubleValue
2.386

@<SCITEGIC>MOL_PROPERTY
Idih
SciTegic.value.DoubleValue
0.000

@<SCITEGIC>MOL_PROPERTY
Tether
SciTegic.value.DoubleValue
0.000

@<TRIPOS>MOLECULE
guest-3_vm2.mol2 : vm2 ligand conformer 183
          29          28           1
SMALL
USER_CHARGES
 
@<TRIPOS>ATOM
       1    C1      20.380901   18.768813   19.875649 C.3        1 MOL1        -0.2427
       2    H1      20.169933   17.971945   19.150740 H          1 MOL1         0.0958
       3    H2      20.331805   19.728615   19.345019 H          1 MOL1         0.0958
       4    H3      21.407570   18.630954   20.239170 H          1 MOL1         0.0958
       5    C2      19.370169   18.726591   21.041134 C.3        1 MOL1        -0.1412
       6    H4      19.420467   17.740282   21.521186 H          1 MOL1         0.0947
       7    H5      18.351224   18.836886   20.644713 H          1 MOL1         0.0947
       8    C3      19.649715   19.839093   22.078565 C.3        1 MOL1        -0.1437
       9    H6      20.654327   19.707726   22.501361 H          1 MOL1         0.0947
      10    H7      19.662974   20.810176   21.564862 H          1 MOL1         0.0947
      11    C4      18.598379   19.903414   23.216335 C.3        1 MOL1        -0.1437
      12    H8      17.616573   20.131350   22.779220 H          1 MOL1         0.0947
      13    H9      18.833934   20.753929   23.869631 H          1 MOL1         0.0947
      14    C5      18.471838   18.615934   24.074354 C.3        1 MOL1        -0.1437
      15    H10     17.709736   18.782887   24.847088 H          1 MOL1         0.0947
      16    H11     18.077009   17.802010   23.452122 H          1 MOL1         0.0947
      17    C6      19.788187   18.139814   24.745175 C.3        1 MOL1        -0.1437
      18    H12     20.503963   17.834019   23.970652 H          1 MOL1         0.0947
      19    H13     19.579809   17.230071   25.323840 H          1 MOL1         0.0947
      20    C7      20.462024   19.188933   25.667761 C.3        1 MOL1        -0.1477
      21    H14     21.362107   18.749454   26.117537 H          1 MOL1         0.0947
      22    H15     20.810484   20.038810   25.067274 H          1 MOL1         0.0947
      23    C8      19.543906   19.716314   26.788308 C.3        1 MOL1         0.0145
      24    H16     18.659072   20.185029   26.349906 H          1 MOL1         0.0921
      25    H17     20.077355   20.472966   27.369957 H          1 MOL1         0.0921
      26    N1      19.078881   18.639094   27.747718 N.4        1 MOL1        -0.5969
      27    H18     18.547255   17.908674   27.263984 H          1 MOL1         0.3603
      28    H19     18.472441   19.018728   28.482847 H          1 MOL1         0.3603
      29    H20     19.867749   18.180920   28.215490 H          1 MOL1         0.3603
@<TRIPOS>BOND
    1     1     2    1
    2     1     3    1
    3     1     4    1
    4     1     5    1
    5     5     6    1
    6     5     7    1
    7     5     8    1
    8     8     9    1
    9     8    10    1
   10     8    11    1
   11    11    12    1
   12    11    13    1
   13    11    14    1
   14    14    15    1
   15    14    16    1
   16    14    17    1
   17    17    18    1
   18    17    19    1
   19    17    20    1
   20    20    21    1
   21    20    22    1
   22    20    23    1
   23    23    24    1
   24    23    25    1
   25    23    26    1
   26    26    27    1
   27    26    28    1
   28    26    29    1
@<TRIPOS>SUBSTRUCTURE
       1 MOL1            1 RESIDUE      1      MOL     
@<SCITEGIC>MOL_PROPERTY
VM2 Rank
SciTegic.value.IntegerValue
183

@<SCITEGIC>MOL_PROPERTY
Conf_Id
SciTegic.value.IntegerValue
2242

@<SCITEGIC>MOL_PROPERTY
Probability
SciTegic.value.DoubleValue
0.06

@<SCITEGIC>MOL_PROPERTY
Sum Probability
SciTegic.value.DoubleValue
98.01

@<SCITEGIC>MOL_PROPERTY
Delta G
SciTegic.value.DoubleValue
2.718

@<SCITEGIC>MOL_PROPERTY
G
SciTegic.value.DoubleValue
60.866

@<SCITEGIC>MOL_PROPERTY
E
SciTegic.value.DoubleValue
22.484

@<SCITEGIC>MOL_PROPERTY
-TS
SciTegic.value.DoubleValue
38.382

@<SCITEGIC>MOL_PROPERTY
U+W
SciTegic.value.DoubleValue
-1.661

@<SCITEGIC>MOL_PROPERTY
U
SciTegic.value.DoubleValue
50.551

@<SCITEGIC>MOL_PROPERTY
W
SciTegic.value.DoubleValue
-52.212

@<SCITEGIC>MOL_PROPERTY
W(PB)
SciTegic.value.DoubleValue
-54.633

@<SCITEGIC>MOL_PROPERTY
W(SA)
SciTegic.value.DoubleValue
2.420

@<SCITEGIC>MOL_PROPERTY
Valence
SciTegic.value.DoubleValue
4.345

@<SCITEGIC>MOL_PROPERTY
Coulomb
SciTegic.value.DoubleValue
45.600

@<SCITEGIC>MOL_PROPERTY
VdW
SciTegic.value.DoubleValue
0.606

@<SCITEGIC>MOL_PROPERTY
VdW6
SciTegic.value.DoubleValue
-11.173

@<SCITEGIC>MOL_PROPERTY
VdW12
SciTegic.value.DoubleValue
11.778

@<SCITEGIC>MOL_PROPERTY
Bond
SciTegic.value.DoubleValue
0.325

@<SCITEGIC>MOL_PROPERTY
Angle
SciTegic.value.DoubleValue
1.638

@<SCITEGIC>MOL_PROPERTY
Pdih
SciTegic.value.DoubleValue
2.382

@<SCITEGIC>MOL_PROPERTY
Idih
SciTegic.value.DoubleValue
0.000

@<SCITEGIC>MOL_PROPERTY
Tether
SciTegic.value.DoubleValue
0.000

@<TRIPOS>MOLECULE
guest-3_vm2.mol2 : vm2 ligand conformer 184
          29          28           1
SMALL
USER_CHARGES
 
@<TRIPOS>ATOM
       1    C1      20.410400   18.450210   19.349262 C.3        1 MOL1        -0.2427
       2    H1      20.031941   18.569269   18.325716 H          1 MOL1         0.0958
       3    H2      21.381572   18.958428   19.410842 H          1 MOL1         0.0958
       4    H3      20.573128   17.378990   19.526051 H          1 MOL1         0.0958
       5    C2      19.412456   19.035538   20.370702 C.3        1 MOL1        -0.1412
       6    H4      18.441927   18.531330   20.262331 H          1 MOL1         0.0947
       7    H5      19.244204   20.098555   20.148029 H          1 MOL1         0.0947
       8    C3      19.921493   18.880690   21.820803 C.3        1 MOL1        -0.1437
       9    H6      20.090364   17.816819   22.037642 H          1 MOL1         0.0947
      10    H7      20.892658   19.384353   21.923638 H          1 MOL1         0.0947
      11    C4      18.924638   19.465869   22.846485 C.3        1 MOL1        -0.1437
      12    H8      17.953825   18.961426   22.743657 H          1 MOL1         0.0947
      13    H9      18.755547   20.529153   22.626763 H          1 MOL1         0.0947
      14    C5      19.434868   19.312201   24.297021 C.3        1 MOL1        -0.1437
      15    H10     19.603563   18.247338   24.499350 H          1 MOL1         0.0947
      16    H11     20.401404   19.824541   24.400502 H          1 MOL1         0.0947
      17    C6      18.428641   19.887061   25.321828 C.3        1 MOL1        -0.1437
      18    H12     17.501002   19.298707   25.294109 H          1 MOL1         0.0947
      19    H13     18.153755   20.906399   25.017204 H          1 MOL1         0.0947
      20    C7      18.958541   19.946125   26.777334 C.3        1 MOL1        -0.1477
      21    H14     19.851644   20.582590   26.833585 H          1 MOL1         0.0947
      22    H15     18.196120   20.441725   27.392920 H          1 MOL1         0.0947
      23    C8      19.250117   18.569301   27.409238 C.3        1 MOL1         0.0145
      24    H16     18.475253   17.855246   27.117707 H          1 MOL1         0.0921
      25    H17     19.230146   18.665944   28.498155 H          1 MOL1         0.0921
      26    N1      20.602846   17.991005   27.042327 N.4        1 MOL1        -0.5969
      27    H18     20.699716   17.864358   26.030901 H          1 MOL1         0.3603
      28    H19     20.756054   17.075417   27.479258 H          1 MOL1         0.3603
      29    H20     21.370039   18.599482   27.346510 H          1 MOL1         0.3603
@<TRIPOS>BOND
    1     1     2    1
    2     1     3    1
    3     1     4    1
    4     1     5    1
    5     5     6    1
    6     5     7    1
    7     5     8    1
    8     8     9    1
    9     8    10    1
   10     8    11    1
   11    11    12    1
   12    11    13    1
   13    11    14    1
   14    14    15    1
   15    14    16    1
   16    14    17    1
   17    17    18    1
   18    17    19    1
   19    17    20    1
   20    20    21    1
   21    20    22    1
   22    20    23    1
   23    23    24    1
   24    23    25    1
   25    23    26    1
   26    26    27    1
   27    26    28    1
   28    26    29    1
@<TRIPOS>SUBSTRUCTURE
       1 MOL1            1 RESIDUE      1      MOL     
@<SCITEGIC>MOL_PROPERTY
VM2 Rank
SciTegic.value.IntegerValue
184

@<SCITEGIC>MOL_PROPERTY
Conf_Id
SciTegic.value.IntegerValue
1841

@<SCITEGIC>MOL_PROPERTY
Probability
SciTegic.value.DoubleValue
0.05

@<SCITEGIC>MOL_PROPERTY
Sum Probability
SciTegic.value.DoubleValue
98.07

@<SCITEGIC>MOL_PROPERTY
Delta G
SciTegic.value.DoubleValue
2.738

@<SCITEGIC>MOL_PROPERTY
G
SciTegic.value.DoubleValue
60.886

@<SCITEGIC>MOL_PROPERTY
E
SciTegic.value.DoubleValue
23.547

@<SCITEGIC>MOL_PROPERTY
-TS
SciTegic.value.DoubleValue
37.339

@<SCITEGIC>MOL_PROPERTY
U+W
SciTegic.value.DoubleValue
-0.598

@<SCITEGIC>MOL_PROPERTY
U
SciTegic.value.DoubleValue
51.315

@<SCITEGIC>MOL_PROPERTY
W
SciTegic.value.DoubleValue
-51.913

@<SCITEGIC>MOL_PROPERTY
W(PB)
SciTegic.value.DoubleValue
-54.442

@<SCITEGIC>MOL_PROPERTY
W(SA)
SciTegic.value.DoubleValue
2.529

@<SCITEGIC>MOL_PROPERTY
Valence
SciTegic.value.DoubleValue
4.174

@<SCITEGIC>MOL_PROPERTY
Coulomb
SciTegic.value.DoubleValue
46.442

@<SCITEGIC>MOL_PROPERTY
VdW
SciTegic.value.DoubleValue
0.699

@<SCITEGIC>MOL_PROPERTY
VdW6
SciTegic.value.DoubleValue
-8.431

@<SCITEGIC>MOL_PROPERTY
VdW12
SciTegic.value.DoubleValue
9.130

@<SCITEGIC>MOL_PROPERTY
Bond
SciTegic.value.DoubleValue
0.203

@<SCITEGIC>MOL_PROPERTY
Angle
SciTegic.value.DoubleValue
0.958

@<SCITEGIC>MOL_PROPERTY
Pdih
SciTegic.value.DoubleValue
3.013

@<SCITEGIC>MOL_PROPERTY
Idih
SciTegic.value.DoubleValue
0.000

@<SCITEGIC>MOL_PROPERTY
Tether
SciTegic.value.DoubleValue
0.000

@<TRIPOS>MOLECULE
guest-3_vm2.mol2 : vm2 ligand conformer 185
          29          28           1
SMALL
USER_CHARGES
 
@<TRIPOS>ATOM
       1    C1      21.028233   18.001411   20.778887 C.3        1 MOL1        -0.2427
       2    H1      20.830369   18.352920   19.757854 H          1 MOL1         0.0958
       3    H2      21.909483   18.534257   21.159245 H          1 MOL1         0.0958
       4    H3      21.276875   16.933562   20.725137 H          1 MOL1         0.0958
       5    C2      19.805103   18.230795   21.691466 C.3        1 MOL1        -0.1412
       6    H4      20.026123   17.831218   22.689568 H          1 MOL1         0.0947
       7    H5      18.948279   17.662775   21.303086 H          1 MOL1         0.0947
       8    C3      19.437184   19.730201   21.785585 C.3        1 MOL1        -0.1437
       9    H6      20.281219   20.295051   22.202602 H          1 MOL1         0.0947
      10    H7      19.284883   20.123471   20.771032 H          1 MOL1         0.0947
      11    C4      18.153769   20.004264   22.611653 C.3        1 MOL1        -0.1437
      12    H8      17.300570   19.524513   22.112637 H          1 MOL1         0.0947
      13    H9      17.945053   21.082758   22.591753 H          1 MOL1         0.0947
      14    C5      18.199679   19.528563   24.086611 C.3        1 MOL1        -0.1437
      15    H10     17.235595   19.767439   24.556267 H          1 MOL1         0.0947
      16    H11     18.287564   18.435307   24.119109 H          1 MOL1         0.0947
      17    C6      19.336156   20.184405   24.910570 C.3        1 MOL1        -0.1437
      18    H12     19.271464   21.276214   24.806602 H          1 MOL1         0.0947
      19    H13     20.313860   19.895098   24.505060 H          1 MOL1         0.0947
      20    C7      19.275849   19.826678   26.416495 C.3        1 MOL1        -0.1477
      21    H14     20.074311   20.360103   26.949130 H          1 MOL1         0.0947
      22    H15     18.329866   20.191756   26.837994 H          1 MOL1         0.0947
      23    C8      19.397102   18.316815   26.705557 C.3        1 MOL1         0.0145
      24    H16     18.585999   17.778561   26.208564 H          1 MOL1         0.0921
      25    H17     19.309303   18.144868   27.781749 H          1 MOL1         0.0921
      26    N1      20.710925   17.714870   26.248176 N.4        1 MOL1        -0.5969
      27    H18     20.762699   16.711415   26.455435 H          1 MOL1         0.3603
      28    H19     21.511958   18.158224   26.709811 H          1 MOL1         0.3603
      29    H20     20.843612   17.823632   25.238098 H          1 MOL1         0.3603
@<TRIPOS>BOND
    1     1     2    1
    2     1     3    1
    3     1     4    1
    4     1     5    1
    5     5     6    1
    6     5     7    1
    7     5     8    1
    8     8     9    1
    9     8    10    1
   10     8    11    1
   11    11    12    1
   12    11    13    1
   13    11    14    1
   14    14    15    1
   15    14    16    1
   16    14    17    1
   17    17    18    1
   18    17    19    1
   19    17    20    1
   20    20    21    1
   21    20    22    1
   22    20    23    1
   23    23    24    1
   24    23    25    1
   25    23    26    1
   26    26    27    1
   27    26    28    1
   28    26    29    1
@<TRIPOS>SUBSTRUCTURE
       1 MOL1            1 RESIDUE      1      MOL     
@<SCITEGIC>MOL_PROPERTY
VM2 Rank
SciTegic.value.IntegerValue
185

@<SCITEGIC>MOL_PROPERTY
Conf_Id
SciTegic.value.IntegerValue
336

@<SCITEGIC>MOL_PROPERTY
Probability
SciTegic.value.DoubleValue
0.05

@<SCITEGIC>MOL_PROPERTY
Sum Probability
SciTegic.value.DoubleValue
98.12

@<SCITEGIC>MOL_PROPERTY
Delta G
SciTegic.value.DoubleValue
2.744

@<SCITEGIC>MOL_PROPERTY
G
SciTegic.value.DoubleValue
60.892

@<SCITEGIC>MOL_PROPERTY
E
SciTegic.value.DoubleValue
22.990

@<SCITEGIC>MOL_PROPERTY
-TS
SciTegic.value.DoubleValue
37.902

@<SCITEGIC>MOL_PROPERTY
U+W
SciTegic.value.DoubleValue
-1.155

@<SCITEGIC>MOL_PROPERTY
U
SciTegic.value.DoubleValue
51.250

@<SCITEGIC>MOL_PROPERTY
W
SciTegic.value.DoubleValue
-52.404

@<SCITEGIC>MOL_PROPERTY
W(PB)
SciTegic.value.DoubleValue
-54.841

@<SCITEGIC>MOL_PROPERTY
W(SA)
SciTegic.value.DoubleValue
2.437

@<SCITEGIC>MOL_PROPERTY
Valence
SciTegic.value.DoubleValue
3.914

@<SCITEGIC>MOL_PROPERTY
Coulomb
SciTegic.value.DoubleValue
46.712

@<SCITEGIC>MOL_PROPERTY
VdW
SciTegic.value.DoubleValue
0.624

@<SCITEGIC>MOL_PROPERTY
VdW6
SciTegic.value.DoubleValue
-10.191

@<SCITEGIC>MOL_PROPERTY
VdW12
SciTegic.value.DoubleValue
10.814

@<SCITEGIC>MOL_PROPERTY
Bond
SciTegic.value.DoubleValue
0.275

@<SCITEGIC>MOL_PROPERTY
Angle
SciTegic.value.DoubleValue
1.253

@<SCITEGIC>MOL_PROPERTY
Pdih
SciTegic.value.DoubleValue
2.386

@<SCITEGIC>MOL_PROPERTY
Idih
SciTegic.value.DoubleValue
0.000

@<SCITEGIC>MOL_PROPERTY
Tether
SciTegic.value.DoubleValue
0.000

@<TRIPOS>MOLECULE
guest-3_vm2.mol2 : vm2 ligand conformer 186
          29          28           1
SMALL
USER_CHARGES
 
@<TRIPOS>ATOM
       1    C1      20.651322   19.126432   19.364479 C.3        1 MOL1        -0.2427
       2    H1      21.082451   18.117173   19.392366 H          1 MOL1         0.0958
       3    H2      20.297220   19.313605   18.342407 H          1 MOL1         0.0958
       4    H3      21.451419   19.846245   19.581186 H          1 MOL1         0.0958
       5    C2      19.493569   19.263032   20.375808 C.3        1 MOL1        -0.1412
       6    H4      18.694985   18.554925   20.113615 H          1 MOL1         0.0947
       7    H5      19.061123   20.270653   20.301056 H          1 MOL1         0.0947
       8    C3      19.965448   19.004172   21.823636 C.3        1 MOL1        -0.1437
       9    H6      20.398688   17.996740   21.892885 H          1 MOL1         0.0947
      10    H7      20.765228   19.712687   22.079986 H          1 MOL1         0.0947
      11    C4      18.808622   19.140217   22.839225 C.3        1 MOL1        -0.1437
      12    H8      18.009019   18.432500   22.579970 H          1 MOL1         0.0947
      13    H9      18.376241   20.148076   22.770086 H          1 MOL1         0.0947
      14    C5      19.280656   18.879509   24.287400 C.3        1 MOL1        -0.1437
      15    H10     19.704559   17.868145   24.356975 H          1 MOL1         0.0947
      16    H11     20.081321   19.589269   24.529291 H          1 MOL1         0.0947
      17    C6      18.123166   19.029774   25.302692 C.3        1 MOL1        -0.1437
      18    H12     17.270386   18.426421   24.961896 H          1 MOL1         0.0947
      19    H13     17.776404   20.072428   25.311268 H          1 MOL1         0.0947
      20    C7      18.475967   18.591770   26.747151 C.3        1 MOL1        -0.1477
      21    H14     17.563360   18.665840   27.353379 H          1 MOL1         0.0947
      22    H15     18.764875   17.532490   26.765720 H          1 MOL1         0.0947
      23    C8      19.563254   19.448123   27.428644 C.3        1 MOL1         0.0145
      24    H16     19.471341   19.343165   28.513086 H          1 MOL1         0.0921
      25    H17     19.418405   20.501973   27.176257 H          1 MOL1         0.0921
      26    N1      20.981996   19.054972   27.065965 N.4        1 MOL1        -0.5969
      27    H18     21.187474   18.087199   27.335320 H          1 MOL1         0.3603
      28    H19     21.673297   19.649545   27.536357 H          1 MOL1         0.3603
      29    H20     21.151331   19.131414   26.059044 H          1 MOL1         0.3603
@<TRIPOS>BOND
    1     1     2    1
    2     1     3    1
    3     1     4    1
    4     1     5    1
    5     5     6    1
    6     5     7    1
    7     5     8    1
    8     8     9    1
    9     8    10    1
   10     8    11    1
   11    11    12    1
   12    11    13    1
   13    11    14    1
   14    14    15    1
   15    14    16    1
   16    14    17    1
   17    17    18    1
   18    17    19    1
   19    17    20    1
   20    20    21    1
   21    20    22    1
   22    20    23    1
   23    23    24    1
   24    23    25    1
   25    23    26    1
   26    26    27    1
   27    26    28    1
   28    26    29    1
@<TRIPOS>SUBSTRUCTURE
       1 MOL1            1 RESIDUE      1      MOL     
@<SCITEGIC>MOL_PROPERTY
VM2 Rank
SciTegic.value.IntegerValue
186

@<SCITEGIC>MOL_PROPERTY
Conf_Id
SciTegic.value.IntegerValue
210

@<SCITEGIC>MOL_PROPERTY
Probability
SciTegic.value.DoubleValue
0.05

@<SCITEGIC>MOL_PROPERTY
Sum Probability
SciTegic.value.DoubleValue
98.17

@<SCITEGIC>MOL_PROPERTY
Delta G
SciTegic.value.DoubleValue
2.771

@<SCITEGIC>MOL_PROPERTY
G
SciTegic.value.DoubleValue
60.919

@<SCITEGIC>MOL_PROPERTY
E
SciTegic.value.DoubleValue
23.579

@<SCITEGIC>MOL_PROPERTY
-TS
SciTegic.value.DoubleValue
37.340

@<SCITEGIC>MOL_PROPERTY
U+W
SciTegic.value.DoubleValue
-0.566

@<SCITEGIC>MOL_PROPERTY
U
SciTegic.value.DoubleValue
51.315

@<SCITEGIC>MOL_PROPERTY
W
SciTegic.value.DoubleValue
-51.881

@<SCITEGIC>MOL_PROPERTY
W(PB)
SciTegic.value.DoubleValue
-54.424

@<SCITEGIC>MOL_PROPERTY
W(SA)
SciTegic.value.DoubleValue
2.542

@<SCITEGIC>MOL_PROPERTY
Valence
SciTegic.value.DoubleValue
4.174

@<SCITEGIC>MOL_PROPERTY
Coulomb
SciTegic.value.DoubleValue
46.442

@<SCITEGIC>MOL_PROPERTY
VdW
SciTegic.value.DoubleValue
0.700

@<SCITEGIC>MOL_PROPERTY
VdW6
SciTegic.value.DoubleValue
-8.431

@<SCITEGIC>MOL_PROPERTY
VdW12
SciTegic.value.DoubleValue
9.131

@<SCITEGIC>MOL_PROPERTY
Bond
SciTegic.value.DoubleValue
0.203

@<SCITEGIC>MOL_PROPERTY
Angle
SciTegic.value.DoubleValue
0.957

@<SCITEGIC>MOL_PROPERTY
Pdih
SciTegic.value.DoubleValue
3.013

@<SCITEGIC>MOL_PROPERTY
Idih
SciTegic.value.DoubleValue
0.000

@<SCITEGIC>MOL_PROPERTY
Tether
SciTegic.value.DoubleValue
0.000

@<TRIPOS>MOLECULE
guest-3_vm2.mol2 : vm2 ligand conformer 187
          29          28           1
SMALL
USER_CHARGES
 
@<TRIPOS>ATOM
       1    C1      20.419910   18.877807   19.878229 C.3        1 MOL1        -0.2427
       2    H1      21.297647   18.321685   20.232501 H          1 MOL1         0.0958
       3    H2      19.783192   18.186702   19.310636 H          1 MOL1         0.0958
       4    H3      20.769989   19.656792   19.188574 H          1 MOL1         0.0958
       5    C2      19.646514   19.502669   21.058534 C.3        1 MOL1        -0.1412
       6    H4      18.792633   20.076550   20.672383 H          1 MOL1         0.0947
       7    H5      20.301624   20.215551   21.576623 H          1 MOL1         0.0947
       8    C3      19.145816   18.423580   22.046936 C.3        1 MOL1        -0.1437
       9    H6      18.550058   17.683688   21.494940 H          1 MOL1         0.0947
      10    H7      20.001525   17.874013   22.460454 H          1 MOL1         0.0947
      11    C4      18.274077   18.992677   23.195922 C.3        1 MOL1        -0.1437
      12    H8      17.910293   18.159461   23.811610 H          1 MOL1         0.0947
      13    H9      17.375209   19.453553   22.763954 H          1 MOL1         0.0947
      14    C5      18.976941   20.035535   24.106001 C.3        1 MOL1        -0.1437
      15    H10     19.193630   20.939803   23.522153 H          1 MOL1         0.0947
      16    H11     18.269809   20.356902   24.882197 H          1 MOL1         0.0947
      17    C6      20.288651   19.546326   24.776493 C.3        1 MOL1        -0.1437
      18    H12     20.693503   20.359441   25.393619 H          1 MOL1         0.0947
      19    H13     21.047556   19.361772   24.004654 H          1 MOL1         0.0947
      20    C7      20.135480   18.271842   25.647181 C.3        1 MOL1        -0.1477
      21    H14     19.877218   17.417510   25.008653 H          1 MOL1         0.0947
      22    H15     21.104484   18.025816   26.101155 H          1 MOL1         0.0947
      23    C8      19.075022   18.398956   26.758919 C.3        1 MOL1         0.0145
      24    H16     19.002424   17.453079   27.302473 H          1 MOL1         0.0921
      25    H17     18.099235   18.612378   26.314944 H          1 MOL1         0.0921
      26    N1      19.381589   19.488609   27.766785 N.4        1 MOL1        -0.5969
      27    H18     20.275941   19.326494   28.241021 H          1 MOL1         0.3603
      28    H19     18.661464   19.548521   28.494889 H          1 MOL1         0.3603
      29    H20     19.437619   20.409145   27.320006 H          1 MOL1         0.3603
@<TRIPOS>BOND
    1     1     2    1
    2     1     3    1
    3     1     4    1
    4     1     5    1
    5     5     6    1
    6     5     7    1
    7     5     8    1
    8     8     9    1
    9     8    10    1
   10     8    11    1
   11    11    12    1
   12    11    13    1
   13    11    14    1
   14    14    15    1
   15    14    16    1
   16    14    17    1
   17    17    18    1
   18    17    19    1
   19    17    20    1
   20    20    21    1
   21    20    22    1
   22    20    23    1
   23    23    24    1
   24    23    25    1
   25    23    26    1
   26    26    27    1
   27    26    28    1
   28    26    29    1
@<TRIPOS>SUBSTRUCTURE
       1 MOL1            1 RESIDUE      1      MOL     
@<SCITEGIC>MOL_PROPERTY
VM2 Rank
SciTegic.value.IntegerValue
187

@<SCITEGIC>MOL_PROPERTY
Conf_Id
SciTegic.value.IntegerValue
1671

@<SCITEGIC>MOL_PROPERTY
Probability
SciTegic.value.DoubleValue
0.05

@<SCITEGIC>MOL_PROPERTY
Sum Probability
SciTegic.value.DoubleValue
98.22

@<SCITEGIC>MOL_PROPERTY
Delta G
SciTegic.value.DoubleValue
2.782

@<SCITEGIC>MOL_PROPERTY
G
SciTegic.value.DoubleValue
60.930

@<SCITEGIC>MOL_PROPERTY
E
SciTegic.value.DoubleValue
22.547

@<SCITEGIC>MOL_PROPERTY
-TS
SciTegic.value.DoubleValue
38.382

@<SCITEGIC>MOL_PROPERTY
U+W
SciTegic.value.DoubleValue
-1.597

@<SCITEGIC>MOL_PROPERTY
U
SciTegic.value.DoubleValue
50.551

@<SCITEGIC>MOL_PROPERTY
W
SciTegic.value.DoubleValue
-52.148

@<SCITEGIC>MOL_PROPERTY
W(PB)
SciTegic.value.DoubleValue
-54.549

@<SCITEGIC>MOL_PROPERTY
W(SA)
SciTegic.value.DoubleValue
2.400

@<SCITEGIC>MOL_PROPERTY
Valence
SciTegic.value.DoubleValue
4.345

@<SCITEGIC>MOL_PROPERTY
Coulomb
SciTegic.value.DoubleValue
45.600

@<SCITEGIC>MOL_PROPERTY
VdW
SciTegic.value.DoubleValue
0.606

@<SCITEGIC>MOL_PROPERTY
VdW6
SciTegic.value.DoubleValue
-11.173

@<SCITEGIC>MOL_PROPERTY
VdW12
SciTegic.value.DoubleValue
11.779

@<SCITEGIC>MOL_PROPERTY
Bond
SciTegic.value.DoubleValue
0.325

@<SCITEGIC>MOL_PROPERTY
Angle
SciTegic.value.DoubleValue
1.638

@<SCITEGIC>MOL_PROPERTY
Pdih
SciTegic.value.DoubleValue
2.382

@<SCITEGIC>MOL_PROPERTY
Idih
SciTegic.value.DoubleValue
0.000

@<SCITEGIC>MOL_PROPERTY
Tether
SciTegic.value.DoubleValue
0.000

@<TRIPOS>MOLECULE
guest-3_vm2.mol2 : vm2 ligand conformer 188
          29          28           1
SMALL
USER_CHARGES
 
@<TRIPOS>ATOM
       1    C1      19.781239   18.060839   19.528519 C.3        1 MOL1        -0.2427
       2    H1      19.976401   19.000737   18.995830 H          1 MOL1         0.0958
       3    H2      20.741594   17.554669   19.692095 H          1 MOL1         0.0958
       4    H3      19.171219   17.423528   18.875253 H          1 MOL1         0.0958
       5    C2      19.056932   18.321621   20.866113 C.3        1 MOL1        -0.1412
       6    H4      18.845452   17.362402   21.359124 H          1 MOL1         0.0947
       7    H5      18.086175   18.797440   20.668327 H          1 MOL1         0.0947
       8    C3      19.895018   19.217219   21.805031 C.3        1 MOL1        -0.1437
       9    H6      20.864916   18.738327   21.998334 H          1 MOL1         0.0947
      10    H7      20.106326   20.173376   21.306522 H          1 MOL1         0.0947
      11    C4      19.173128   19.480867   23.145701 C.3        1 MOL1        -0.1437
      12    H8      18.954163   18.521806   23.628571 H          1 MOL1         0.0947
      13    H9      18.205191   19.962155   22.948960 H          1 MOL1         0.0947
      14    C5      20.014862   20.383233   24.081286 C.3        1 MOL1        -0.1437
      15    H10     20.998830   19.930676   24.266364 H          1 MOL1         0.0947
      16    H11     20.209951   21.328893   23.556681 H          1 MOL1         0.0947
      17    C6      19.318506   20.710898   25.427901 C.3        1 MOL1        -0.1437
      18    H12     18.232443   20.795780   25.284373 H          1 MOL1         0.0947
      19    H13     19.653984   21.705858   25.751913 H          1 MOL1         0.0947
      20    C7      19.630000   19.717902   26.575840 C.3        1 MOL1        -0.1477
      21    H14     20.712186   19.698877   26.761336 H          1 MOL1         0.0947
      22    H15     19.163698   20.091773   27.497111 H          1 MOL1         0.0947
      23    C8      19.131695   18.286209   26.312563 C.3        1 MOL1         0.0145
      24    H16     19.664856   17.863125   25.457768 H          1 MOL1         0.0921
      25    H17     18.062877   18.303674   26.083101 H          1 MOL1         0.0921
      26    N1      19.342620   17.359212   27.492045 N.4        1 MOL1        -0.5969
      27    H18     20.333728   17.280032   27.742837 H          1 MOL1         0.3603
      28    H19     19.006979   16.409828   27.295524 H          1 MOL1         0.3603
      29    H20     18.844968   17.684985   28.327315 H          1 MOL1         0.3603
@<TRIPOS>BOND
    1     1     2    1
    2     1     3    1
    3     1     4    1
    4     1     5    1
    5     5     6    1
    6     5     7    1
    7     5     8    1
    8     8     9    1
    9     8    10    1
   10     8    11    1
   11    11    12    1
   12    11    13    1
   13    11    14    1
   14    14    15    1
   15    14    16    1
   16    14    17    1
   17    17    18    1
   18    17    19    1
   19    17    20    1
   20    20    21    1
   21    20    22    1
   22    20    23    1
   23    23    24    1
   24    23    25    1
   25    23    26    1
   26    26    27    1
   27    26    28    1
   28    26    29    1
@<TRIPOS>SUBSTRUCTURE
       1 MOL1            1 RESIDUE      1      MOL     
@<SCITEGIC>MOL_PROPERTY
VM2 Rank
SciTegic.value.IntegerValue
188

@<SCITEGIC>MOL_PROPERTY
Conf_Id
SciTegic.value.IntegerValue
663

@<SCITEGIC>MOL_PROPERTY
Probability
SciTegic.value.DoubleValue
0.05

@<SCITEGIC>MOL_PROPERTY
Sum Probability
SciTegic.value.DoubleValue
98.27

@<SCITEGIC>MOL_PROPERTY
Delta G
SciTegic.value.DoubleValue
2.794

@<SCITEGIC>MOL_PROPERTY
G
SciTegic.value.DoubleValue
60.942

@<SCITEGIC>MOL_PROPERTY
E
SciTegic.value.DoubleValue
23.621

@<SCITEGIC>MOL_PROPERTY
-TS
SciTegic.value.DoubleValue
37.321

@<SCITEGIC>MOL_PROPERTY
U+W
SciTegic.value.DoubleValue
-0.524

@<SCITEGIC>MOL_PROPERTY
U
SciTegic.value.DoubleValue
51.461

@<SCITEGIC>MOL_PROPERTY
W
SciTegic.value.DoubleValue
-51.983

@<SCITEGIC>MOL_PROPERTY
W(PB)
SciTegic.value.DoubleValue
-54.508

@<SCITEGIC>MOL_PROPERTY
W(SA)
SciTegic.value.DoubleValue
2.525

@<SCITEGIC>MOL_PROPERTY
Valence
SciTegic.value.DoubleValue
5.121

@<SCITEGIC>MOL_PROPERTY
Coulomb
SciTegic.value.DoubleValue
45.566

@<SCITEGIC>MOL_PROPERTY
VdW
SciTegic.value.DoubleValue
0.773

@<SCITEGIC>MOL_PROPERTY
VdW6
SciTegic.value.DoubleValue
-8.444

@<SCITEGIC>MOL_PROPERTY
VdW12
SciTegic.value.DoubleValue
9.217

@<SCITEGIC>MOL_PROPERTY
Bond
SciTegic.value.DoubleValue
0.226

@<SCITEGIC>MOL_PROPERTY
Angle
SciTegic.value.DoubleValue
1.116

@<SCITEGIC>MOL_PROPERTY
Pdih
SciTegic.value.DoubleValue
3.779

@<SCITEGIC>MOL_PROPERTY
Idih
SciTegic.value.DoubleValue
0.000

@<SCITEGIC>MOL_PROPERTY
Tether
SciTegic.value.DoubleValue
0.000

@<TRIPOS>MOLECULE
guest-3_vm2.mol2 : vm2 ligand conformer 189
          29          28           1
SMALL
USER_CHARGES
 
@<TRIPOS>ATOM
       1    C1      20.625772   19.297076   20.337496 C.3        1 MOL1        -0.2427
       2    H1      21.134538   20.124388   19.826114 H          1 MOL1         0.0958
       3    H2      21.340556   18.853636   21.041814 H          1 MOL1         0.0958
       4    H3      20.371776   18.540846   19.583497 H          1 MOL1         0.0958
       5    C2      19.358969   19.805302   21.061937 C.3        1 MOL1        -0.1412
       6    H4      18.725154   20.334671   20.336975 H          1 MOL1         0.0947
       7    H5      19.638257   20.550772   21.818455 H          1 MOL1         0.0947
       8    C3      18.526136   18.670732   21.710531 C.3        1 MOL1        -0.1437
       9    H6      17.618413   19.102184   22.152513 H          1 MOL1         0.0947
      10    H7      18.173924   17.994296   20.919736 H          1 MOL1         0.0947
      11    C4      19.274005   17.831337   22.781385 C.3        1 MOL1        -0.1437
      12    H8      20.073013   17.255796   22.295349 H          1 MOL1         0.0947
      13    H9      18.579628   17.083858   23.188798 H          1 MOL1         0.0947
      14    C5      19.884096   18.641157   23.954473 C.3        1 MOL1        -0.1437
      15    H10     20.407096   17.936741   24.614283 H          1 MOL1         0.0947
      16    H11     20.652756   19.327466   23.575573 H          1 MOL1         0.0947
      17    C6      18.831882   19.432507   24.771689 C.3        1 MOL1        -0.1437
      18    H12     18.054312   18.748677   25.136977 H          1 MOL1         0.0947
      19    H13     18.323654   20.151745   24.116504 H          1 MOL1         0.0947
      20    C7      19.446340   20.216543   25.958445 C.3        1 MOL1        -0.1477
      21    H14     20.165853   20.950979   25.572778 H          1 MOL1         0.0947
      22    H15     18.657253   20.794399   26.457642 H          1 MOL1         0.0947
      23    C8      20.155663   19.329142   27.001356 C.3        1 MOL1         0.0145
      24    H16     20.573657   19.959992   27.790514 H          1 MOL1         0.0921
      25    H17     20.978939   18.787623   26.528655 H          1 MOL1         0.0921
      26    N1      19.241137   18.314202   27.657688 N.4        1 MOL1        -0.5969
      27    H18     18.460080   18.765610   28.144826 H          1 MOL1         0.3603
      28    H19     19.738703   17.744230   28.350474 H          1 MOL1         0.3603
      29    H20     18.838501   17.670345   26.969446 H          1 MOL1         0.3603
@<TRIPOS>BOND
    1     1     2    1
    2     1     3    1
    3     1     4    1
    4     1     5    1
    5     5     6    1
    6     5     7    1
    7     5     8    1
    8     8     9    1
    9     8    10    1
   10     8    11    1
   11    11    12    1
   12    11    13    1
   13    11    14    1
   14    14    15    1
   15    14    16    1
   16    14    17    1
   17    17    18    1
   18    17    19    1
   19    17    20    1
   20    20    21    1
   21    20    22    1
   22    20    23    1
   23    23    24    1
   24    23    25    1
   25    23    26    1
   26    26    27    1
   27    26    28    1
   28    26    29    1
@<TRIPOS>SUBSTRUCTURE
       1 MOL1            1 RESIDUE      1      MOL     
@<SCITEGIC>MOL_PROPERTY
VM2 Rank
SciTegic.value.IntegerValue
189

@<SCITEGIC>MOL_PROPERTY
Conf_Id
SciTegic.value.IntegerValue
451

@<SCITEGIC>MOL_PROPERTY
Probability
SciTegic.value.DoubleValue
0.05

@<SCITEGIC>MOL_PROPERTY
Sum Probability
SciTegic.value.DoubleValue
98.32

@<SCITEGIC>MOL_PROPERTY
Delta G
SciTegic.value.DoubleValue
2.800

@<SCITEGIC>MOL_PROPERTY
G
SciTegic.value.DoubleValue
60.948

@<SCITEGIC>MOL_PROPERTY
E
SciTegic.value.DoubleValue
22.710

@<SCITEGIC>MOL_PROPERTY
-TS
SciTegic.value.DoubleValue
38.238

@<SCITEGIC>MOL_PROPERTY
U+W
SciTegic.value.DoubleValue
-1.435

@<SCITEGIC>MOL_PROPERTY
U
SciTegic.value.DoubleValue
50.732

@<SCITEGIC>MOL_PROPERTY
W
SciTegic.value.DoubleValue
-52.167

@<SCITEGIC>MOL_PROPERTY
W(PB)
SciTegic.value.DoubleValue
-54.558

@<SCITEGIC>MOL_PROPERTY
W(SA)
SciTegic.value.DoubleValue
2.391

@<SCITEGIC>MOL_PROPERTY
Valence
SciTegic.value.DoubleValue
4.413

@<SCITEGIC>MOL_PROPERTY
Coulomb
SciTegic.value.DoubleValue
45.469

@<SCITEGIC>MOL_PROPERTY
VdW
SciTegic.value.DoubleValue
0.849

@<SCITEGIC>MOL_PROPERTY
VdW6
SciTegic.value.DoubleValue
-10.820

@<SCITEGIC>MOL_PROPERTY
VdW12
SciTegic.value.DoubleValue
11.669

@<SCITEGIC>MOL_PROPERTY
Bond
SciTegic.value.DoubleValue
0.322

@<SCITEGIC>MOL_PROPERTY
Angle
SciTegic.value.DoubleValue
1.661

@<SCITEGIC>MOL_PROPERTY
Pdih
SciTegic.value.DoubleValue
2.430

@<SCITEGIC>MOL_PROPERTY
Idih
SciTegic.value.DoubleValue
0.000

@<SCITEGIC>MOL_PROPERTY
Tether
SciTegic.value.DoubleValue
0.000

@<TRIPOS>MOLECULE
guest-3_vm2.mol2 : vm2 ligand conformer 190
          29          28           1
SMALL
USER_CHARGES
 
@<TRIPOS>ATOM
       1    C1      19.485429   18.139564   19.523657 C.3        1 MOL1        -0.2427
       2    H1      19.005171   17.293245   19.015585 H          1 MOL1         0.0958
       3    H2      19.152758   19.061994   19.029991 H          1 MOL1         0.0958
       4    H3      20.570002   18.047211   19.380752 H          1 MOL1         0.0958
       5    C2      19.122802   18.151604   21.023703 C.3        1 MOL1        -0.1412
       6    H4      19.437145   17.203569   21.482291 H          1 MOL1         0.0947
       7    H5      18.030958   18.210852   21.134408 H          1 MOL1         0.0947
       8    C3      19.786764   19.334216   21.763016 C.3        1 MOL1        -0.1437
       9    H6      20.877850   19.271955   21.648603 H          1 MOL1         0.0947
      10    H7      19.471643   20.278930   21.298700 H          1 MOL1         0.0947
      11    C4      19.425062   19.349547   23.265330 C.3        1 MOL1        -0.1437
      12    H8      19.740618   18.399061   23.714091 H          1 MOL1         0.0947
      13    H9      18.334531   19.419807   23.379155 H          1 MOL1         0.0947
      14    C5      20.102736   20.525323   24.006953 C.3        1 MOL1        -0.1437
      15    H10     21.192621   20.386876   23.990457 H          1 MOL1         0.0947
      16    H11     19.905274   21.455589   23.456501 H          1 MOL1         0.0947
      17    C6      19.629979   20.722278   25.470663 C.3        1 MOL1        -0.1437
      18    H12     18.559233   20.968528   25.491752 H          1 MOL1         0.0947
      19    H13     20.146222   21.606712   25.869051 H          1 MOL1         0.0947
      20    C7      19.918491   19.529245   26.416307 C.3        1 MOL1        -0.1477
      21    H14     20.881472   19.068157   26.159502 H          1 MOL1         0.0947
      22    H15     20.021154   19.912158   27.440439 H          1 MOL1         0.0947
      23    C8      18.798635   18.470487   26.412188 C.3        1 MOL1         0.0145
      24    H16     18.668596   18.059535   25.409421 H          1 MOL1         0.0921
      25    H17     17.856070   18.933833   26.715876 H          1 MOL1         0.0921
      26    N1      19.074102   17.315737   27.353184 N.4        1 MOL1        -0.5969
      27    H18     19.936509   16.819147   27.106138 H          1 MOL1         0.3603
      28    H19     18.316236   16.624298   27.340161 H          1 MOL1         0.3603
      29    H20     19.174496   17.630357   28.323958 H          1 MOL1         0.3603
@<TRIPOS>BOND
    1     1     2    1
    2     1     3    1
    3     1     4    1
    4     1     5    1
    5     5     6    1
    6     5     7    1
    7     5     8    1
    8     8     9    1
    9     8    10    1
   10     8    11    1
   11    11    12    1
   12    11    13    1
   13    11    14    1
   14    14    15    1
   15    14    16    1
   16    14    17    1
   17    17    18    1
   18    17    19    1
   19    17    20    1
   20    20    21    1
   21    20    22    1
   22    20    23    1
   23    23    24    1
   24    23    25    1
   25    23    26    1
   26    26    27    1
   27    26    28    1
   28    26    29    1
@<TRIPOS>SUBSTRUCTURE
       1 MOL1            1 RESIDUE      1      MOL     
@<SCITEGIC>MOL_PROPERTY
VM2 Rank
SciTegic.value.IntegerValue
190

@<SCITEGIC>MOL_PROPERTY
Conf_Id
SciTegic.value.IntegerValue
1845

@<SCITEGIC>MOL_PROPERTY
Probability
SciTegic.value.DoubleValue
0.05

@<SCITEGIC>MOL_PROPERTY
Sum Probability
SciTegic.value.DoubleValue
98.37

@<SCITEGIC>MOL_PROPERTY
Delta G
SciTegic.value.DoubleValue
2.816

@<SCITEGIC>MOL_PROPERTY
G
SciTegic.value.DoubleValue
60.964

@<SCITEGIC>MOL_PROPERTY
E
SciTegic.value.DoubleValue
23.441

@<SCITEGIC>MOL_PROPERTY
-TS
SciTegic.value.DoubleValue
37.523

@<SCITEGIC>MOL_PROPERTY
U+W
SciTegic.value.DoubleValue
-0.704

@<SCITEGIC>MOL_PROPERTY
U
SciTegic.value.DoubleValue
51.492

@<SCITEGIC>MOL_PROPERTY
W
SciTegic.value.DoubleValue
-52.196

@<SCITEGIC>MOL_PROPERTY
W(PB)
SciTegic.value.DoubleValue
-54.720

@<SCITEGIC>MOL_PROPERTY
W(SA)
SciTegic.value.DoubleValue
2.524

@<SCITEGIC>MOL_PROPERTY
Valence
SciTegic.value.DoubleValue
4.974

@<SCITEGIC>MOL_PROPERTY
Coulomb
SciTegic.value.DoubleValue
45.825

@<SCITEGIC>MOL_PROPERTY
VdW
SciTegic.value.DoubleValue
0.694

@<SCITEGIC>MOL_PROPERTY
VdW6
SciTegic.value.DoubleValue
-8.648

@<SCITEGIC>MOL_PROPERTY
VdW12
SciTegic.value.DoubleValue
9.341

@<SCITEGIC>MOL_PROPERTY
Bond
SciTegic.value.DoubleValue
0.214

@<SCITEGIC>MOL_PROPERTY
Angle
SciTegic.value.DoubleValue
1.149

@<SCITEGIC>MOL_PROPERTY
Pdih
SciTegic.value.DoubleValue
3.611

@<SCITEGIC>MOL_PROPERTY
Idih
SciTegic.value.DoubleValue
0.000

@<SCITEGIC>MOL_PROPERTY
Tether
SciTegic.value.DoubleValue
0.000

@<TRIPOS>MOLECULE
guest-3_vm2.mol2 : vm2 ligand conformer 191
          29          28           1
SMALL
USER_CHARGES
 
@<TRIPOS>ATOM
       1    C1      20.013511   19.570861   20.067053 C.3        1 MOL1        -0.2427
       2    H1      19.489772   18.876443   19.397432 H          1 MOL1         0.0958
       3    H2      20.295962   20.454827   19.480859 H          1 MOL1         0.0958
       4    H3      20.939060   19.089334   20.406266 H          1 MOL1         0.0958
       5    C2      19.116684   19.975271   21.258686 C.3        1 MOL1        -0.1412
       6    H4      18.260762   20.549802   20.878145 H          1 MOL1         0.0947
       7    H5      19.666770   20.656774   21.921115 H          1 MOL1         0.0947
       8    C3      18.580209   18.763707   22.062429 C.3        1 MOL1        -0.1437
       9    H6      17.903461   19.127539   22.846793 H          1 MOL1         0.0947
      10    H7      17.958276   18.146625   21.399629 H          1 MOL1         0.0947
      11    C4      19.670590   17.861515   22.700162 C.3        1 MOL1        -0.1437
      12    H8      20.249006   17.375395   21.903482 H          1 MOL1         0.0947
      13    H9      19.179792   17.040478   23.238906 H          1 MOL1         0.0947
      14    C5      20.653553   18.589543   23.656082 C.3        1 MOL1        -0.1437
      15    H10     21.359173   17.851906   24.062197 H          1 MOL1         0.0947
      16    H11     21.265489   19.293914   23.077100 H          1 MOL1         0.0947
      17    C6      19.991814   19.351371   24.833346 C.3        1 MOL1        -0.1437
      18    H12     19.349927   20.154260   24.447467 H          1 MOL1         0.0947
      19    H13     20.786619   19.847829   25.405303 H          1 MOL1         0.0947
      20    C7      19.173148   18.436590   25.778103 C.3        1 MOL1        -0.1477
      21    H14     18.355162   17.964360   25.219970 H          1 MOL1         0.0947
      22    H15     19.806519   17.623611   26.157021 H          1 MOL1         0.0947
      23    C8      18.558267   19.205495   26.963266 C.3        1 MOL1         0.0145
      24    H16     17.916738   18.532123   27.538179 H          1 MOL1         0.0921
      25    H17     17.941809   20.027240   26.588998 H          1 MOL1         0.0921
      26    N1      19.586223   19.783646   27.915872 N.4        1 MOL1        -0.5969
      27    H18     20.183634   19.054291   28.318851 H          1 MOL1         0.3603
      28    H19     19.144290   20.276631   28.699576 H          1 MOL1         0.3603
      29    H20     20.202067   20.455376   27.447231 H          1 MOL1         0.3603
@<TRIPOS>BOND
    1     1     2    1
    2     1     3    1
    3     1     4    1
    4     1     5    1
    5     5     6    1
    6     5     7    1
    7     5     8    1
    8     8     9    1
    9     8    10    1
   10     8    11    1
   11    11    12    1
   12    11    13    1
   13    11    14    1
   14    14    15    1
   15    14    16    1
   16    14    17    1
   17    17    18    1
   18    17    19    1
   19    17    20    1
   20    20    21    1
   21    20    22    1
   22    20    23    1
   23    23    24    1
   24    23    25    1
   25    23    26    1
   26    26    27    1
   27    26    28    1
   28    26    29    1
@<TRIPOS>SUBSTRUCTURE
       1 MOL1            1 RESIDUE      1      MOL     
@<SCITEGIC>MOL_PROPERTY
VM2 Rank
SciTegic.value.IntegerValue
191

@<SCITEGIC>MOL_PROPERTY
Conf_Id
SciTegic.value.IntegerValue
272

@<SCITEGIC>MOL_PROPERTY
Probability
SciTegic.value.DoubleValue
0.05

@<SCITEGIC>MOL_PROPERTY
Sum Probability
SciTegic.value.DoubleValue
98.42

@<SCITEGIC>MOL_PROPERTY
Delta G
SciTegic.value.DoubleValue
2.833

@<SCITEGIC>MOL_PROPERTY
G
SciTegic.value.DoubleValue
60.981

@<SCITEGIC>MOL_PROPERTY
E
SciTegic.value.DoubleValue
22.621

@<SCITEGIC>MOL_PROPERTY
-TS
SciTegic.value.DoubleValue
38.359

@<SCITEGIC>MOL_PROPERTY
U+W
SciTegic.value.DoubleValue
-1.523

@<SCITEGIC>MOL_PROPERTY
U
SciTegic.value.DoubleValue
50.644

@<SCITEGIC>MOL_PROPERTY
W
SciTegic.value.DoubleValue
-52.167

@<SCITEGIC>MOL_PROPERTY
W(PB)
SciTegic.value.DoubleValue
-54.571

@<SCITEGIC>MOL_PROPERTY
W(SA)
SciTegic.value.DoubleValue
2.404

@<SCITEGIC>MOL_PROPERTY
Valence
SciTegic.value.DoubleValue
4.566

@<SCITEGIC>MOL_PROPERTY
Coulomb
SciTegic.value.DoubleValue
45.260

@<SCITEGIC>MOL_PROPERTY
VdW
SciTegic.value.DoubleValue
0.818

@<SCITEGIC>MOL_PROPERTY
VdW6
SciTegic.value.DoubleValue
-10.959

@<SCITEGIC>MOL_PROPERTY
VdW12
SciTegic.value.DoubleValue
11.777

@<SCITEGIC>MOL_PROPERTY
Bond
SciTegic.value.DoubleValue
0.338

@<SCITEGIC>MOL_PROPERTY
Angle
SciTegic.value.DoubleValue
1.774

@<SCITEGIC>MOL_PROPERTY
Pdih
SciTegic.value.DoubleValue
2.455

@<SCITEGIC>MOL_PROPERTY
Idih
SciTegic.value.DoubleValue
0.000

@<SCITEGIC>MOL_PROPERTY
Tether
SciTegic.value.DoubleValue
0.000

@<TRIPOS>MOLECULE
guest-3_vm2.mol2 : vm2 ligand conformer 192
          29          28           1
SMALL
USER_CHARGES
 
@<TRIPOS>ATOM
       1    C1      19.314539   18.339211   19.900577 C.3        1 MOL1        -0.2427
       2    H1      18.683664   18.268466   19.005085 H          1 MOL1         0.0958
       3    H2      20.340937   18.548429   19.572332 H          1 MOL1         0.0958
       4    H3      19.302677   17.357435   20.389638 H          1 MOL1         0.0958
       5    C2      18.794676   19.449940   20.841210 C.3        1 MOL1        -0.1412
       6    H4      17.780631   19.200570   21.183558 H          1 MOL1         0.0947
       7    H5      18.704696   20.383378   20.268203 H          1 MOL1         0.0947
       8    C3      19.711473   19.705056   22.061945 C.3        1 MOL1        -0.1437
       9    H6      20.722672   19.958480   21.715321 H          1 MOL1         0.0947
      10    H7      19.333620   20.589828   22.590087 H          1 MOL1         0.0947
      11    C4      19.779723   18.507217   23.042761 C.3        1 MOL1        -0.1437
      12    H8      20.160364   17.624326   22.513550 H          1 MOL1         0.0947
      13    H9      18.768438   18.245160   23.380036 H          1 MOL1         0.0947
      14    C5      20.698938   18.759919   24.265818 C.3        1 MOL1        -0.1437
      15    H10     20.743697   17.842351   24.867560 H          1 MOL1         0.0947
      16    H11     21.724506   18.929389   23.910033 H          1 MOL1         0.0947
      17    C6      20.285688   19.948836   25.174887 C.3        1 MOL1        -0.1437
      18    H12     20.410202   20.891578   24.626113 H          1 MOL1         0.0947
      19    H13     20.989372   20.009100   26.015852 H          1 MOL1         0.0947
      20    C7      18.837754   19.873688   25.725774 C.3        1 MOL1        -0.1477
      21    H14     18.656675   20.733027   26.384832 H          1 MOL1         0.0947
      22    H15     18.123077   19.973758   24.898865 H          1 MOL1         0.0947
      23    C8      18.529866   18.573624   26.495035 C.3        1 MOL1         0.0145
      24    H16     18.679277   17.712605   25.838385 H          1 MOL1         0.0921
      25    H17     17.484912   18.579725   26.816665 H          1 MOL1         0.0921
      26    N1      19.391342   18.380509   27.726992 N.4        1 MOL1        -0.5969
      27    H18     20.386932   18.341337   27.487398 H          1 MOL1         0.3603
      28    H19     19.163657   17.509762   28.219204 H          1 MOL1         0.3603
      29    H20     19.270737   19.145797   28.398447 H          1 MOL1         0.3603
@<TRIPOS>BOND
    1     1     2    1
    2     1     3    1
    3     1     4    1
    4     1     5    1
    5     5     6    1
    6     5     7    1
    7     5     8    1
    8     8     9    1
    9     8    10    1
   10     8    11    1
   11    11    12    1
   12    11    13    1
   13    11    14    1
   14    14    15    1
   15    14    16    1
   16    14    17    1
   17    17    18    1
   18    17    19    1
   19    17    20    1
   20    20    21    1
   21    20    22    1
   22    20    23    1
   23    23    24    1
   24    23    25    1
   25    23    26    1
   26    26    27    1
   27    26    28    1
   28    26    29    1
@<TRIPOS>SUBSTRUCTURE
       1 MOL1            1 RESIDUE      1      MOL     
@<SCITEGIC>MOL_PROPERTY
VM2 Rank
SciTegic.value.IntegerValue
192

@<SCITEGIC>MOL_PROPERTY
Conf_Id
SciTegic.value.IntegerValue
1028

@<SCITEGIC>MOL_PROPERTY
Probability
SciTegic.value.DoubleValue
0.05

@<SCITEGIC>MOL_PROPERTY
Sum Probability
SciTegic.value.DoubleValue
98.46

@<SCITEGIC>MOL_PROPERTY
Delta G
SciTegic.value.DoubleValue
2.842

@<SCITEGIC>MOL_PROPERTY
G
SciTegic.value.DoubleValue
60.990

@<SCITEGIC>MOL_PROPERTY
E
SciTegic.value.DoubleValue
22.839

@<SCITEGIC>MOL_PROPERTY
-TS
SciTegic.value.DoubleValue
38.151

@<SCITEGIC>MOL_PROPERTY
U+W
SciTegic.value.DoubleValue
-1.306

@<SCITEGIC>MOL_PROPERTY
U
SciTegic.value.DoubleValue
50.783

@<SCITEGIC>MOL_PROPERTY
W
SciTegic.value.DoubleValue
-52.088

@<SCITEGIC>MOL_PROPERTY
W(PB)
SciTegic.value.DoubleValue
-54.505

@<SCITEGIC>MOL_PROPERTY
W(SA)
SciTegic.value.DoubleValue
2.417

@<SCITEGIC>MOL_PROPERTY
Valence
SciTegic.value.DoubleValue
4.466

@<SCITEGIC>MOL_PROPERTY
Coulomb
SciTegic.value.DoubleValue
45.490

@<SCITEGIC>MOL_PROPERTY
VdW
SciTegic.value.DoubleValue
0.827

@<SCITEGIC>MOL_PROPERTY
VdW6
SciTegic.value.DoubleValue
-10.816

@<SCITEGIC>MOL_PROPERTY
VdW12
SciTegic.value.DoubleValue
11.643

@<SCITEGIC>MOL_PROPERTY
Bond
SciTegic.value.DoubleValue
0.325

@<SCITEGIC>MOL_PROPERTY
Angle
SciTegic.value.DoubleValue
1.610

@<SCITEGIC>MOL_PROPERTY
Pdih
SciTegic.value.DoubleValue
2.531

@<SCITEGIC>MOL_PROPERTY
Idih
SciTegic.value.DoubleValue
0.000

@<SCITEGIC>MOL_PROPERTY
Tether
SciTegic.value.DoubleValue
0.000

@<TRIPOS>MOLECULE
guest-3_vm2.mol2 : vm2 ligand conformer 193
          29          28           1
SMALL
USER_CHARGES
 
@<TRIPOS>ATOM
       1    C1      19.626124   18.481231   20.042714 C.3        1 MOL1        -0.2427
       2    H1      19.667284   19.376261   19.408570 H          1 MOL1         0.0958
       3    H2      20.643161   18.257032   20.387598 H          1 MOL1         0.0958
       4    H3      19.295792   17.641297   19.418062 H          1 MOL1         0.0958
       5    C2      18.658574   18.686418   21.229972 C.3        1 MOL1        -0.1412
       6    H4      18.646129   17.785074   21.857090 H          1 MOL1         0.0947
       7    H5      17.637453   18.796224   20.839131 H          1 MOL1         0.0947
       8    C3      18.995427   19.931875   22.088496 C.3        1 MOL1        -0.1437
       9    H6      18.911549   20.828626   21.459451 H          1 MOL1         0.0947
      10    H7      18.229878   20.045838   22.867299 H          1 MOL1         0.0947
      11    C4      20.401507   19.917865   22.746014 C.3        1 MOL1        -0.1437
      12    H8      20.531140   20.842383   23.323675 H          1 MOL1         0.0947
      13    H9      21.168094   19.961186   21.961127 H          1 MOL1         0.0947
      14    C5      20.691355   18.695787   23.658450 C.3        1 MOL1        -0.1437
      15    H10     20.729881   17.786852   23.043490 H          1 MOL1         0.0947
      16    H11     21.698384   18.806170   24.083474 H          1 MOL1         0.0947
      17    C6      19.680830   18.476302   24.813832 C.3        1 MOL1        -0.1437
      18    H12     19.976123   17.567496   25.354380 H          1 MOL1         0.0947
      19    H13     18.681775   18.274460   24.405544 H          1 MOL1         0.0947
      20    C7      19.609640   19.664152   25.805576 C.3        1 MOL1        -0.1477
      21    H14     20.608540   19.879363   26.207513 H          1 MOL1         0.0947
      22    H15     19.281012   20.568298   25.278188 H          1 MOL1         0.0947
      23    C8      18.630773   19.409401   26.967832 C.3        1 MOL1         0.0145
      24    H16     17.639361   19.176656   26.569967 H          1 MOL1         0.0921
      25    H17     18.550006   20.313083   27.578038 H          1 MOL1         0.0921
      26    N1      19.049770   18.274968   27.882115 N.4        1 MOL1        -0.5969
      27    H18     19.110150   17.384547   27.378517 H          1 MOL1         0.3603
      28    H19     18.384830   18.140797   28.651782 H          1 MOL1         0.3603
      29    H20     19.967698   18.447018   28.305273 H          1 MOL1         0.3603
@<TRIPOS>BOND
    1     1     2    1
    2     1     3    1
    3     1     4    1
    4     1     5    1
    5     5     6    1
    6     5     7    1
    7     5     8    1
    8     8     9    1
    9     8    10    1
   10     8    11    1
   11    11    12    1
   12    11    13    1
   13    11    14    1
   14    14    15    1
   15    14    16    1
   16    14    17    1
   17    17    18    1
   18    17    19    1
   19    17    20    1
   20    20    21    1
   21    20    22    1
   22    20    23    1
   23    23    24    1
   24    23    25    1
   25    23    26    1
   26    26    27    1
   27    26    28    1
   28    26    29    1
@<TRIPOS>SUBSTRUCTURE
       1 MOL1            1 RESIDUE      1      MOL     
@<SCITEGIC>MOL_PROPERTY
VM2 Rank
SciTegic.value.IntegerValue
193

@<SCITEGIC>MOL_PROPERTY
Conf_Id
SciTegic.value.IntegerValue
1003

@<SCITEGIC>MOL_PROPERTY
Probability
SciTegic.value.DoubleValue
0.04

@<SCITEGIC>MOL_PROPERTY
Sum Probability
SciTegic.value.DoubleValue
98.51

@<SCITEGIC>MOL_PROPERTY
Delta G
SciTegic.value.DoubleValue
2.855

@<SCITEGIC>MOL_PROPERTY
G
SciTegic.value.DoubleValue
61.003

@<SCITEGIC>MOL_PROPERTY
E
SciTegic.value.DoubleValue
22.643

@<SCITEGIC>MOL_PROPERTY
-TS
SciTegic.value.DoubleValue
38.360

@<SCITEGIC>MOL_PROPERTY
U+W
SciTegic.value.DoubleValue
-1.501

@<SCITEGIC>MOL_PROPERTY
U
SciTegic.value.DoubleValue
50.644

@<SCITEGIC>MOL_PROPERTY
W
SciTegic.value.DoubleValue
-52.145

@<SCITEGIC>MOL_PROPERTY
W(PB)
SciTegic.value.DoubleValue
-54.552

@<SCITEGIC>MOL_PROPERTY
W(SA)
SciTegic.value.DoubleValue
2.407

@<SCITEGIC>MOL_PROPERTY
Valence
SciTegic.value.DoubleValue
4.567

@<SCITEGIC>MOL_PROPERTY
Coulomb
SciTegic.value.DoubleValue
45.259

@<SCITEGIC>MOL_PROPERTY
VdW
SciTegic.value.DoubleValue
0.817

@<SCITEGIC>MOL_PROPERTY
VdW6
SciTegic.value.DoubleValue
-10.959

@<SCITEGIC>MOL_PROPERTY
VdW12
SciTegic.value.DoubleValue
11.776

@<SCITEGIC>MOL_PROPERTY
Bond
SciTegic.value.DoubleValue
0.338

@<SCITEGIC>MOL_PROPERTY
Angle
SciTegic.value.DoubleValue
1.774

@<SCITEGIC>MOL_PROPERTY
Pdih
SciTegic.value.DoubleValue
2.455

@<SCITEGIC>MOL_PROPERTY
Idih
SciTegic.value.DoubleValue
0.000

@<SCITEGIC>MOL_PROPERTY
Tether
SciTegic.value.DoubleValue
0.000

@<TRIPOS>MOLECULE
guest-3_vm2.mol2 : vm2 ligand conformer 194
          29          28           1
SMALL
USER_CHARGES
 
@<TRIPOS>ATOM
       1    C1      20.128050   19.944513   19.564048 C.3        1 MOL1        -0.2427
       2    H1      19.294516   19.460008   19.038948 H          1 MOL1         0.0958
       3    H2      20.297529   20.923255   19.096734 H          1 MOL1         0.0958
       4    H3      21.029092   19.336620   19.409650 H          1 MOL1         0.0958
       5    C2      19.818169   20.104799   21.067398 C.3        1 MOL1        -0.1412
       6    H4      18.932877   20.744217   21.191050 H          1 MOL1         0.0947
       7    H5      20.654177   20.622060   21.558739 H          1 MOL1         0.0947
       8    C3      19.575356   18.740479   21.749800 C.3        1 MOL1        -0.1437
       9    H6      18.740914   18.226516   21.252885 H          1 MOL1         0.0947
      10    H7      20.462015   18.104019   21.622559 H          1 MOL1         0.0947
      11    C4      19.264106   18.897520   23.255278 C.3        1 MOL1        -0.1437
      12    H8      18.372848   19.527479   23.381615 H          1 MOL1         0.0947
      13    H9      20.102763   19.416272   23.736876 H          1 MOL1         0.0947
      14    C5      19.036182   17.529736   23.940052 C.3        1 MOL1        -0.1437
      15    H10     18.303170   16.956125   23.356058 H          1 MOL1         0.0947
      16    H11     19.968603   16.949064   23.913557 H          1 MOL1         0.0947
      17    C6      18.524848   17.617846   25.401390 C.3        1 MOL1        -0.1437
      18    H12     18.360817   16.591209   25.757131 H          1 MOL1         0.0947
      19    H13     17.539025   18.102645   25.427910 H          1 MOL1         0.0947
      20    C7      19.488796   18.321912   26.389271 C.3        1 MOL1        -0.1477
      21    H14     19.312289   17.919956   27.395892 H          1 MOL1         0.0947
      22    H15     20.530088   18.080974   26.137193 H          1 MOL1         0.0947
      23    C8      19.289357   19.849132   26.442984 C.3        1 MOL1         0.0145
      24    H16     18.261831   20.073541   26.741604 H          1 MOL1         0.0921
      25    H17     19.461944   20.289219   25.459178 H          1 MOL1         0.0921
      26    N1      20.219134   20.532064   27.424778 N.4        1 MOL1        -0.5969
      27    H18     20.084872   20.186534   28.380839 H          1 MOL1         0.3603
      28    H19     20.068409   21.546592   27.449932 H          1 MOL1         0.3603
      29    H20     21.204730   20.381820   27.185180 H          1 MOL1         0.3603
@<TRIPOS>BOND
    1     1     2    1
    2     1     3    1
    3     1     4    1
    4     1     5    1
    5     5     6    1
    6     5     7    1
    7     5     8    1
    8     8     9    1
    9     8    10    1
   10     8    11    1
   11    11    12    1
   12    11    13    1
   13    11    14    1
   14    14    15    1
   15    14    16    1
   16    14    17    1
   17    17    18    1
   18    17    19    1
   19    17    20    1
   20    20    21    1
   21    20    22    1
   22    20    23    1
   23    23    24    1
   24    23    25    1
   25    23    26    1
   26    26    27    1
   27    26    28    1
   28    26    29    1
@<TRIPOS>SUBSTRUCTURE
       1 MOL1            1 RESIDUE      1      MOL     
@<SCITEGIC>MOL_PROPERTY
VM2 Rank
SciTegic.value.IntegerValue
194

@<SCITEGIC>MOL_PROPERTY
Conf_Id
SciTegic.value.IntegerValue
1051

@<SCITEGIC>MOL_PROPERTY
Probability
SciTegic.value.DoubleValue
0.04

@<SCITEGIC>MOL_PROPERTY
Sum Probability
SciTegic.value.DoubleValue
98.55

@<SCITEGIC>MOL_PROPERTY
Delta G
SciTegic.value.DoubleValue
2.888

@<SCITEGIC>MOL_PROPERTY
G
SciTegic.value.DoubleValue
61.036

@<SCITEGIC>MOL_PROPERTY
E
SciTegic.value.DoubleValue
23.512

@<SCITEGIC>MOL_PROPERTY
-TS
SciTegic.value.DoubleValue
37.524

@<SCITEGIC>MOL_PROPERTY
U+W
SciTegic.value.DoubleValue
-0.632

@<SCITEGIC>MOL_PROPERTY
U
SciTegic.value.DoubleValue
51.492

@<SCITEGIC>MOL_PROPERTY
W
SciTegic.value.DoubleValue
-52.124

@<SCITEGIC>MOL_PROPERTY
W(PB)
SciTegic.value.DoubleValue
-54.657

@<SCITEGIC>MOL_PROPERTY
W(SA)
SciTegic.value.DoubleValue
2.532

@<SCITEGIC>MOL_PROPERTY
Valence
SciTegic.value.DoubleValue
4.974

@<SCITEGIC>MOL_PROPERTY
Coulomb
SciTegic.value.DoubleValue
45.825

@<SCITEGIC>MOL_PROPERTY
VdW
SciTegic.value.DoubleValue
0.694

@<SCITEGIC>MOL_PROPERTY
VdW6
SciTegic.value.DoubleValue
-8.648

@<SCITEGIC>MOL_PROPERTY
VdW12
SciTegic.value.DoubleValue
9.342

@<SCITEGIC>MOL_PROPERTY
Bond
SciTegic.value.DoubleValue
0.214

@<SCITEGIC>MOL_PROPERTY
Angle
SciTegic.value.DoubleValue
1.149

@<SCITEGIC>MOL_PROPERTY
Pdih
SciTegic.value.DoubleValue
3.611

@<SCITEGIC>MOL_PROPERTY
Idih
SciTegic.value.DoubleValue
0.000

@<SCITEGIC>MOL_PROPERTY
Tether
SciTegic.value.DoubleValue
0.000

@<TRIPOS>MOLECULE
guest-3_vm2.mol2 : vm2 ligand conformer 195
          29          28           1
SMALL
USER_CHARGES
 
@<TRIPOS>ATOM
       1    C1      20.269156   18.295545   20.315210 C.3        1 MOL1        -0.2427
       2    H1      20.560830   19.071283   19.595439 H          1 MOL1         0.0958
       3    H2      21.093284   18.159274   21.026448 H          1 MOL1         0.0958
       4    H3      20.147960   17.353933   19.764324 H          1 MOL1         0.0958
       5    C2      18.956032   18.673857   21.036655 C.3        1 MOL1        -0.1412
       6    H4      18.690739   17.890369   21.759021 H          1 MOL1         0.0947
       7    H5      18.140643   18.693260   20.300253 H          1 MOL1         0.0947
       8    C3      19.018278   20.052642   21.741362 C.3        1 MOL1        -0.1437
       9    H6      19.183890   20.830127   20.983032 H          1 MOL1         0.0947
      10    H7      18.035958   20.274674   22.178638 H          1 MOL1         0.0947
      11    C4      20.113080   20.187485   22.833994 C.3        1 MOL1        -0.1437
      12    H8      20.041458   21.188691   23.280454 H          1 MOL1         0.0947
      13    H9      21.102804   20.147442   22.359935 H          1 MOL1         0.0947
      14    C5      20.057669   19.128664   23.965354 C.3        1 MOL1        -0.1437
      15    H10     20.225053   18.126739   23.548755 H          1 MOL1         0.0947
      16    H11     20.898757   19.317349   24.645096 H          1 MOL1         0.0947
      17    C6      18.730712   19.148566   24.765363 C.3        1 MOL1        -0.1437
      18    H12     17.891632   18.938937   24.089442 H          1 MOL1         0.0947
      19    H13     18.555077   20.154730   25.168424 H          1 MOL1         0.0947
      20    C7      18.694765   18.106362   25.911302 C.3        1 MOL1        -0.1477
      21    H14     17.711105   18.137870   26.398328 H          1 MOL1         0.0947
      22    H15     18.793719   17.098521   25.486688 H          1 MOL1         0.0947
      23    C8      19.790488   18.303715   26.978415 C.3        1 MOL1         0.0145
      24    H16     20.777312   18.221450   26.515937 H          1 MOL1         0.0921
      25    H17     19.704696   17.519978   27.735947 H          1 MOL1         0.0921
      26    N1      19.713820   19.641164   27.687346 N.4        1 MOL1        -0.5969
      27    H18     20.449803   19.740500   28.395058 H          1 MOL1         0.3603
      28    H19     18.816453   19.765923   28.167230 H          1 MOL1         0.3603
      29    H20     19.818293   20.421265   27.030938 H          1 MOL1         0.3603
@<TRIPOS>BOND
    1     1     2    1
    2     1     3    1
    3     1     4    1
    4     1     5    1
    5     5     6    1
    6     5     7    1
    7     5     8    1
    8     8     9    1
    9     8    10    1
   10     8    11    1
   11    11    12    1
   12    11    13    1
   13    11    14    1
   14    14    15    1
   15    14    16    1
   16    14    17    1
   17    17    18    1
   18    17    19    1
   19    17    20    1
   20    20    21    1
   21    20    22    1
   22    20    23    1
   23    23    24    1
   24    23    25    1
   25    23    26    1
   26    26    27    1
   27    26    28    1
   28    26    29    1
@<TRIPOS>SUBSTRUCTURE
       1 MOL1            1 RESIDUE      1      MOL     
@<SCITEGIC>MOL_PROPERTY
VM2 Rank
SciTegic.value.IntegerValue
195

@<SCITEGIC>MOL_PROPERTY
Conf_Id
SciTegic.value.IntegerValue
779

@<SCITEGIC>MOL_PROPERTY
Probability
SciTegic.value.DoubleValue
0.04

@<SCITEGIC>MOL_PROPERTY
Sum Probability
SciTegic.value.DoubleValue
98.59

@<SCITEGIC>MOL_PROPERTY
Delta G
SciTegic.value.DoubleValue
2.924

@<SCITEGIC>MOL_PROPERTY
G
SciTegic.value.DoubleValue
61.072

@<SCITEGIC>MOL_PROPERTY
E
SciTegic.value.DoubleValue
22.834

@<SCITEGIC>MOL_PROPERTY
-TS
SciTegic.value.DoubleValue
38.238

@<SCITEGIC>MOL_PROPERTY
U+W
SciTegic.value.DoubleValue
-1.310

@<SCITEGIC>MOL_PROPERTY
U
SciTegic.value.DoubleValue
50.732

@<SCITEGIC>MOL_PROPERTY
W
SciTegic.value.DoubleValue
-52.042

@<SCITEGIC>MOL_PROPERTY
W(PB)
SciTegic.value.DoubleValue
-54.444

@<SCITEGIC>MOL_PROPERTY
W(SA)
SciTegic.value.DoubleValue
2.402

@<SCITEGIC>MOL_PROPERTY
Valence
SciTegic.value.DoubleValue
4.413

@<SCITEGIC>MOL_PROPERTY
Coulomb
SciTegic.value.DoubleValue
45.469

@<SCITEGIC>MOL_PROPERTY
VdW
SciTegic.value.DoubleValue
0.849

@<SCITEGIC>MOL_PROPERTY
VdW6
SciTegic.value.DoubleValue
-10.820

@<SCITEGIC>MOL_PROPERTY
VdW12
SciTegic.value.DoubleValue
11.669

@<SCITEGIC>MOL_PROPERTY
Bond
SciTegic.value.DoubleValue
0.321

@<SCITEGIC>MOL_PROPERTY
Angle
SciTegic.value.DoubleValue
1.661

@<SCITEGIC>MOL_PROPERTY
Pdih
SciTegic.value.DoubleValue
2.430

@<SCITEGIC>MOL_PROPERTY
Idih
SciTegic.value.DoubleValue
0.000

@<SCITEGIC>MOL_PROPERTY
Tether
SciTegic.value.DoubleValue
0.000

@<TRIPOS>MOLECULE
guest-3_vm2.mol2 : vm2 ligand conformer 196
          29          28           1
SMALL
USER_CHARGES
 
@<TRIPOS>ATOM
       1    C1      19.765806   19.626124   20.148560 C.3        1 MOL1        -0.2427
       2    H1      20.087544   18.751912   19.567916 H          1 MOL1         0.0958
       3    H2      18.677009   19.574649   20.272879 H          1 MOL1         0.0958
       4    H3      19.989355   20.523483   19.557319 H          1 MOL1         0.0958
       5    C2      20.488853   19.682653   21.513045 C.3        1 MOL1        -0.1412
       6    H4      20.139905   20.555502   22.080654 H          1 MOL1         0.0947
       7    H5      21.561482   19.845366   21.338428 H          1 MOL1         0.0947
       8    C3      20.315403   18.392367   22.353706 C.3        1 MOL1        -0.1437
       9    H6      20.754890   17.549433   21.803066 H          1 MOL1         0.0947
      10    H7      20.907655   18.483824   23.273638 H          1 MOL1         0.0947
      11    C4      18.849210   18.035393   22.717783 C.3        1 MOL1        -0.1437
      12    H8      18.847196   17.110189   23.308878 H          1 MOL1         0.0947
      13    H9      18.297938   17.790730   21.800279 H          1 MOL1         0.0947
      14    C5      18.072935   19.137987   23.486831 C.3        1 MOL1        -0.1437
      15    H10     17.931694   20.007000   22.830589 H          1 MOL1         0.0947
      16    H11     17.062187   18.767569   23.706165 H          1 MOL1         0.0947
      17    C6      18.732824   19.608576   24.808328 C.3        1 MOL1        -0.1437
      18    H12     18.107307   20.399092   25.245498 H          1 MOL1         0.0947
      19    H13     19.702653   20.073892   24.591668 H          1 MOL1         0.0947
      20    C7      18.906179   18.473088   25.847247 C.3        1 MOL1        -0.1477
      21    H14     17.941817   17.971145   26.001269 H          1 MOL1         0.0947
      22    H15     19.601057   17.711782   25.470797 H          1 MOL1         0.0947
      23    C8      19.411785   18.988772   27.207980 C.3        1 MOL1         0.0145
      24    H16     19.438334   18.161796   27.922758 H          1 MOL1         0.0921
      25    H17     18.726293   19.749410   27.591229 H          1 MOL1         0.0921
      26    N1      20.801005   19.593041   27.151519 N.4        1 MOL1        -0.5969
      27    H18     21.112288   19.917632   28.073639 H          1 MOL1         0.3603
      28    H19     20.837523   20.399805   26.520720 H          1 MOL1         0.3603
      29    H20     21.496789   18.916501   26.820981 H          1 MOL1         0.3603
@<TRIPOS>BOND
    1     1     2    1
    2     1     3    1
    3     1     4    1
    4     1     5    1
    5     5     6    1
    6     5     7    1
    7     5     8    1
    8     8     9    1
    9     8    10    1
   10     8    11    1
   11    11    12    1
   12    11    13    1
   13    11    14    1
   14    14    15    1
   15    14    16    1
   16    14    17    1
   17    17    18    1
   18    17    19    1
   19    17    20    1
   20    20    21    1
   21    20    22    1
   22    20    23    1
   23    23    24    1
   24    23    25    1
   25    23    26    1
   26    26    27    1
   27    26    28    1
   28    26    29    1
@<TRIPOS>SUBSTRUCTURE
       1 MOL1            1 RESIDUE      1      MOL     
@<SCITEGIC>MOL_PROPERTY
VM2 Rank
SciTegic.value.IntegerValue
196

@<SCITEGIC>MOL_PROPERTY
Conf_Id
SciTegic.value.IntegerValue
979

@<SCITEGIC>MOL_PROPERTY
Probability
SciTegic.value.DoubleValue
0.04

@<SCITEGIC>MOL_PROPERTY
Sum Probability
SciTegic.value.DoubleValue
98.63

@<SCITEGIC>MOL_PROPERTY
Delta G
SciTegic.value.DoubleValue
2.956

@<SCITEGIC>MOL_PROPERTY
G
SciTegic.value.DoubleValue
61.104

@<SCITEGIC>MOL_PROPERTY
E
SciTegic.value.DoubleValue
22.728

@<SCITEGIC>MOL_PROPERTY
-TS
SciTegic.value.DoubleValue
38.376

@<SCITEGIC>MOL_PROPERTY
U+W
SciTegic.value.DoubleValue
-1.416

@<SCITEGIC>MOL_PROPERTY
U
SciTegic.value.DoubleValue
51.215

@<SCITEGIC>MOL_PROPERTY
W
SciTegic.value.DoubleValue
-52.631

@<SCITEGIC>MOL_PROPERTY
W(PB)
SciTegic.value.DoubleValue
-55.030

@<SCITEGIC>MOL_PROPERTY
W(SA)
SciTegic.value.DoubleValue
2.399

@<SCITEGIC>MOL_PROPERTY
Valence
SciTegic.value.DoubleValue
4.527

@<SCITEGIC>MOL_PROPERTY
Coulomb
SciTegic.value.DoubleValue
45.979

@<SCITEGIC>MOL_PROPERTY
VdW
SciTegic.value.DoubleValue
0.708

@<SCITEGIC>MOL_PROPERTY
VdW6
SciTegic.value.DoubleValue
-11.071

@<SCITEGIC>MOL_PROPERTY
VdW12
SciTegic.value.DoubleValue
11.779

@<SCITEGIC>MOL_PROPERTY
Bond
SciTegic.value.DoubleValue
0.333

@<SCITEGIC>MOL_PROPERTY
Angle
SciTegic.value.DoubleValue
1.708

@<SCITEGIC>MOL_PROPERTY
Pdih
SciTegic.value.DoubleValue
2.487

@<SCITEGIC>MOL_PROPERTY
Idih
SciTegic.value.DoubleValue
0.000

@<SCITEGIC>MOL_PROPERTY
Tether
SciTegic.value.DoubleValue
0.000

@<TRIPOS>MOLECULE
guest-3_vm2.mol2 : vm2 ligand conformer 197
          29          28           1
SMALL
USER_CHARGES
 
@<TRIPOS>ATOM
       1    C1      19.372628   18.645777   20.040064 C.3        1 MOL1        -0.2427
       2    H1      18.766464   17.853597   20.496787 H          1 MOL1         0.0958
       3    H2      18.822928   19.021563   19.167474 H          1 MOL1         0.0958
       4    H3      20.308844   18.199079   19.681082 H          1 MOL1         0.0958
       5    C2      19.651626   19.791448   21.038781 C.3        1 MOL1        -0.1412
       6    H4      18.701598   20.211111   21.395387 H          1 MOL1         0.0947
       7    H5      20.161158   20.607358   20.507580 H          1 MOL1         0.0947
       8    C3      20.530733   19.359338   22.239676 C.3        1 MOL1        -0.1437
       9    H6      21.509737   19.033588   21.862422 H          1 MOL1         0.0947
      10    H7      20.733643   20.237785   22.866243 H          1 MOL1         0.0947
      11    C4      19.936314   18.225562   23.117726 C.3        1 MOL1        -0.1437
      12    H8      20.641200   18.000063   23.928716 H          1 MOL1         0.0947
      13    H9      19.875421   17.303164   22.525284 H          1 MOL1         0.0947
      14    C5      18.537897   18.524666   23.721045 C.3        1 MOL1        -0.1437
      15    H10     17.802332   18.602107   22.909511 H          1 MOL1         0.0947
      16    H11     18.219185   17.659307   24.317304 H          1 MOL1         0.0947
      17    C6      18.457483   19.806625   24.592781 C.3        1 MOL1        -0.1437
      18    H12     17.431475   19.908188   24.972501 H          1 MOL1         0.0947
      19    H13     18.629723   20.690184   23.964054 H          1 MOL1         0.0947
      20    C7      19.438962   19.838971   25.790328 C.3        1 MOL1        -0.1477
      21    H14     20.474445   19.855017   25.427351 H          1 MOL1         0.0947
      22    H15     19.291570   20.775625   26.344094 H          1 MOL1         0.0947
      23    C8      19.244242   18.650557   26.749773 C.3        1 MOL1         0.0145
      24    H16     19.426091   17.713299   26.217461 H          1 MOL1         0.0921
      25    H17     18.216101   18.642361   27.121449 H          1 MOL1         0.0921
      26    N1      20.174115   18.695055   27.944825 N.4        1 MOL1        -0.5969
      27    H18     20.034446   19.542218   28.505370 H          1 MOL1         0.3603
      28    H19     21.159671   18.678543   27.662523 H          1 MOL1         0.3603
      29    H20     20.028499   17.895224   28.570636 H          1 MOL1         0.3603
@<TRIPOS>BOND
    1     1     2    1
    2     1     3    1
    3     1     4    1
    4     1     5    1
    5     5     6    1
    6     5     7    1
    7     5     8    1
    8     8     9    1
    9     8    10    1
   10     8    11    1
   11    11    12    1
   12    11    13    1
   13    11    14    1
   14    14    15    1
   15    14    16    1
   16    14    17    1
   17    17    18    1
   18    17    19    1
   19    17    20    1
   20    20    21    1
   21    20    22    1
   22    20    23    1
   23    23    24    1
   24    23    25    1
   25    23    26    1
   26    26    27    1
   27    26    28    1
   28    26    29    1
@<TRIPOS>SUBSTRUCTURE
       1 MOL1            1 RESIDUE      1      MOL     
@<SCITEGIC>MOL_PROPERTY
VM2 Rank
SciTegic.value.IntegerValue
197

@<SCITEGIC>MOL_PROPERTY
Conf_Id
SciTegic.value.IntegerValue
968

@<SCITEGIC>MOL_PROPERTY
Probability
SciTegic.value.DoubleValue
0.04

@<SCITEGIC>MOL_PROPERTY
Sum Probability
SciTegic.value.DoubleValue
98.66

@<SCITEGIC>MOL_PROPERTY
Delta G
SciTegic.value.DoubleValue
2.965

@<SCITEGIC>MOL_PROPERTY
G
SciTegic.value.DoubleValue
61.113

@<SCITEGIC>MOL_PROPERTY
E
SciTegic.value.DoubleValue
22.631

@<SCITEGIC>MOL_PROPERTY
-TS
SciTegic.value.DoubleValue
38.481

@<SCITEGIC>MOL_PROPERTY
U+W
SciTegic.value.DoubleValue
-1.513

@<SCITEGIC>MOL_PROPERTY
U
SciTegic.value.DoubleValue
50.794

@<SCITEGIC>MOL_PROPERTY
W
SciTegic.value.DoubleValue
-52.307

@<SCITEGIC>MOL_PROPERTY
W(PB)
SciTegic.value.DoubleValue
-54.719

@<SCITEGIC>MOL_PROPERTY
W(SA)
SciTegic.value.DoubleValue
2.412

@<SCITEGIC>MOL_PROPERTY
Valence
SciTegic.value.DoubleValue
4.673

@<SCITEGIC>MOL_PROPERTY
Coulomb
SciTegic.value.DoubleValue
45.528

@<SCITEGIC>MOL_PROPERTY
VdW
SciTegic.value.DoubleValue
0.593

@<SCITEGIC>MOL_PROPERTY
VdW6
SciTegic.value.DoubleValue
-11.313

@<SCITEGIC>MOL_PROPERTY
VdW12
SciTegic.value.DoubleValue
11.906

@<SCITEGIC>MOL_PROPERTY
Bond
SciTegic.value.DoubleValue
0.340

@<SCITEGIC>MOL_PROPERTY
Angle
SciTegic.value.DoubleValue
1.876

@<SCITEGIC>MOL_PROPERTY
Pdih
SciTegic.value.DoubleValue
2.457

@<SCITEGIC>MOL_PROPERTY
Idih
SciTegic.value.DoubleValue
0.000

@<SCITEGIC>MOL_PROPERTY
Tether
SciTegic.value.DoubleValue
0.000

@<TRIPOS>MOLECULE
guest-3_vm2.mol2 : vm2 ligand conformer 198
          29          28           1
SMALL
USER_CHARGES
 
@<TRIPOS>ATOM
       1    C1      19.713796   19.603263   20.061468 C.3        1 MOL1        -0.2427
       2    H1      20.726606   19.371500   19.707338 H          1 MOL1         0.0958
       3    H2      19.062722   19.694379   19.182492 H          1 MOL1         0.0958
       4    H3      19.738317   20.581392   20.557697 H          1 MOL1         0.0958
       5    C2      19.191773   18.500704   21.009990 C.3        1 MOL1        -0.1412
       6    H4      19.078384   17.568242   20.439759 H          1 MOL1         0.0947
       7    H5      18.185405   18.762236   21.363063 H          1 MOL1         0.0947
       8    C3      20.129085   18.231957   22.214529 C.3        1 MOL1        -0.1437
       9    H6      19.722295   17.399009   22.802870 H          1 MOL1         0.0947
      10    H7      21.098858   17.880300   21.836694 H          1 MOL1         0.0947
      11    C4      20.372637   19.450335   23.145113 C.3        1 MOL1        -0.1437
      12    H8      20.916756   20.226198   22.590600 H          1 MOL1         0.0947
      13    H9      21.049885   19.147255   23.954371 H          1 MOL1         0.0947
      14    C5      19.091517   20.078708   23.755774 C.3        1 MOL1        -0.1437
      15    H10     19.383032   20.926256   24.390305 H          1 MOL1         0.0947
      16    H11     18.484089   20.515806   22.952270 H          1 MOL1         0.0947
      17    C6      18.206706   19.102784   24.577050 C.3        1 MOL1        -0.1437
      18    H12     17.790650   18.335003   23.911428 H          1 MOL1         0.0947
      19    H13     17.342154   19.657552   24.966890 H          1 MOL1         0.0947
      20    C7      18.929846   18.410007   25.758402 C.3        1 MOL1        -0.1477
      21    H14     18.215857   17.756307   26.276665 H          1 MOL1         0.0947
      22    H15     19.727148   17.757529   25.380491 H          1 MOL1         0.0947
      23    C8      19.516532   19.414847   26.766800 C.3        1 MOL1         0.0145
      24    H16     18.719829   20.056243   27.153013 H          1 MOL1         0.0921
      25    H17     20.257271   20.046406   26.269489 H          1 MOL1         0.0921
      26    N1      20.192109   18.745394   27.945875 N.4        1 MOL1        -0.5969
      27    H18     20.575936   19.431671   28.604869 H          1 MOL1         0.3603
      28    H19     20.970191   18.146523   27.650530 H          1 MOL1         0.3603
      29    H20     19.540611   18.155757   28.474346 H          1 MOL1         0.3603
@<TRIPOS>BOND
    1     1     2    1
    2     1     3    1
    3     1     4    1
    4     1     5    1
    5     5     6    1
    6     5     7    1
    7     5     8    1
    8     8     9    1
    9     8    10    1
   10     8    11    1
   11    11    12    1
   12    11    13    1
   13    11    14    1
   14    14    15    1
   15    14    16    1
   16    14    17    1
   17    17    18    1
   18    17    19    1
   19    17    20    1
   20    20    21    1
   21    20    22    1
   22    20    23    1
   23    23    24    1
   24    23    25    1
   25    23    26    1
   26    26    27    1
   27    26    28    1
   28    26    29    1
@<TRIPOS>SUBSTRUCTURE
       1 MOL1            1 RESIDUE      1      MOL     
@<SCITEGIC>MOL_PROPERTY
VM2 Rank
SciTegic.value.IntegerValue
198

@<SCITEGIC>MOL_PROPERTY
Conf_Id
SciTegic.value.IntegerValue
974

@<SCITEGIC>MOL_PROPERTY
Probability
SciTegic.value.DoubleValue
0.03

@<SCITEGIC>MOL_PROPERTY
Sum Probability
SciTegic.value.DoubleValue
98.70

@<SCITEGIC>MOL_PROPERTY
Delta G
SciTegic.value.DoubleValue
3.004

@<SCITEGIC>MOL_PROPERTY
G
SciTegic.value.DoubleValue
61.152

@<SCITEGIC>MOL_PROPERTY
E
SciTegic.value.DoubleValue
22.671

@<SCITEGIC>MOL_PROPERTY
-TS
SciTegic.value.DoubleValue
38.481

@<SCITEGIC>MOL_PROPERTY
U+W
SciTegic.value.DoubleValue
-1.474

@<SCITEGIC>MOL_PROPERTY
U
SciTegic.value.DoubleValue
50.794

@<SCITEGIC>MOL_PROPERTY
W
SciTegic.value.DoubleValue
-52.268

@<SCITEGIC>MOL_PROPERTY
W(PB)
SciTegic.value.DoubleValue
-54.672

@<SCITEGIC>MOL_PROPERTY
W(SA)
SciTegic.value.DoubleValue
2.405

@<SCITEGIC>MOL_PROPERTY
Valence
SciTegic.value.DoubleValue
4.673

@<SCITEGIC>MOL_PROPERTY
Coulomb
SciTegic.value.DoubleValue
45.528

@<SCITEGIC>MOL_PROPERTY
VdW
SciTegic.value.DoubleValue
0.593

@<SCITEGIC>MOL_PROPERTY
VdW6
SciTegic.value.DoubleValue
-11.314

@<SCITEGIC>MOL_PROPERTY
VdW12
SciTegic.value.DoubleValue
11.907

@<SCITEGIC>MOL_PROPERTY
Bond
SciTegic.value.DoubleValue
0.340

@<SCITEGIC>MOL_PROPERTY
Angle
SciTegic.value.DoubleValue
1.875

@<SCITEGIC>MOL_PROPERTY
Pdih
SciTegic.value.DoubleValue
2.457

@<SCITEGIC>MOL_PROPERTY
Idih
SciTegic.value.DoubleValue
0.000

@<SCITEGIC>MOL_PROPERTY
Tether
SciTegic.value.DoubleValue
0.000

@<TRIPOS>MOLECULE
guest-3_vm2.mol2 : vm2 ligand conformer 199
          29          28           1
SMALL
USER_CHARGES
 
@<TRIPOS>ATOM
       1    C1      21.102305   18.909243   21.012456 C.3        1 MOL1        -0.2427
       2    H1      21.278829   19.870124   21.511625 H          1 MOL1         0.0958
       3    H2      22.064972   18.385292   20.952900 H          1 MOL1         0.0958
       4    H3      20.765156   19.110983   19.987491 H          1 MOL1         0.0958
       5    C2      20.067344   18.055272   21.778734 C.3        1 MOL1        -0.1412
       6    H4      20.419824   17.878525   22.803068 H          1 MOL1         0.0947
       7    H5      20.005888   17.065244   21.305832 H          1 MOL1         0.0947
       8    C3      18.649813   18.681208   21.800393 C.3        1 MOL1        -0.1437
       9    H6      18.279128   18.752267   20.768635 H          1 MOL1         0.0947
      10    H7      17.963620   17.993434   22.311951 H          1 MOL1         0.0947
      11    C4      18.557339   20.085481   22.455939 C.3        1 MOL1        -0.1437
      12    H8      17.509722   20.415453   22.432447 H          1 MOL1         0.0947
      13    H9      19.107264   20.809740   21.840431 H          1 MOL1         0.0947
      14    C5      19.077184   20.169443   23.913864 C.3        1 MOL1        -0.1437
      15    H10     20.150261   19.941120   23.935594 H          1 MOL1         0.0947
      16    H11     18.981935   21.209307   24.255319 H          1 MOL1         0.0947
      17    C6      18.310797   19.245959   24.893732 C.3        1 MOL1        -0.1437
      18    H12     18.458181   18.194454   24.616864 H          1 MOL1         0.0947
      19    H13     17.233248   19.439281   24.801362 H          1 MOL1         0.0947
      20    C7      18.725094   19.455043   26.371627 C.3        1 MOL1        -0.1477
      21    H14     18.494396   20.486428   26.669695 H          1 MOL1         0.0947
      22    H15     18.115666   18.806929   27.015302 H          1 MOL1         0.0947
      23    C8      20.217475   19.182177   26.647697 C.3        1 MOL1         0.0145
      24    H16     20.435748   19.387723   27.699158 H          1 MOL1         0.0921
      25    H17     20.834317   19.846257   26.036854 H          1 MOL1         0.0921
      26    N1      20.636650   17.754174   26.360558 N.4        1 MOL1        -0.5969
      27    H18     21.632363   17.602965   26.556135 H          1 MOL1         0.3603
      28    H19     20.478702   17.505770   25.379337 H          1 MOL1         0.3603
      29    H20     20.113241   17.083258   26.932611 H          1 MOL1         0.3603
@<TRIPOS>BOND
    1     1     2    1
    2     1     3    1
    3     1     4    1
    4     1     5    1
    5     5     6    1
    6     5     7    1
    7     5     8    1
    8     8     9    1
    9     8    10    1
   10     8    11    1
   11    11    12    1
   12    11    13    1
   13    11    14    1
   14    14    15    1
   15    14    16    1
   16    14    17    1
   17    17    18    1
   18    17    19    1
   19    17    20    1
   20    20    21    1
   21    20    22    1
   22    20    23    1
   23    23    24    1
   24    23    25    1
   25    23    26    1
   26    26    27    1
   27    26    28    1
   28    26    29    1
@<TRIPOS>SUBSTRUCTURE
       1 MOL1            1 RESIDUE      1      MOL     
@<SCITEGIC>MOL_PROPERTY
VM2 Rank
SciTegic.value.IntegerValue
199

@<SCITEGIC>MOL_PROPERTY
Conf_Id
SciTegic.value.IntegerValue
1375

@<SCITEGIC>MOL_PROPERTY
Probability
SciTegic.value.DoubleValue
0.02

@<SCITEGIC>MOL_PROPERTY
Sum Probability
SciTegic.value.DoubleValue
98.72

@<SCITEGIC>MOL_PROPERTY
Delta G
SciTegic.value.DoubleValue
3.279

@<SCITEGIC>MOL_PROPERTY
G
SciTegic.value.DoubleValue
61.427

@<SCITEGIC>MOL_PROPERTY
E
SciTegic.value.DoubleValue
23.215

@<SCITEGIC>MOL_PROPERTY
-TS
SciTegic.value.DoubleValue
38.213

@<SCITEGIC>MOL_PROPERTY
U+W
SciTegic.value.DoubleValue
-0.930

@<SCITEGIC>MOL_PROPERTY
U
SciTegic.value.DoubleValue
51.678

@<SCITEGIC>MOL_PROPERTY
W
SciTegic.value.DoubleValue
-52.608

@<SCITEGIC>MOL_PROPERTY
W(PB)
SciTegic.value.DoubleValue
-54.991

@<SCITEGIC>MOL_PROPERTY
W(SA)
SciTegic.value.DoubleValue
2.383

@<SCITEGIC>MOL_PROPERTY
Valence
SciTegic.value.DoubleValue
4.349

@<SCITEGIC>MOL_PROPERTY
Coulomb
SciTegic.value.DoubleValue
46.773

@<SCITEGIC>MOL_PROPERTY
VdW
SciTegic.value.DoubleValue
0.557

@<SCITEGIC>MOL_PROPERTY
VdW6
SciTegic.value.DoubleValue
-11.096

@<SCITEGIC>MOL_PROPERTY
VdW12
SciTegic.value.DoubleValue
11.653

@<SCITEGIC>MOL_PROPERTY
Bond
SciTegic.value.DoubleValue
0.314

@<SCITEGIC>MOL_PROPERTY
Angle
SciTegic.value.DoubleValue
1.558

@<SCITEGIC>MOL_PROPERTY
Pdih
SciTegic.value.DoubleValue
2.477

@<SCITEGIC>MOL_PROPERTY
Idih
SciTegic.value.DoubleValue
0.000

@<SCITEGIC>MOL_PROPERTY
Tether
SciTegic.value.DoubleValue
0.000

@<TRIPOS>MOLECULE
guest-3_vm2.mol2 : vm2 ligand conformer 200
          29          28           1
SMALL
USER_CHARGES
 
@<TRIPOS>ATOM
       1    C1      19.935615   20.007864   19.841006 C.3        1 MOL1        -0.2427
       2    H1      20.893952   20.474492   20.103442 H          1 MOL1         0.0958
       3    H2      19.829021   20.050739   18.749341 H          1 MOL1         0.0958
       4    H3      19.128631   20.611172   20.274897 H          1 MOL1         0.0958
       5    C2      19.877322   18.543897   20.332836 C.3        1 MOL1        -0.1412
       6    H4      20.623686   17.955225   19.781330 H          1 MOL1         0.0947
       7    H5      18.898757   18.109437   20.085088 H          1 MOL1         0.0947
       8    C3      20.148045   18.393302   21.849206 C.3        1 MOL1        -0.1437
       9    H6      20.198269   17.322314   22.089520 H          1 MOL1         0.0947
      10    H7      21.135862   18.810714   22.088314 H          1 MOL1         0.0947
      11    C4      19.070144   19.060258   22.736941 C.3        1 MOL1        -0.1437
      12    H8      18.078469   18.678684   22.457398 H          1 MOL1         0.0947
      13    H9      19.057444   20.143666   22.559422 H          1 MOL1         0.0947
      14    C5      19.321225   18.796824   24.238844 C.3        1 MOL1        -0.1437
      15    H10     19.320080   17.714002   24.425493 H          1 MOL1         0.0947
      16    H11     20.317377   19.174850   24.499824 H          1 MOL1         0.0947
      17    C6      18.253028   19.478677   25.126122 C.3        1 MOL1        -0.1437
      18    H12     17.255449   19.208099   24.753257 H          1 MOL1         0.0947
      19    H13     18.332899   20.569708   25.022645 H          1 MOL1         0.0947
      20    C7      18.326180   19.096289   26.626518 C.3        1 MOL1        -0.1477
      21    H14     17.478291   19.572428   27.136640 H          1 MOL1         0.0947
      22    H15     18.184947   18.014622   26.752742 H          1 MOL1         0.0947
      23    C8      19.617258   19.547503   27.340288 C.3        1 MOL1         0.0145
      24    H16     19.429465   19.600256   28.416126 H          1 MOL1         0.0921
      25    H17     19.902505   20.545292   26.996294 H          1 MOL1         0.0921
      26    N1      20.795182   18.613385   27.143240 N.4        1 MOL1        -0.5969
      27    H18     21.633169   18.950287   27.630013 H          1 MOL1         0.3603
      28    H19     21.038799   18.513483   26.153750 H          1 MOL1         0.3603
      29    H20     20.597832   17.673795   27.503205 H          1 MOL1         0.3603
@<TRIPOS>BOND
    1     1     2    1
    2     1     3    1
    3     1     4    1
    4     1     5    1
    5     5     6    1
    6     5     7    1
    7     5     8    1
    8     8     9    1
    9     8    10    1
   10     8    11    1
   11    11    12    1
   12    11    13    1
   13    11    14    1
   14    14    15    1
   15    14    16    1
   16    14    17    1
   17    17    18    1
   18    17    19    1
   19    17    20    1
   20    20    21    1
   21    20    22    1
   22    20    23    1
   23    23    24    1
   24    23    25    1
   25    23    26    1
   26    26    27    1
   27    26    28    1
   28    26    29    1
@<TRIPOS>SUBSTRUCTURE
       1 MOL1            1 RESIDUE      1      MOL     
@<SCITEGIC>MOL_PROPERTY
VM2 Rank
SciTegic.value.IntegerValue
200

@<SCITEGIC>MOL_PROPERTY
Conf_Id
SciTegic.value.IntegerValue
2654

@<SCITEGIC>MOL_PROPERTY
Probability
SciTegic.value.DoubleValue
0.02

@<SCITEGIC>MOL_PROPERTY
Sum Probability
SciTegic.value.DoubleValue
98.74

@<SCITEGIC>MOL_PROPERTY
Delta G
SciTegic.value.DoubleValue
3.300

@<SCITEGIC>MOL_PROPERTY
G
SciTegic.value.DoubleValue
61.448

@<SCITEGIC>MOL_PROPERTY
E
SciTegic.value.DoubleValue
23.996

@<SCITEGIC>MOL_PROPERTY
-TS
SciTegic.value.DoubleValue
37.452

@<SCITEGIC>MOL_PROPERTY
U+W
SciTegic.value.DoubleValue
-0.149

@<SCITEGIC>MOL_PROPERTY
U
SciTegic.value.DoubleValue
51.917

@<SCITEGIC>MOL_PROPERTY
W
SciTegic.value.DoubleValue
-52.066

@<SCITEGIC>MOL_PROPERTY
W(PB)
SciTegic.value.DoubleValue
-54.539

@<SCITEGIC>MOL_PROPERTY
W(SA)
SciTegic.value.DoubleValue
2.473

@<SCITEGIC>MOL_PROPERTY
Valence
SciTegic.value.DoubleValue
4.676

@<SCITEGIC>MOL_PROPERTY
Coulomb
SciTegic.value.DoubleValue
46.406

@<SCITEGIC>MOL_PROPERTY
VdW
SciTegic.value.DoubleValue
0.834

@<SCITEGIC>MOL_PROPERTY
VdW6
SciTegic.value.DoubleValue
-9.054

@<SCITEGIC>MOL_PROPERTY
VdW12
SciTegic.value.DoubleValue
9.889

@<SCITEGIC>MOL_PROPERTY
Bond
SciTegic.value.DoubleValue
0.237

@<SCITEGIC>MOL_PROPERTY
Angle
SciTegic.value.DoubleValue
1.196

@<SCITEGIC>MOL_PROPERTY
Pdih
SciTegic.value.DoubleValue
3.243

@<SCITEGIC>MOL_PROPERTY
Idih
SciTegic.value.DoubleValue
0.000

@<SCITEGIC>MOL_PROPERTY
Tether
SciTegic.value.DoubleValue
0.000

@<TRIPOS>MOLECULE
guest-3_vm2.mol2 : vm2 ligand conformer 201
          29          28           1
SMALL
USER_CHARGES
 
@<TRIPOS>ATOM
       1    C1      19.291651   18.201666   19.800518 C.3        1 MOL1        -0.2427
       2    H1      19.734992   17.224168   20.030669 H          1 MOL1         0.0958
       3    H2      18.278909   18.228108   20.221374 H          1 MOL1         0.0958
       4    H3      19.197568   18.279273   18.709620 H          1 MOL1         0.0958
       5    C2      20.165361   19.351497   20.350981 C.3        1 MOL1        -0.1412
       6    H4      19.685759   20.316316   20.134571 H          1 MOL1         0.0947
       7    H5      21.123553   19.356799   19.812844 H          1 MOL1         0.0947
       8    C3      20.448692   19.236506   21.868164 C.3        1 MOL1        -0.1437
       9    H6      20.946508   18.279442   22.076471 H          1 MOL1         0.0947
      10    H7      21.161364   20.023809   22.150197 H          1 MOL1         0.0947
      11    C4      19.179408   19.366717   22.743801 C.3        1 MOL1        -0.1437
      12    H8      18.487139   18.543477   22.523605 H          1 MOL1         0.0947
      13    H9      18.656410   20.300015   22.493619 H          1 MOL1         0.0947
      14    C5      19.519138   19.352261   24.251288 C.3        1 MOL1        -0.1437
      15    H10     20.048182   18.419649   24.482988 H          1 MOL1         0.0947
      16    H11     20.200123   20.183489   24.480773 H          1 MOL1         0.0947
      17    C6      18.247981   19.464706   25.125783 C.3        1 MOL1        -0.1437
      18    H12     17.621681   18.573999   24.978047 H          1 MOL1         0.0947
      19    H13     17.651418   20.319435   24.778002 H          1 MOL1         0.0947
      20    C7      18.525133   19.654981   26.638973 C.3        1 MOL1        -0.1477
      21    H14     19.097453   20.576448   26.809939 H          1 MOL1         0.0947
      22    H15     17.560026   19.802038   27.141754 H          1 MOL1         0.0947
      23    C8      19.230394   18.461584   27.315993 C.3        1 MOL1         0.0145
      24    H16     18.825775   17.522656   26.928726 H          1 MOL1         0.0921
      25    H17     19.036361   18.496778   28.391441 H          1 MOL1         0.0921
      26    N1      20.736241   18.448081   27.139498 N.4        1 MOL1        -0.5969
      27    H18     21.002110   18.410660   26.151402 H          1 MOL1         0.3603
      28    H19     21.165850   17.638496   27.600670 H          1 MOL1         0.3603
      29    H20     21.171970   19.285797   27.539147 H          1 MOL1         0.3603
@<TRIPOS>BOND
    1     1     2    1
    2     1     3    1
    3     1     4    1
    4     1     5    1
    5     5     6    1
    6     5     7    1
    7     5     8    1
    8     8     9    1
    9     8    10    1
   10     8    11    1
   11    11    12    1
   12    11    13    1
   13    11    14    1
   14    14    15    1
   15    14    16    1
   16    14    17    1
   17    17    18    1
   18    17    19    1
   19    17    20    1
   20    20    21    1
   21    20    22    1
   22    20    23    1
   23    23    24    1
   24    23    25    1
   25    23    26    1
   26    26    27    1
   27    26    28    1
   28    26    29    1
@<TRIPOS>SUBSTRUCTURE
       1 MOL1            1 RESIDUE      1      MOL     
@<SCITEGIC>MOL_PROPERTY
VM2 Rank
SciTegic.value.IntegerValue
201

@<SCITEGIC>MOL_PROPERTY
Conf_Id
SciTegic.value.IntegerValue
643

@<SCITEGIC>MOL_PROPERTY
Probability
SciTegic.value.DoubleValue
0.02

@<SCITEGIC>MOL_PROPERTY
Sum Probability
SciTegic.value.DoubleValue
98.76

@<SCITEGIC>MOL_PROPERTY
Delta G
SciTegic.value.DoubleValue
3.309

@<SCITEGIC>MOL_PROPERTY
G
SciTegic.value.DoubleValue
61.457

@<SCITEGIC>MOL_PROPERTY
E
SciTegic.value.DoubleValue
24.005

@<SCITEGIC>MOL_PROPERTY
-TS
SciTegic.value.DoubleValue
37.452

@<SCITEGIC>MOL_PROPERTY
U+W
SciTegic.value.DoubleValue
-0.139

@<SCITEGIC>MOL_PROPERTY
U
SciTegic.value.DoubleValue
51.917

@<SCITEGIC>MOL_PROPERTY
W
SciTegic.value.DoubleValue
-52.057

@<SCITEGIC>MOL_PROPERTY
W(PB)
SciTegic.value.DoubleValue
-54.529

@<SCITEGIC>MOL_PROPERTY
W(SA)
SciTegic.value.DoubleValue
2.473

@<SCITEGIC>MOL_PROPERTY
Valence
SciTegic.value.DoubleValue
4.676

@<SCITEGIC>MOL_PROPERTY
Coulomb
SciTegic.value.DoubleValue
46.406

@<SCITEGIC>MOL_PROPERTY
VdW
SciTegic.value.DoubleValue
0.835

@<SCITEGIC>MOL_PROPERTY
VdW6
SciTegic.value.DoubleValue
-9.055

@<SCITEGIC>MOL_PROPERTY
VdW12
SciTegic.value.DoubleValue
9.890

@<SCITEGIC>MOL_PROPERTY
Bond
SciTegic.value.DoubleValue
0.237

@<SCITEGIC>MOL_PROPERTY
Angle
SciTegic.value.DoubleValue
1.196

@<SCITEGIC>MOL_PROPERTY
Pdih
SciTegic.value.DoubleValue
3.243

@<SCITEGIC>MOL_PROPERTY
Idih
SciTegic.value.DoubleValue
0.000

@<SCITEGIC>MOL_PROPERTY
Tether
SciTegic.value.DoubleValue
0.000

@<TRIPOS>MOLECULE
guest-3_vm2.mol2 : vm2 ligand conformer 202
          29          28           1
SMALL
USER_CHARGES
 
@<TRIPOS>ATOM
       1    C1      19.441009   17.388723   20.335813 C.3        1 MOL1        -0.2427
       2    H1      19.764035   17.775900   19.360628 H          1 MOL1         0.0958
       3    H2      20.287621   16.858057   20.790622 H          1 MOL1         0.0958
       4    H3      18.640504   16.658423   20.160091 H          1 MOL1         0.0958
       5    C2      18.946759   18.529713   21.249832 C.3        1 MOL1        -0.1412
       6    H4      18.592003   18.103862   22.196027 H          1 MOL1         0.0947
       7    H5      18.079648   19.017403   20.782938 H          1 MOL1         0.0947
       8    C3      20.056372   19.578726   21.502605 C.3        1 MOL1        -0.1437
       9    H6      20.955173   19.096030   21.910341 H          1 MOL1         0.0947
      10    H7      20.353275   20.001206   20.532675 H          1 MOL1         0.0947
      11    C4      19.608616   20.740511   22.427447 C.3        1 MOL1        -0.1437
      12    H8      18.526904   20.908162   22.332905 H          1 MOL1         0.0947
      13    H9      20.083018   21.664677   22.069337 H          1 MOL1         0.0947
      14    C5      19.993066   20.567725   23.919606 C.3        1 MOL1        -0.1437
      15    H10     21.086641   20.510392   24.009674 H          1 MOL1         0.0947
      16    H11     19.689174   21.474953   24.459903 H          1 MOL1         0.0947
      17    C6      19.355843   19.336549   24.604552 C.3        1 MOL1        -0.1437
      18    H12     19.748494   18.416845   24.151352 H          1 MOL1         0.0947
      19    H13     18.269553   19.343420   24.439331 H          1 MOL1         0.0947
      20    C7      19.645617   19.309209   26.121306 C.3        1 MOL1        -0.1477
      21    H14     20.730760   19.303988   26.290298 H          1 MOL1         0.0947
      22    H15     19.250252   20.219975   26.590626 H          1 MOL1         0.0947
      23    C8      19.017194   18.074934   26.791560 C.3        1 MOL1         0.0145
      24    H16     19.420391   17.164847   26.339203 H          1 MOL1         0.0921
      25    H17     17.934484   18.084573   26.639572 H          1 MOL1         0.0921
      26    N1      19.279524   18.011910   28.282280 N.4        1 MOL1        -0.5969
      27    H18     18.852551   17.182512   28.709499 H          1 MOL1         0.3603
      28    H19     18.899735   18.829084   28.771685 H          1 MOL1         0.3603
      29    H20     20.282500   17.973334   28.492218 H          1 MOL1         0.3603
@<TRIPOS>BOND
    1     1     2    1
    2     1     3    1
    3     1     4    1
    4     1     5    1
    5     5     6    1
    6     5     7    1
    7     5     8    1
    8     8     9    1
    9     8    10    1
   10     8    11    1
   11    11    12    1
   12    11    13    1
   13    11    14    1
   14    14    15    1
   15    14    16    1
   16    14    17    1
   17    17    18    1
   18    17    19    1
   19    17    20    1
   20    20    21    1
   21    20    22    1
   22    20    23    1
   23    23    24    1
   24    23    25    1
   25    23    26    1
   26    26    27    1
   27    26    28    1
   28    26    29    1
@<TRIPOS>SUBSTRUCTURE
       1 MOL1            1 RESIDUE      1      MOL     
@<SCITEGIC>MOL_PROPERTY
VM2 Rank
SciTegic.value.IntegerValue
202

@<SCITEGIC>MOL_PROPERTY
Conf_Id
SciTegic.value.IntegerValue
2171

@<SCITEGIC>MOL_PROPERTY
Probability
SciTegic.value.DoubleValue
0.02

@<SCITEGIC>MOL_PROPERTY
Sum Probability
SciTegic.value.DoubleValue
98.78

@<SCITEGIC>MOL_PROPERTY
Delta G
SciTegic.value.DoubleValue
3.322

@<SCITEGIC>MOL_PROPERTY
G
SciTegic.value.DoubleValue
61.470

@<SCITEGIC>MOL_PROPERTY
E
SciTegic.value.DoubleValue
23.901

@<SCITEGIC>MOL_PROPERTY
-TS
SciTegic.value.DoubleValue
37.569

@<SCITEGIC>MOL_PROPERTY
U+W
SciTegic.value.DoubleValue
-0.244

@<SCITEGIC>MOL_PROPERTY
U
SciTegic.value.DoubleValue
51.355

@<SCITEGIC>MOL_PROPERTY
W
SciTegic.value.DoubleValue
-51.598

@<SCITEGIC>MOL_PROPERTY
W(PB)
SciTegic.value.DoubleValue
-54.064

@<SCITEGIC>MOL_PROPERTY
W(SA)
SciTegic.value.DoubleValue
2.465

@<SCITEGIC>MOL_PROPERTY
Valence
SciTegic.value.DoubleValue
5.617

@<SCITEGIC>MOL_PROPERTY
Coulomb
SciTegic.value.DoubleValue
44.962

@<SCITEGIC>MOL_PROPERTY
VdW
SciTegic.value.DoubleValue
0.776

@<SCITEGIC>MOL_PROPERTY
VdW6
SciTegic.value.DoubleValue
-8.606

@<SCITEGIC>MOL_PROPERTY
VdW12
SciTegic.value.DoubleValue
9.382

@<SCITEGIC>MOL_PROPERTY
Bond
SciTegic.value.DoubleValue
0.231

@<SCITEGIC>MOL_PROPERTY
Angle
SciTegic.value.DoubleValue
1.168

@<SCITEGIC>MOL_PROPERTY
Pdih
SciTegic.value.DoubleValue
4.217

@<SCITEGIC>MOL_PROPERTY
Idih
SciTegic.value.DoubleValue
0.000

@<SCITEGIC>MOL_PROPERTY
Tether
SciTegic.value.DoubleValue
0.000

@<TRIPOS>MOLECULE
guest-3_vm2.mol2 : vm2 ligand conformer 203
          29          28           1
SMALL
USER_CHARGES
 
@<TRIPOS>ATOM
       1    C1      18.863547   19.281028   19.481279 C.3        1 MOL1        -0.2427
       2    H1      17.939070   19.507245   18.934279 H          1 MOL1         0.0958
       3    H2      19.610852   20.037274   19.207637 H          1 MOL1         0.0958
       4    H3      19.226324   18.302633   19.140127 H          1 MOL1         0.0958
       5    C2      18.609225   19.278179   21.003480 C.3        1 MOL1        -0.1412
       6    H4      17.834297   18.536336   21.242325 H          1 MOL1         0.0947
       7    H5      18.215530   20.257718   21.309062 H          1 MOL1         0.0947
       8    C3      19.895898   18.962184   21.797601 C.3        1 MOL1        -0.1437
       9    H6      20.286687   17.983641   21.485993 H          1 MOL1         0.0947
      10    H7      20.668283   19.705130   21.554932 H          1 MOL1         0.0947
      11    C4      19.644436   18.957854   23.322327 C.3        1 MOL1        -0.1437
      12    H8      18.877872   18.209307   23.565363 H          1 MOL1         0.0947
      13    H9      19.250243   19.938565   23.616836 H          1 MOL1         0.0947
      14    C5      20.936965   18.657576   24.116393 C.3        1 MOL1        -0.1437
      15    H10     21.413408   17.761382   23.695427 H          1 MOL1         0.0947
      16    H11     21.652512   19.478847   23.972360 H          1 MOL1         0.0947
      17    C6      20.722406   18.418983   25.633511 C.3        1 MOL1        -0.1437
      18    H12     21.700104   18.167379   26.067264 H          1 MOL1         0.0947
      19    H13     20.096626   17.530585   25.788195 H          1 MOL1         0.0947
      20    C7      20.152834   19.633027   26.415279 C.3        1 MOL1        -0.1477
      21    H14     20.470888   19.561204   27.463889 H          1 MOL1         0.0947
      22    H15     20.595875   20.560846   26.029827 H          1 MOL1         0.0947
      23    C8      18.614105   19.749763   26.389224 C.3        1 MOL1         0.0145
      24    H16     18.253146   19.800611   25.360721 H          1 MOL1         0.0921
      25    H17     18.315073   20.670212   26.897978 H          1 MOL1         0.0921
      26    N1      17.904584   18.599407   27.075905 N.4        1 MOL1        -0.5969
      27    H18     18.114094   17.702497   26.626982 H          1 MOL1         0.3603
      28    H19     16.885399   18.714995   27.057445 H          1 MOL1         0.3603
      29    H20     18.179021   18.517138   28.060353 H          1 MOL1         0.3603
@<TRIPOS>BOND
    1     1     2    1
    2     1     3    1
    3     1     4    1
    4     1     5    1
    5     5     6    1
    6     5     7    1
    7     5     8    1
    8     8     9    1
    9     8    10    1
   10     8    11    1
   11    11    12    1
   12    11    13    1
   13    11    14    1
   14    14    15    1
   15    14    16    1
   16    14    17    1
   17    17    18    1
   18    17    19    1
   19    17    20    1
   20    20    21    1
   21    20    22    1
   22    20    23    1
   23    23    24    1
   24    23    25    1
   25    23    26    1
   26    26    27    1
   27    26    28    1
   28    26    29    1
@<TRIPOS>SUBSTRUCTURE
       1 MOL1            1 RESIDUE      1      MOL     
@<SCITEGIC>MOL_PROPERTY
VM2 Rank
SciTegic.value.IntegerValue
203

@<SCITEGIC>MOL_PROPERTY
Conf_Id
SciTegic.value.IntegerValue
2192

@<SCITEGIC>MOL_PROPERTY
Probability
SciTegic.value.DoubleValue
0.02

@<SCITEGIC>MOL_PROPERTY
Sum Probability
SciTegic.value.DoubleValue
98.80

@<SCITEGIC>MOL_PROPERTY
Delta G
SciTegic.value.DoubleValue
3.331

@<SCITEGIC>MOL_PROPERTY
G
SciTegic.value.DoubleValue
61.479

@<SCITEGIC>MOL_PROPERTY
E
SciTegic.value.DoubleValue
23.895

@<SCITEGIC>MOL_PROPERTY
-TS
SciTegic.value.DoubleValue
37.584

@<SCITEGIC>MOL_PROPERTY
U+W
SciTegic.value.DoubleValue
-0.249

@<SCITEGIC>MOL_PROPERTY
U
SciTegic.value.DoubleValue
51.962

@<SCITEGIC>MOL_PROPERTY
W
SciTegic.value.DoubleValue
-52.211

@<SCITEGIC>MOL_PROPERTY
W(PB)
SciTegic.value.DoubleValue
-54.709

@<SCITEGIC>MOL_PROPERTY
W(SA)
SciTegic.value.DoubleValue
2.498

@<SCITEGIC>MOL_PROPERTY
Valence
SciTegic.value.DoubleValue
5.131

@<SCITEGIC>MOL_PROPERTY
Coulomb
SciTegic.value.DoubleValue
46.085

@<SCITEGIC>MOL_PROPERTY
VdW
SciTegic.value.DoubleValue
0.747

@<SCITEGIC>MOL_PROPERTY
VdW6
SciTegic.value.DoubleValue
-9.218

@<SCITEGIC>MOL_PROPERTY
VdW12
SciTegic.value.DoubleValue
9.965

@<SCITEGIC>MOL_PROPERTY
Bond
SciTegic.value.DoubleValue
0.247

@<SCITEGIC>MOL_PROPERTY
Angle
SciTegic.value.DoubleValue
1.342

@<SCITEGIC>MOL_PROPERTY
Pdih
SciTegic.value.DoubleValue
3.542

@<SCITEGIC>MOL_PROPERTY
Idih
SciTegic.value.DoubleValue
0.000

@<SCITEGIC>MOL_PROPERTY
Tether
SciTegic.value.DoubleValue
0.000

@<TRIPOS>MOLECULE
guest-3_vm2.mol2 : vm2 ligand conformer 204
          29          28           1
SMALL
USER_CHARGES
 
@<TRIPOS>ATOM
       1    C1      20.217561   17.674191   20.763354 C.3        1 MOL1        -0.2427
       2    H1      21.233539   17.928114   21.092244 H          1 MOL1         0.0958
       3    H2      19.668005   17.254874   21.615086 H          1 MOL1         0.0958
       4    H3      20.297208   16.885120   20.004485 H          1 MOL1         0.0958
       5    C2      19.494578   18.909223   20.183393 C.3        1 MOL1        -0.1412
       6    H4      18.461325   18.638412   19.925053 H          1 MOL1         0.0947
       7    H5      19.980620   19.190320   19.238689 H          1 MOL1         0.0947
       8    C3      19.489188   20.144544   21.119629 C.3        1 MOL1        -0.1437
       9    H6      20.517752   20.485660   21.300639 H          1 MOL1         0.0947
      10    H7      18.995925   20.965109   20.580444 H          1 MOL1         0.0947
      11    C4      18.746216   19.935684   22.464925 C.3        1 MOL1        -0.1437
      12    H8      17.947314   19.191552   22.341976 H          1 MOL1         0.0947
      13    H9      18.246386   20.876147   22.735224 H          1 MOL1         0.0947
      14    C5      19.683311   19.535716   23.630702 C.3        1 MOL1        -0.1437
      15    H10     20.229276   18.617272   23.384904 H          1 MOL1         0.0947
      16    H11     20.439257   20.319947   23.774795 H          1 MOL1         0.0947
      17    C6      18.902287   19.327846   24.947794 C.3        1 MOL1        -0.1437
      18    H12     18.144689   18.544547   24.805609 H          1 MOL1         0.0947
      19    H13     18.362141   20.249754   25.204796 H          1 MOL1         0.0947
      20    C7      19.835036   18.935505   26.114580 C.3        1 MOL1        -0.1477
      21    H14     20.372594   18.011257   25.863766 H          1 MOL1         0.0947
      22    H15     20.590949   19.718217   26.263100 H          1 MOL1         0.0947
      23    C8      19.047171   18.730770   27.420309 C.3        1 MOL1         0.0145
      24    H16     18.304306   17.940507   27.282138 H          1 MOL1         0.0921
      25    H17     18.523224   19.653816   27.682842 H          1 MOL1         0.0921
      26    N1      19.928652   18.344521   28.590314 N.4        1 MOL1        -0.5969
      27    H18     20.430334   17.467094   28.417203 H          1 MOL1         0.3603
      28    H19     19.384404   18.213032   29.450112 H          1 MOL1         0.3603
      29    H20     20.634060   19.061501   28.790019 H          1 MOL1         0.3603
@<TRIPOS>BOND
    1     1     2    1
    2     1     3    1
    3     1     4    1
    4     1     5    1
    5     5     6    1
    6     5     7    1
    7     5     8    1
    8     8     9    1
    9     8    10    1
   10     8    11    1
   11    11    12    1
   12    11    13    1
   13    11    14    1
   14    14    15    1
   15    14    16    1
   16    14    17    1
   17    17    18    1
   18    17    19    1
   19    17    20    1
   20    20    21    1
   21    20    22    1
   22    20    23    1
   23    23    24    1
   24    23    25    1
   25    23    26    1
   26    26    27    1
   27    26    28    1
   28    26    29    1
@<TRIPOS>SUBSTRUCTURE
       1 MOL1            1 RESIDUE      1      MOL     
@<SCITEGIC>MOL_PROPERTY
VM2 Rank
SciTegic.value.IntegerValue
204

@<SCITEGIC>MOL_PROPERTY
Conf_Id
SciTegic.value.IntegerValue
876

@<SCITEGIC>MOL_PROPERTY
Probability
SciTegic.value.DoubleValue
0.02

@<SCITEGIC>MOL_PROPERTY
Sum Probability
SciTegic.value.DoubleValue
98.82

@<SCITEGIC>MOL_PROPERTY
Delta G
SciTegic.value.DoubleValue
3.332

@<SCITEGIC>MOL_PROPERTY
G
SciTegic.value.DoubleValue
61.480

@<SCITEGIC>MOL_PROPERTY
E
SciTegic.value.DoubleValue
23.941

@<SCITEGIC>MOL_PROPERTY
-TS
SciTegic.value.DoubleValue
37.538

@<SCITEGIC>MOL_PROPERTY
U+W
SciTegic.value.DoubleValue
-0.203

@<SCITEGIC>MOL_PROPERTY
U
SciTegic.value.DoubleValue
51.075

@<SCITEGIC>MOL_PROPERTY
W
SciTegic.value.DoubleValue
-51.278

@<SCITEGIC>MOL_PROPERTY
W(PB)
SciTegic.value.DoubleValue
-53.783

@<SCITEGIC>MOL_PROPERTY
W(SA)
SciTegic.value.DoubleValue
2.505

@<SCITEGIC>MOL_PROPERTY
Valence
SciTegic.value.DoubleValue
5.555

@<SCITEGIC>MOL_PROPERTY
Coulomb
SciTegic.value.DoubleValue
44.691

@<SCITEGIC>MOL_PROPERTY
VdW
SciTegic.value.DoubleValue
0.829

@<SCITEGIC>MOL_PROPERTY
VdW6
SciTegic.value.DoubleValue
-8.485

@<SCITEGIC>MOL_PROPERTY
VdW12
SciTegic.value.DoubleValue
9.313

@<SCITEGIC>MOL_PROPERTY
Bond
SciTegic.value.DoubleValue
0.230

@<SCITEGIC>MOL_PROPERTY
Angle
SciTegic.value.DoubleValue
1.153

@<SCITEGIC>MOL_PROPERTY
Pdih
SciTegic.value.DoubleValue
4.172

@<SCITEGIC>MOL_PROPERTY
Idih
SciTegic.value.DoubleValue
0.000

@<SCITEGIC>MOL_PROPERTY
Tether
SciTegic.value.DoubleValue
0.000

@<TRIPOS>MOLECULE
guest-3_vm2.mol2 : vm2 ligand conformer 205
          29          28           1
SMALL
USER_CHARGES
 
@<TRIPOS>ATOM
       1    C1      20.732569   17.586186   20.527660 C.3        1 MOL1        -0.2427
       2    H1      20.722762   17.274171   19.475240 H          1 MOL1         0.0958
       3    H2      21.739166   17.957854   20.759740 H          1 MOL1         0.0958
       4    H3      20.545405   16.697515   21.144480 H          1 MOL1         0.0958
       5    C2      19.667465   18.673370   20.783499 C.3        1 MOL1        -0.1412
       6    H4      18.676213   18.284199   20.511710 H          1 MOL1         0.0947
       7    H5      19.861048   19.534145   20.128175 H          1 MOL1         0.0947
       8    C3      19.661214   19.130852   22.258781 C.3        1 MOL1        -0.1437
       9    H6      19.473152   18.259640   22.899470 H          1 MOL1         0.0947
      10    H7      20.652252   19.523634   22.524441 H          1 MOL1         0.0947
      11    C4      18.586900   20.211588   22.520975 C.3        1 MOL1        -0.1437
      12    H8      17.589926   19.785914   22.341815 H          1 MOL1         0.0947
      13    H9      18.709074   21.021788   21.788888 H          1 MOL1         0.0947
      14    C5      18.634257   20.830947   23.941687 C.3        1 MOL1        -0.1437
      15    H10     19.587638   21.355621   24.093272 H          1 MOL1         0.0947
      16    H11     17.858910   21.608171   23.988556 H          1 MOL1         0.0947
      17    C6      18.381829   19.827254   25.096878 C.3        1 MOL1        -0.1437
      18    H12     17.744107   19.002879   24.748754 H          1 MOL1         0.0947
      19    H13     17.811618   20.339504   25.884412 H          1 MOL1         0.0947
      20    C7      19.682221   19.274799   25.728291 C.3        1 MOL1        -0.1477
      21    H14     20.299764   18.778678   24.971147 H          1 MOL1         0.0947
      22    H15     20.277500   20.106611   26.127861 H          1 MOL1         0.0947
      23    C8      19.375075   18.280229   26.861343 C.3        1 MOL1         0.0145
      24    H16     18.796724   17.440263   26.467130 H          1 MOL1         0.0921
      25    H17     18.780756   18.774828   27.634391 H          1 MOL1         0.0921
      26    N1      20.622470   17.722776   27.515886 N.4        1 MOL1        -0.5969
      27    H18     20.395184   17.063145   28.268178 H          1 MOL1         0.3603
      28    H19     21.198599   18.462382   27.931299 H          1 MOL1         0.3603
      29    H20     21.213390   17.219639   26.845758 H          1 MOL1         0.3603
@<TRIPOS>BOND
    1     1     2    1
    2     1     3    1
    3     1     4    1
    4     1     5    1
    5     5     6    1
    6     5     7    1
    7     5     8    1
    8     8     9    1
    9     8    10    1
   10     8    11    1
   11    11    12    1
   12    11    13    1
   13    11    14    1
   14    14    15    1
   15    14    16    1
   16    14    17    1
   17    17    18    1
   18    17    19    1
   19    17    20    1
   20    20    21    1
   21    20    22    1
   22    20    23    1
   23    23    24    1
   24    23    25    1
   25    23    26    1
   26    26    27    1
   27    26    28    1
   28    26    29    1
@<TRIPOS>SUBSTRUCTURE
       1 MOL1            1 RESIDUE      1      MOL     
@<SCITEGIC>MOL_PROPERTY
VM2 Rank
SciTegic.value.IntegerValue
205

@<SCITEGIC>MOL_PROPERTY
Conf_Id
SciTegic.value.IntegerValue
2609

@<SCITEGIC>MOL_PROPERTY
Probability
SciTegic.value.DoubleValue
0.02

@<SCITEGIC>MOL_PROPERTY
Sum Probability
SciTegic.value.DoubleValue
98.84

@<SCITEGIC>MOL_PROPERTY
Delta G
SciTegic.value.DoubleValue
3.338

@<SCITEGIC>MOL_PROPERTY
G
SciTegic.value.DoubleValue
61.486

@<SCITEGIC>MOL_PROPERTY
E
SciTegic.value.DoubleValue
23.917

@<SCITEGIC>MOL_PROPERTY
-TS
SciTegic.value.DoubleValue
37.569

@<SCITEGIC>MOL_PROPERTY
U+W
SciTegic.value.DoubleValue
-0.228

@<SCITEGIC>MOL_PROPERTY
U
SciTegic.value.DoubleValue
51.882

@<SCITEGIC>MOL_PROPERTY
W
SciTegic.value.DoubleValue
-52.110

@<SCITEGIC>MOL_PROPERTY
W(PB)
SciTegic.value.DoubleValue
-54.621

@<SCITEGIC>MOL_PROPERTY
W(SA)
SciTegic.value.DoubleValue
2.510

@<SCITEGIC>MOL_PROPERTY
Valence
SciTegic.value.DoubleValue
5.610

@<SCITEGIC>MOL_PROPERTY
Coulomb
SciTegic.value.DoubleValue
45.523

@<SCITEGIC>MOL_PROPERTY
VdW
SciTegic.value.DoubleValue
0.750

@<SCITEGIC>MOL_PROPERTY
VdW6
SciTegic.value.DoubleValue
-8.643

@<SCITEGIC>MOL_PROPERTY
VdW12
SciTegic.value.DoubleValue
9.392

@<SCITEGIC>MOL_PROPERTY
Bond
SciTegic.value.DoubleValue
0.233

@<SCITEGIC>MOL_PROPERTY
Angle
SciTegic.value.DoubleValue
1.171

@<SCITEGIC>MOL_PROPERTY
Pdih
SciTegic.value.DoubleValue
4.207

@<SCITEGIC>MOL_PROPERTY
Idih
SciTegic.value.DoubleValue
0.000

@<SCITEGIC>MOL_PROPERTY
Tether
SciTegic.value.DoubleValue
0.000

@<TRIPOS>MOLECULE
guest-3_vm2.mol2 : vm2 ligand conformer 206
          29          28           1
SMALL
USER_CHARGES
 
@<TRIPOS>ATOM
       1    C1      21.430223   19.544788   20.571434 C.3        1 MOL1        -0.2427
       2    H1      21.972161   18.611863   20.774382 H          1 MOL1         0.0958
       3    H2      21.634639   19.834211   19.532451 H          1 MOL1         0.0958
       4    H3      21.837989   20.326496   21.225569 H          1 MOL1         0.0958
       5    C2      19.914252   19.366116   20.798978 C.3        1 MOL1        -0.1412
       6    H4      19.529606   18.603511   20.107357 H          1 MOL1         0.0947
       7    H5      19.395848   20.304491   20.556877 H          1 MOL1         0.0947
       8    C3      19.599492   18.957433   22.254892 C.3        1 MOL1        -0.1437
       9    H6      20.115409   18.016562   22.490690 H          1 MOL1         0.0947
      10    H7      19.995341   19.725135   22.932236 H          1 MOL1         0.0947
      11    C4      18.080346   18.789542   22.489202 C.3        1 MOL1        -0.1437
      12    H8      17.673316   18.114241   21.723960 H          1 MOL1         0.0947
      13    H9      17.579388   19.756167   22.341104 H          1 MOL1         0.0947
      14    C5      17.705570   18.224016   23.883472 C.3        1 MOL1        -0.1437
      15    H10     16.612935   18.110614   23.910458 H          1 MOL1         0.0947
      16    H11     18.110585   17.209417   24.000722 H          1 MOL1         0.0947
      17    C6      18.127993   19.114672   25.080919 C.3        1 MOL1        -0.1437
      18    H12     17.351263   19.047515   25.855470 H          1 MOL1         0.0947
      19    H13     18.159879   20.169505   24.774674 H          1 MOL1         0.0947
      20    C7      19.475767   18.695346   25.715411 C.3        1 MOL1        -0.1477
      21    H14     19.405563   17.659567   26.073403 H          1 MOL1         0.0947
      22    H15     20.278523   18.718861   24.969897 H          1 MOL1         0.0947
      23    C8      19.850390   19.614449   26.891091 C.3        1 MOL1         0.0145
      24    H16     19.066379   19.576771   27.652242 H          1 MOL1         0.0921
      25    H17     19.938737   20.645632   26.538536 H          1 MOL1         0.0921
      26    N1      21.159968   19.231638   27.549602 N.4        1 MOL1        -0.5969
      27    H18     21.390140   19.856097   28.330491 H          1 MOL1         0.3603
      28    H19     21.945291   19.274011   26.891667 H          1 MOL1         0.3603
      29    H20     21.133038   18.278697   27.927344 H          1 MOL1         0.3603
@<TRIPOS>BOND
    1     1     2    1
    2     1     3    1
    3     1     4    1
    4     1     5    1
    5     5     6    1
    6     5     7    1
    7     5     8    1
    8     8     9    1
    9     8    10    1
   10     8    11    1
   11    11    12    1
   12    11    13    1
   13    11    14    1
   14    14    15    1
   15    14    16    1
   16    14    17    1
   17    17    18    1
   18    17    19    1
   19    17    20    1
   20    20    21    1
   21    20    22    1
   22    20    23    1
   23    23    24    1
   24    23    25    1
   25    23    26    1
   26    26    27    1
   27    26    28    1
   28    26    29    1
@<TRIPOS>SUBSTRUCTURE
       1 MOL1            1 RESIDUE      1      MOL     
@<SCITEGIC>MOL_PROPERTY
VM2 Rank
SciTegic.value.IntegerValue
206

@<SCITEGIC>MOL_PROPERTY
Conf_Id
SciTegic.value.IntegerValue
189

@<SCITEGIC>MOL_PROPERTY
Probability
SciTegic.value.DoubleValue
0.02

@<SCITEGIC>MOL_PROPERTY
Sum Probability
SciTegic.value.DoubleValue
98.86

@<SCITEGIC>MOL_PROPERTY
Delta G
SciTegic.value.DoubleValue
3.357

@<SCITEGIC>MOL_PROPERTY
G
SciTegic.value.DoubleValue
61.505

@<SCITEGIC>MOL_PROPERTY
E
SciTegic.value.DoubleValue
23.935

@<SCITEGIC>MOL_PROPERTY
-TS
SciTegic.value.DoubleValue
37.569

@<SCITEGIC>MOL_PROPERTY
U+W
SciTegic.value.DoubleValue
-0.209

@<SCITEGIC>MOL_PROPERTY
U
SciTegic.value.DoubleValue
51.882

@<SCITEGIC>MOL_PROPERTY
W
SciTegic.value.DoubleValue
-52.092

@<SCITEGIC>MOL_PROPERTY
W(PB)
SciTegic.value.DoubleValue
-54.589

@<SCITEGIC>MOL_PROPERTY
W(SA)
SciTegic.value.DoubleValue
2.497

@<SCITEGIC>MOL_PROPERTY
Valence
SciTegic.value.DoubleValue
5.610

@<SCITEGIC>MOL_PROPERTY
Coulomb
SciTegic.value.DoubleValue
45.523

@<SCITEGIC>MOL_PROPERTY
VdW
SciTegic.value.DoubleValue
0.750

@<SCITEGIC>MOL_PROPERTY
VdW6
SciTegic.value.DoubleValue
-8.643

@<SCITEGIC>MOL_PROPERTY
VdW12
SciTegic.value.DoubleValue
9.392

@<SCITEGIC>MOL_PROPERTY
Bond
SciTegic.value.DoubleValue
0.233

@<SCITEGIC>MOL_PROPERTY
Angle
SciTegic.value.DoubleValue
1.170

@<SCITEGIC>MOL_PROPERTY
Pdih
SciTegic.value.DoubleValue
4.207

@<SCITEGIC>MOL_PROPERTY
Idih
SciTegic.value.DoubleValue
0.000

@<SCITEGIC>MOL_PROPERTY
Tether
SciTegic.value.DoubleValue
0.000

@<TRIPOS>MOLECULE
guest-3_vm2.mol2 : vm2 ligand conformer 207
          29          28           1
SMALL
USER_CHARGES
 
@<TRIPOS>ATOM
       1    C1      20.140189   18.179529   19.608743 C.3        1 MOL1        -0.2427
       2    H1      20.105339   18.458902   18.547717 H          1 MOL1         0.0958
       3    H2      21.169317   17.878622   19.844529 H          1 MOL1         0.0958
       4    H3      19.488160   17.307557   19.749323 H          1 MOL1         0.0958
       5    C2      19.689658   19.358062   20.497555 C.3        1 MOL1        -0.1412
       6    H4      18.670326   19.657928   20.216599 H          1 MOL1         0.0947
       7    H5      20.338533   20.224929   20.309501 H          1 MOL1         0.0947
       8    C3      19.730091   18.991182   21.997470 C.3        1 MOL1        -0.1437
       9    H6      19.085399   18.119502   22.170597 H          1 MOL1         0.0947
      10    H7      20.751001   18.693742   22.273938 H          1 MOL1         0.0947
      11    C4      19.274765   20.170851   22.889649 C.3        1 MOL1        -0.1437
      12    H8      18.236626   20.438348   22.648824 H          1 MOL1         0.0947
      13    H9      19.883353   21.054637   22.653288 H          1 MOL1         0.0947
      14    C5      19.397507   19.880932   24.405557 C.3        1 MOL1        -0.1437
      15    H10     20.443749   19.644315   24.635788 H          1 MOL1         0.0947
      16    H11     19.147860   20.798437   24.956085 H          1 MOL1         0.0947
      17    C6      18.476768   18.731741   24.886438 C.3        1 MOL1        -0.1437
      18    H12     18.830976   17.774949   24.480154 H          1 MOL1         0.0947
      19    H13     17.469804   18.887560   24.475378 H          1 MOL1         0.0947
      20    C7      18.355884   18.612821   26.427159 C.3        1 MOL1        -0.1477
      21    H14     17.954374   19.542092   26.852717 H          1 MOL1         0.0947
      22    H15     17.612848   17.834854   26.647401 H          1 MOL1         0.0947
      23    C8      19.666518   18.226021   27.143142 C.3        1 MOL1         0.0145
      24    H16     20.192472   17.460518   26.566385 H          1 MOL1         0.0921
      25    H17     19.426044   17.806523   28.123787 H          1 MOL1         0.0921
      26    N1      20.612619   19.386861   27.379287 N.4        1 MOL1        -0.5969
      27    H18     20.892970   19.831971   26.500852 H          1 MOL1         0.3603
      28    H19     21.470638   19.087294   27.855416 H          1 MOL1         0.3603
      29    H20     20.183942   20.112171   27.963642 H          1 MOL1         0.3603
@<TRIPOS>BOND
    1     1     2    1
    2     1     3    1
    3     1     4    1
    4     1     5    1
    5     5     6    1
    6     5     7    1
    7     5     8    1
    8     8     9    1
    9     8    10    1
   10     8    11    1
   11    11    12    1
   12    11    13    1
   13    11    14    1
   14    14    15    1
   15    14    16    1
   16    14    17    1
   17    17    18    1
   18    17    19    1
   19    17    20    1
   20    20    21    1
   21    20    22    1
   22    20    23    1
   23    23    24    1
   24    23    25    1
   25    23    26    1
   26    26    27    1
   27    26    28    1
   28    26    29    1
@<TRIPOS>SUBSTRUCTURE
       1 MOL1            1 RESIDUE      1      MOL     
@<SCITEGIC>MOL_PROPERTY
VM2 Rank
SciTegic.value.IntegerValue
207

@<SCITEGIC>MOL_PROPERTY
Conf_Id
SciTegic.value.IntegerValue
1883

@<SCITEGIC>MOL_PROPERTY
Probability
SciTegic.value.DoubleValue
0.02

@<SCITEGIC>MOL_PROPERTY
Sum Probability
SciTegic.value.DoubleValue
98.88

@<SCITEGIC>MOL_PROPERTY
Delta G
SciTegic.value.DoubleValue
3.364

@<SCITEGIC>MOL_PROPERTY
G
SciTegic.value.DoubleValue
61.512

@<SCITEGIC>MOL_PROPERTY
E
SciTegic.value.DoubleValue
24.028

@<SCITEGIC>MOL_PROPERTY
-TS
SciTegic.value.DoubleValue
37.484

@<SCITEGIC>MOL_PROPERTY
U+W
SciTegic.value.DoubleValue
-0.117

@<SCITEGIC>MOL_PROPERTY
U
SciTegic.value.DoubleValue
51.807

@<SCITEGIC>MOL_PROPERTY
W
SciTegic.value.DoubleValue
-51.923

@<SCITEGIC>MOL_PROPERTY
W(PB)
SciTegic.value.DoubleValue
-54.417

@<SCITEGIC>MOL_PROPERTY
W(SA)
SciTegic.value.DoubleValue
2.494

@<SCITEGIC>MOL_PROPERTY
Valence
SciTegic.value.DoubleValue
4.647

@<SCITEGIC>MOL_PROPERTY
Coulomb
SciTegic.value.DoubleValue
46.372

@<SCITEGIC>MOL_PROPERTY
VdW
SciTegic.value.DoubleValue
0.788

@<SCITEGIC>MOL_PROPERTY
VdW6
SciTegic.value.DoubleValue
-9.151

@<SCITEGIC>MOL_PROPERTY
VdW12
SciTegic.value.DoubleValue
9.939

@<SCITEGIC>MOL_PROPERTY
Bond
SciTegic.value.DoubleValue
0.242

@<SCITEGIC>MOL_PROPERTY
Angle
SciTegic.value.DoubleValue
1.145

@<SCITEGIC>MOL_PROPERTY
Pdih
SciTegic.value.DoubleValue
3.261

@<SCITEGIC>MOL_PROPERTY
Idih
SciTegic.value.DoubleValue
0.000

@<SCITEGIC>MOL_PROPERTY
Tether
SciTegic.value.DoubleValue
0.000

@<TRIPOS>MOLECULE
guest-3_vm2.mol2 : vm2 ligand conformer 208
          29          28           1
SMALL
USER_CHARGES
 
@<TRIPOS>ATOM
       1    C1      20.556677   20.521797   20.406296 C.3        1 MOL1        -0.2427
       2    H1      20.576952   20.056491   19.412155 H          1 MOL1         0.0958
       3    H2      20.399774   21.599768   20.270716 H          1 MOL1         0.0958
       4    H3      21.541451   20.380182   20.870378 H          1 MOL1         0.0958
       5    C2      19.439616   19.914228   21.280712 C.3        1 MOL1        -0.1412
       6    H4      18.466246   20.102624   20.806614 H          1 MOL1         0.0947
       7    H5      19.419662   20.430600   22.247900 H          1 MOL1         0.0947
       8    C3      19.633717   18.391186   21.476262 C.3        1 MOL1        -0.1437
       9    H6      19.611079   17.914861   20.486309 H          1 MOL1         0.0947
      10    H7      20.629446   18.181239   21.890435 H          1 MOL1         0.0947
      11    C4      18.539586   17.737806   22.360308 C.3        1 MOL1        -0.1437
      12    H8      18.328744   16.736800   21.959166 H          1 MOL1         0.0947
      13    H9      17.596555   18.294972   22.274265 H          1 MOL1         0.0947
      14    C5      18.925374   17.569665   23.852650 C.3        1 MOL1        -0.1437
      15    H10     18.109003   17.037926   24.360714 H          1 MOL1         0.0947
      16    H11     19.807893   16.919640   23.929674 H          1 MOL1         0.0947
      17    C6      19.199497   18.898276   24.594701 C.3        1 MOL1        -0.1437
      18    H12     18.355466   19.585651   24.444721 H          1 MOL1         0.0947
      19    H13     20.091138   19.380283   24.172730 H          1 MOL1         0.0947
      20    C7      19.420124   18.676343   26.107087 C.3        1 MOL1        -0.1477
      21    H14     18.531770   18.202422   26.545603 H          1 MOL1         0.0947
      22    H15     20.262119   17.988190   26.260744 H          1 MOL1         0.0947
      23    C8      19.703414   20.002351   26.834430 C.3        1 MOL1         0.0145
      24    H16     18.860191   20.684806   26.697731 H          1 MOL1         0.0921
      25    H17     20.597057   20.470222   26.412581 H          1 MOL1         0.0921
      26    N1      19.925995   19.826349   28.322553 N.4        1 MOL1        -0.5969
      27    H18     19.108700   19.414111   28.784740 H          1 MOL1         0.3603
      28    H19     20.113008   20.721264   28.788249 H          1 MOL1         0.3603
      29    H20     20.724918   19.214395   28.519421 H          1 MOL1         0.3603
@<TRIPOS>BOND
    1     1     2    1
    2     1     3    1
    3     1     4    1
    4     1     5    1
    5     5     6    1
    6     5     7    1
    7     5     8    1
    8     8     9    1
    9     8    10    1
   10     8    11    1
   11    11    12    1
   12    11    13    1
   13    11    14    1
   14    14    15    1
   15    14    16    1
   16    14    17    1
   17    17    18    1
   18    17    19    1
   19    17    20    1
   20    20    21    1
   21    20    22    1
   22    20    23    1
   23    23    24    1
   24    23    25    1
   25    23    26    1
   26    26    27    1
   27    26    28    1
   28    26    29    1
@<TRIPOS>SUBSTRUCTURE
       1 MOL1            1 RESIDUE      1      MOL     
@<SCITEGIC>MOL_PROPERTY
VM2 Rank
SciTegic.value.IntegerValue
208

@<SCITEGIC>MOL_PROPERTY
Conf_Id
SciTegic.value.IntegerValue
1156

@<SCITEGIC>MOL_PROPERTY
Probability
SciTegic.value.DoubleValue
0.02

@<SCITEGIC>MOL_PROPERTY
Sum Probability
SciTegic.value.DoubleValue
98.90

@<SCITEGIC>MOL_PROPERTY
Delta G
SciTegic.value.DoubleValue
3.366

@<SCITEGIC>MOL_PROPERTY
G
SciTegic.value.DoubleValue
61.514

@<SCITEGIC>MOL_PROPERTY
E
SciTegic.value.DoubleValue
23.946

@<SCITEGIC>MOL_PROPERTY
-TS
SciTegic.value.DoubleValue
37.568

@<SCITEGIC>MOL_PROPERTY
U+W
SciTegic.value.DoubleValue
-0.198

@<SCITEGIC>MOL_PROPERTY
U
SciTegic.value.DoubleValue
51.355

@<SCITEGIC>MOL_PROPERTY
W
SciTegic.value.DoubleValue
-51.553

@<SCITEGIC>MOL_PROPERTY
W(PB)
SciTegic.value.DoubleValue
-54.057

@<SCITEGIC>MOL_PROPERTY
W(SA)
SciTegic.value.DoubleValue
2.504

@<SCITEGIC>MOL_PROPERTY
Valence
SciTegic.value.DoubleValue
5.616

@<SCITEGIC>MOL_PROPERTY
Coulomb
SciTegic.value.DoubleValue
44.962

@<SCITEGIC>MOL_PROPERTY
VdW
SciTegic.value.DoubleValue
0.776

@<SCITEGIC>MOL_PROPERTY
VdW6
SciTegic.value.DoubleValue
-8.607

@<SCITEGIC>MOL_PROPERTY
VdW12
SciTegic.value.DoubleValue
9.383

@<SCITEGIC>MOL_PROPERTY
Bond
SciTegic.value.DoubleValue
0.231

@<SCITEGIC>MOL_PROPERTY
Angle
SciTegic.value.DoubleValue
1.168

@<SCITEGIC>MOL_PROPERTY
Pdih
SciTegic.value.DoubleValue
4.217

@<SCITEGIC>MOL_PROPERTY
Idih
SciTegic.value.DoubleValue
0.000

@<SCITEGIC>MOL_PROPERTY
Tether
SciTegic.value.DoubleValue
0.000

@<TRIPOS>MOLECULE
guest-3_vm2.mol2 : vm2 ligand conformer 209
          29          28           1
SMALL
USER_CHARGES
 
@<TRIPOS>ATOM
       1    C1      19.566064   18.544014   19.655714 C.3        1 MOL1        -0.2427
       2    H1      20.380919   17.812060   19.728391 H          1 MOL1         0.0958
       3    H2      18.653287   18.083780   20.053808 H          1 MOL1         0.0958
       4    H3      19.394082   18.750502   18.591423 H          1 MOL1         0.0958
       5    C2      19.920222   19.846321   20.408761 C.3        1 MOL1        -0.1412
       6    H4      19.078114   20.549712   20.346955 H          1 MOL1         0.0947
       7    H5      20.764272   20.331536   19.898958 H          1 MOL1         0.0947
       8    C3      20.301742   19.615601   21.890854 C.3        1 MOL1        -0.1437
       9    H6      21.156275   18.927202   21.946625 H          1 MOL1         0.0947
      10    H7      20.644785   20.569533   22.314599 H          1 MOL1         0.0947
      11    C4      19.135552   19.070832   22.749959 C.3        1 MOL1        -0.1437
      12    H8      18.828132   18.084412   22.378743 H          1 MOL1         0.0947
      13    H9      18.265798   19.734955   22.651483 H          1 MOL1         0.0947
      14    C5      19.527946   18.952058   24.239977 C.3        1 MOL1        -0.1437
      15    H10     20.394452   18.283364   24.336922 H          1 MOL1         0.0947
      16    H11     19.832975   19.941016   24.603560 H          1 MOL1         0.0947
      17    C6      18.358232   18.416648   25.099275 C.3        1 MOL1        -0.1437
      18    H12     17.964480   17.502235   24.634300 H          1 MOL1         0.0947
      19    H13     17.534397   19.143730   25.090271 H          1 MOL1         0.0947
      20    C7      18.738143   18.085844   26.565223 C.3        1 MOL1        -0.1477
      21    H14     17.857471   17.642993   27.049109 H          1 MOL1         0.0947
      22    H15     19.517774   17.313002   26.593051 H          1 MOL1         0.0947
      23    C8      19.172248   19.304883   27.405125 C.3        1 MOL1         0.0145
      24    H16     19.038462   19.072738   28.465166 H          1 MOL1         0.0921
      25    H17     18.542312   20.165315   27.164050 H          1 MOL1         0.0921
      26    N1      20.623850   19.701799   27.220111 N.4        1 MOL1        -0.5969
      27    H18     20.870988   20.516939   27.792076 H          1 MOL1         0.3603
      28    H19     20.830688   19.940744   26.246182 H          1 MOL1         0.3603
      29    H20     21.260778   18.944308   27.488222 H          1 MOL1         0.3603
@<TRIPOS>BOND
    1     1     2    1
    2     1     3    1
    3     1     4    1
    4     1     5    1
    5     5     6    1
    6     5     7    1
    7     5     8    1
    8     8     9    1
    9     8    10    1
   10     8    11    1
   11    11    12    1
   12    11    13    1
   13    11    14    1
   14    14    15    1
   15    14    16    1
   16    14    17    1
   17    17    18    1
   18    17    19    1
   19    17    20    1
   20    20    21    1
   21    20    22    1
   22    20    23    1
   23    23    24    1
   24    23    25    1
   25    23    26    1
   26    26    27    1
   27    26    28    1
   28    26    29    1
@<TRIPOS>SUBSTRUCTURE
       1 MOL1            1 RESIDUE      1      MOL     
@<SCITEGIC>MOL_PROPERTY
VM2 Rank
SciTegic.value.IntegerValue
209

@<SCITEGIC>MOL_PROPERTY
Conf_Id
SciTegic.value.IntegerValue
2160

@<SCITEGIC>MOL_PROPERTY
Probability
SciTegic.value.DoubleValue
0.02

@<SCITEGIC>MOL_PROPERTY
Sum Probability
SciTegic.value.DoubleValue
98.92

@<SCITEGIC>MOL_PROPERTY
Delta G
SciTegic.value.DoubleValue
3.372

@<SCITEGIC>MOL_PROPERTY
G
SciTegic.value.DoubleValue
61.520

@<SCITEGIC>MOL_PROPERTY
E
SciTegic.value.DoubleValue
24.069

@<SCITEGIC>MOL_PROPERTY
-TS
SciTegic.value.DoubleValue
37.451

@<SCITEGIC>MOL_PROPERTY
U+W
SciTegic.value.DoubleValue
-0.075

@<SCITEGIC>MOL_PROPERTY
U
SciTegic.value.DoubleValue
51.916

@<SCITEGIC>MOL_PROPERTY
W
SciTegic.value.DoubleValue
-51.991

@<SCITEGIC>MOL_PROPERTY
W(PB)
SciTegic.value.DoubleValue
-54.492

@<SCITEGIC>MOL_PROPERTY
W(SA)
SciTegic.value.DoubleValue
2.501

@<SCITEGIC>MOL_PROPERTY
Valence
SciTegic.value.DoubleValue
4.675

@<SCITEGIC>MOL_PROPERTY
Coulomb
SciTegic.value.DoubleValue
46.401

@<SCITEGIC>MOL_PROPERTY
VdW
SciTegic.value.DoubleValue
0.840

@<SCITEGIC>MOL_PROPERTY
VdW6
SciTegic.value.DoubleValue
-9.052

@<SCITEGIC>MOL_PROPERTY
VdW12
SciTegic.value.DoubleValue
9.892

@<SCITEGIC>MOL_PROPERTY
Bond
SciTegic.value.DoubleValue
0.238

@<SCITEGIC>MOL_PROPERTY
Angle
SciTegic.value.DoubleValue
1.195

@<SCITEGIC>MOL_PROPERTY
Pdih
SciTegic.value.DoubleValue
3.242

@<SCITEGIC>MOL_PROPERTY
Idih
SciTegic.value.DoubleValue
0.000

@<SCITEGIC>MOL_PROPERTY
Tether
SciTegic.value.DoubleValue
0.000

@<TRIPOS>MOLECULE
guest-3_vm2.mol2 : vm2 ligand conformer 210
          29          28           1
SMALL
USER_CHARGES
 
@<TRIPOS>ATOM
       1    C1      19.679681   17.479419   20.198070 C.3        1 MOL1        -0.2427
       2    H1      19.101374   17.841334   19.337954 H          1 MOL1         0.0958
       3    H2      20.745855   17.540290   19.943475 H          1 MOL1         0.0958
       4    H3      19.429343   16.421610   20.350988 H          1 MOL1         0.0958
       5    C2      19.364648   18.302443   21.465077 C.3        1 MOL1        -0.1412
       6    H4      19.932524   17.885791   22.307335 H          1 MOL1         0.0947
       7    H5      18.298162   18.201243   21.709724 H          1 MOL1         0.0947
       8    C3      19.719973   19.795027   21.278258 C.3        1 MOL1        -0.1437
       9    H6      20.802769   19.894971   21.120878 H          1 MOL1         0.0947
      10    H7      19.242884   20.162709   20.359304 H          1 MOL1         0.0947
      11    C4      19.283453   20.710216   22.451379 C.3        1 MOL1        -0.1437
      12    H8      18.189203   20.701963   22.549794 H          1 MOL1         0.0947
      13    H9      19.547786   21.741855   22.180763 H          1 MOL1         0.0947
      14    C5      19.949723   20.382780   23.813094 C.3        1 MOL1        -0.1437
      15    H10     20.936334   19.927514   23.650195 H          1 MOL1         0.0947
      16    H11     20.135425   21.326396   24.344678 H          1 MOL1         0.0947
      17    C6      19.080012   19.480592   24.722620 C.3        1 MOL1        -0.1437
      18    H12     18.837257   18.540667   24.212738 H          1 MOL1         0.0947
      19    H13     18.123477   19.982156   24.925237 H          1 MOL1         0.0947
      20    C7      19.785239   19.165943   26.060051 C.3        1 MOL1        -0.1477
      21    H14     20.740331   18.660453   25.864170 H          1 MOL1         0.0947
      22    H15     20.017389   20.101975   26.585450 H          1 MOL1         0.0947
      23    C8      18.911319   18.276416   26.961503 C.3        1 MOL1         0.0145
      24    H16     18.691646   17.335844   26.449141 H          1 MOL1         0.0921
      25    H17     17.965487   18.782646   27.172667 H          1 MOL1         0.0921
      26    N1      19.569950   17.945164   28.284949 N.4        1 MOL1        -0.5969
      27    H18     18.971421   17.352101   28.870411 H          1 MOL1         0.3603
      28    H19     19.778579   18.788776   28.829309 H          1 MOL1         0.3603
      29    H20     20.454346   17.442402   28.156161 H          1 MOL1         0.3603
@<TRIPOS>BOND
    1     1     2    1
    2     1     3    1
    3     1     4    1
    4     1     5    1
    5     5     6    1
    6     5     7    1
    7     5     8    1
    8     8     9    1
    9     8    10    1
   10     8    11    1
   11    11    12    1
   12    11    13    1
   13    11    14    1
   14    14    15    1
   15    14    16    1
   16    14    17    1
   17    17    18    1
   18    17    19    1
   19    17    20    1
   20    20    21    1
   21    20    22    1
   22    20    23    1
   23    23    24    1
   24    23    25    1
   25    23    26    1
   26    26    27    1
   27    26    28    1
   28    26    29    1
@<TRIPOS>SUBSTRUCTURE
       1 MOL1            1 RESIDUE      1      MOL     
@<SCITEGIC>MOL_PROPERTY
VM2 Rank
SciTegic.value.IntegerValue
210

@<SCITEGIC>MOL_PROPERTY
Conf_Id
SciTegic.value.IntegerValue
1452

@<SCITEGIC>MOL_PROPERTY
Probability
SciTegic.value.DoubleValue
0.02

@<SCITEGIC>MOL_PROPERTY
Sum Probability
SciTegic.value.DoubleValue
98.94

@<SCITEGIC>MOL_PROPERTY
Delta G
SciTegic.value.DoubleValue
3.374

@<SCITEGIC>MOL_PROPERTY
G
SciTegic.value.DoubleValue
61.522

@<SCITEGIC>MOL_PROPERTY
E
SciTegic.value.DoubleValue
23.957

@<SCITEGIC>MOL_PROPERTY
-TS
SciTegic.value.DoubleValue
37.565

@<SCITEGIC>MOL_PROPERTY
U+W
SciTegic.value.DoubleValue
-0.187

@<SCITEGIC>MOL_PROPERTY
U
SciTegic.value.DoubleValue
51.422

@<SCITEGIC>MOL_PROPERTY
W
SciTegic.value.DoubleValue
-51.609

@<SCITEGIC>MOL_PROPERTY
W(PB)
SciTegic.value.DoubleValue
-54.117

@<SCITEGIC>MOL_PROPERTY
W(SA)
SciTegic.value.DoubleValue
2.508

@<SCITEGIC>MOL_PROPERTY
Valence
SciTegic.value.DoubleValue
5.618

@<SCITEGIC>MOL_PROPERTY
Coulomb
SciTegic.value.DoubleValue
45.019

@<SCITEGIC>MOL_PROPERTY
VdW
SciTegic.value.DoubleValue
0.785

@<SCITEGIC>MOL_PROPERTY
VdW6
SciTegic.value.DoubleValue
-8.591

@<SCITEGIC>MOL_PROPERTY
VdW12
SciTegic.value.DoubleValue
9.376

@<SCITEGIC>MOL_PROPERTY
Bond
SciTegic.value.DoubleValue
0.232

@<SCITEGIC>MOL_PROPERTY
Angle
SciTegic.value.DoubleValue
1.167

@<SCITEGIC>MOL_PROPERTY
Pdih
SciTegic.value.DoubleValue
4.219

@<SCITEGIC>MOL_PROPERTY
Idih
SciTegic.value.DoubleValue
0.000

@<SCITEGIC>MOL_PROPERTY
Tether
SciTegic.value.DoubleValue
0.000

@<TRIPOS>MOLECULE
guest-3_vm2.mol2 : vm2 ligand conformer 211
          29          28           1
SMALL
USER_CHARGES
 
@<TRIPOS>ATOM
       1    C1      20.972301   19.792518   20.810506 C.3        1 MOL1        -0.2427
       2    H1      20.799587   20.430764   21.685775 H          1 MOL1         0.0958
       3    H2      21.594309   18.940828   21.114784 H          1 MOL1         0.0958
       4    H3      21.543456   20.382784   20.082338 H          1 MOL1         0.0958
       5    C2      19.639665   19.316646   20.192459 C.3        1 MOL1        -0.1412
       6    H4      19.851835   18.829352   19.230560 H          1 MOL1         0.0947
       7    H5      19.013876   20.189526   19.959740 H          1 MOL1         0.0947
       8    C3      18.841599   18.326875   21.079040 C.3        1 MOL1        -0.1437
       9    H6      17.948391   18.024902   20.514816 H          1 MOL1         0.0947
      10    H7      19.420437   17.405643   21.231825 H          1 MOL1         0.0947
      11    C4      18.378953   18.904751   22.441930 C.3        1 MOL1        -0.1437
      12    H8      17.393581   18.481869   22.681878 H          1 MOL1         0.0947
      13    H9      18.231734   19.990420   22.359821 H          1 MOL1         0.0947
      14    C5      19.341527   18.576122   23.609242 C.3        1 MOL1        -0.1437
      15    H10     19.430102   17.485722   23.711297 H          1 MOL1         0.0947
      16    H11     20.348314   18.952145   23.392419 H          1 MOL1         0.0947
      17    C6      18.848848   19.177978   24.944523 C.3        1 MOL1        -0.1437
      18    H12     17.844294   18.795010   25.172401 H          1 MOL1         0.0947
      19    H13     18.758209   20.268607   24.844324 H          1 MOL1         0.0947
      20    C7      19.803334   18.846363   26.112569 C.3        1 MOL1        -0.1477
      21    H14     19.893085   17.757003   26.219053 H          1 MOL1         0.0947
      22    H15     20.807228   19.232681   25.891063 H          1 MOL1         0.0947
      23    C8      19.303411   19.450359   27.436517 C.3        1 MOL1         0.0145
      24    H16     18.310715   19.055814   27.669645 H          1 MOL1         0.0921
      25    H17     19.228284   20.536907   27.340474 H          1 MOL1         0.0921
      26    N1      20.214363   19.146388   28.608215 N.4        1 MOL1        -0.5969
      27    H18     20.305822   18.137794   28.769195 H          1 MOL1         0.3603
      28    H19     19.863373   19.557615   29.480248 H          1 MOL1         0.3603
      29    H20     21.159754   19.516061   28.462917 H          1 MOL1         0.3603
@<TRIPOS>BOND
    1     1     2    1
    2     1     3    1
    3     1     4    1
    4     1     5    1
    5     5     6    1
    6     5     7    1
    7     5     8    1
    8     8     9    1
    9     8    10    1
   10     8    11    1
   11    11    12    1
   12    11    13    1
   13    11    14    1
   14    14    15    1
   15    14    16    1
   16    14    17    1
   17    17    18    1
   18    17    19    1
   19    17    20    1
   20    20    21    1
   21    20    22    1
   22    20    23    1
   23    23    24    1
   24    23    25    1
   25    23    26    1
   26    26    27    1
   27    26    28    1
   28    26    29    1
@<TRIPOS>SUBSTRUCTURE
       1 MOL1            1 RESIDUE      1      MOL     
@<SCITEGIC>MOL_PROPERTY
VM2 Rank
SciTegic.value.IntegerValue
211

@<SCITEGIC>MOL_PROPERTY
Conf_Id
SciTegic.value.IntegerValue
2236

@<SCITEGIC>MOL_PROPERTY
Probability
SciTegic.value.DoubleValue
0.02

@<SCITEGIC>MOL_PROPERTY
Sum Probability
SciTegic.value.DoubleValue
98.96

@<SCITEGIC>MOL_PROPERTY
Delta G
SciTegic.value.DoubleValue
3.384

@<SCITEGIC>MOL_PROPERTY
G
SciTegic.value.DoubleValue
61.532

@<SCITEGIC>MOL_PROPERTY
E
SciTegic.value.DoubleValue
23.994

@<SCITEGIC>MOL_PROPERTY
-TS
SciTegic.value.DoubleValue
37.538

@<SCITEGIC>MOL_PROPERTY
U+W
SciTegic.value.DoubleValue
-0.150

@<SCITEGIC>MOL_PROPERTY
U
SciTegic.value.DoubleValue
51.075

@<SCITEGIC>MOL_PROPERTY
W
SciTegic.value.DoubleValue
-51.225

@<SCITEGIC>MOL_PROPERTY
W(PB)
SciTegic.value.DoubleValue
-53.719

@<SCITEGIC>MOL_PROPERTY
W(SA)
SciTegic.value.DoubleValue
2.494

@<SCITEGIC>MOL_PROPERTY
Valence
SciTegic.value.DoubleValue
5.555

@<SCITEGIC>MOL_PROPERTY
Coulomb
SciTegic.value.DoubleValue
44.692

@<SCITEGIC>MOL_PROPERTY
VdW
SciTegic.value.DoubleValue
0.829

@<SCITEGIC>MOL_PROPERTY
VdW6
SciTegic.value.DoubleValue
-8.485

@<SCITEGIC>MOL_PROPERTY
VdW12
SciTegic.value.DoubleValue
9.313

@<SCITEGIC>MOL_PROPERTY
Bond
SciTegic.value.DoubleValue
0.230

@<SCITEGIC>MOL_PROPERTY
Angle
SciTegic.value.DoubleValue
1.154

@<SCITEGIC>MOL_PROPERTY
Pdih
SciTegic.value.DoubleValue
4.171

@<SCITEGIC>MOL_PROPERTY
Idih
SciTegic.value.DoubleValue
0.000

@<SCITEGIC>MOL_PROPERTY
Tether
SciTegic.value.DoubleValue
0.000

@<TRIPOS>MOLECULE
guest-3_vm2.mol2 : vm2 ligand conformer 212
          29          28           1
SMALL
USER_CHARGES
 
@<TRIPOS>ATOM
       1    C1      20.686624   20.305863   20.261483 C.3        1 MOL1        -0.2427
       2    H1      21.477941   19.595078   19.989721 H          1 MOL1         0.0958
       3    H2      20.022042   20.425323   19.395873 H          1 MOL1         0.0958
       4    H3      21.158941   21.276734   20.459821 H          1 MOL1         0.0958
       5    C2      19.904359   19.817668   21.499079 C.3        1 MOL1        -0.1412
       6    H4      19.138399   20.560236   21.762490 H          1 MOL1         0.0947
       7    H5      20.595692   19.747911   22.349182 H          1 MOL1         0.0947
       8    C3      19.239173   18.445257   21.248123 C.3        1 MOL1        -0.1437
       9    H6      18.650148   18.498618   20.322119 H          1 MOL1         0.0947
      10    H7      20.017322   17.689918   21.071628 H          1 MOL1         0.0947
      11    C4      18.305985   17.966149   22.390027 C.3        1 MOL1        -0.1437
      12    H8      17.862776   17.011322   22.074980 H          1 MOL1         0.0947
      13    H9      17.461842   18.660083   22.504124 H          1 MOL1         0.0947
      14    C5      19.009946   17.744585   23.754116 C.3        1 MOL1        -0.1437
      15    H10     18.550182   16.875678   24.245132 H          1 MOL1         0.0947
      16    H11     20.064516   17.480152   23.595489 H          1 MOL1         0.0947
      17    C6      18.893047   18.956351   24.710949 C.3        1 MOL1        -0.1437
      18    H12     17.831979   19.164198   24.907205 H          1 MOL1         0.0947
      19    H13     19.305707   19.857640   24.242164 H          1 MOL1         0.0947
      20    C7      19.619819   18.701416   26.049559 C.3        1 MOL1        -0.1477
      21    H14     19.201222   17.809198   26.534137 H          1 MOL1         0.0947
      22    H15     20.682157   18.497301   25.860179 H          1 MOL1         0.0947
      23    C8      19.491740   19.906341   26.997903 C.3        1 MOL1         0.0145
      24    H16     18.435905   20.103318   27.202528 H          1 MOL1         0.0921
      25    H17     19.922533   20.793712   26.526268 H          1 MOL1         0.0921
      26    N1      20.193307   19.694370   28.323762 N.4        1 MOL1        -0.5969
      27    H18     20.095827   20.508364   28.940720 H          1 MOL1         0.3603
      28    H19     21.198192   19.530243   28.202182 H          1 MOL1         0.3603
      29    H20     19.814755   18.887787   28.831362 H          1 MOL1         0.3603
@<TRIPOS>BOND
    1     1     2    1
    2     1     3    1
    3     1     4    1
    4     1     5    1
    5     5     6    1
    6     5     7    1
    7     5     8    1
    8     8     9    1
    9     8    10    1
   10     8    11    1
   11    11    12    1
   12    11    13    1
   13    11    14    1
   14    14    15    1
   15    14    16    1
   16    14    17    1
   17    17    18    1
   18    17    19    1
   19    17    20    1
   20    20    21    1
   21    20    22    1
   22    20    23    1
   23    23    24    1
   24    23    25    1
   25    23    26    1
   26    26    27    1
   27    26    28    1
   28    26    29    1
@<TRIPOS>SUBSTRUCTURE
       1 MOL1            1 RESIDUE      1      MOL     
@<SCITEGIC>MOL_PROPERTY
VM2 Rank
SciTegic.value.IntegerValue
212

@<SCITEGIC>MOL_PROPERTY
Conf_Id
SciTegic.value.IntegerValue
2176

@<SCITEGIC>MOL_PROPERTY
Probability
SciTegic.value.DoubleValue
0.02

@<SCITEGIC>MOL_PROPERTY
Sum Probability
SciTegic.value.DoubleValue
98.97

@<SCITEGIC>MOL_PROPERTY
Delta G
SciTegic.value.DoubleValue
3.387

@<SCITEGIC>MOL_PROPERTY
G
SciTegic.value.DoubleValue
61.535

@<SCITEGIC>MOL_PROPERTY
E
SciTegic.value.DoubleValue
23.970

@<SCITEGIC>MOL_PROPERTY
-TS
SciTegic.value.DoubleValue
37.565

@<SCITEGIC>MOL_PROPERTY
U+W
SciTegic.value.DoubleValue
-0.175

@<SCITEGIC>MOL_PROPERTY
U
SciTegic.value.DoubleValue
51.422

@<SCITEGIC>MOL_PROPERTY
W
SciTegic.value.DoubleValue
-51.597

@<SCITEGIC>MOL_PROPERTY
W(PB)
SciTegic.value.DoubleValue
-54.101

@<SCITEGIC>MOL_PROPERTY
W(SA)
SciTegic.value.DoubleValue
2.504

@<SCITEGIC>MOL_PROPERTY
Valence
SciTegic.value.DoubleValue
5.618

@<SCITEGIC>MOL_PROPERTY
Coulomb
SciTegic.value.DoubleValue
45.019

@<SCITEGIC>MOL_PROPERTY
VdW
SciTegic.value.DoubleValue
0.785

@<SCITEGIC>MOL_PROPERTY
VdW6
SciTegic.value.DoubleValue
-8.591

@<SCITEGIC>MOL_PROPERTY
VdW12
SciTegic.value.DoubleValue
9.376

@<SCITEGIC>MOL_PROPERTY
Bond
SciTegic.value.DoubleValue
0.232

@<SCITEGIC>MOL_PROPERTY
Angle
SciTegic.value.DoubleValue
1.167

@<SCITEGIC>MOL_PROPERTY
Pdih
SciTegic.value.DoubleValue
4.219

@<SCITEGIC>MOL_PROPERTY
Idih
SciTegic.value.DoubleValue
0.000

@<SCITEGIC>MOL_PROPERTY
Tether
SciTegic.value.DoubleValue
0.000

@<TRIPOS>MOLECULE
guest-3_vm2.mol2 : vm2 ligand conformer 213
          29          28           1
SMALL
USER_CHARGES
 
@<TRIPOS>ATOM
       1    C1      19.932027   19.575288   19.678531 C.3        1 MOL1        -0.2427
       2    H1      19.508976   20.492090   20.107436 H          1 MOL1         0.0958
       3    H2      21.024940   19.625310   19.768337 H          1 MOL1         0.0958
       4    H3      19.683006   19.565935   18.609498 H          1 MOL1         0.0958
       5    C2      19.374538   18.313049   20.374570 C.3        1 MOL1        -0.1412
       6    H4      19.730030   17.424676   19.834037 H          1 MOL1         0.0947
       7    H5      18.278359   18.301951   20.297152 H          1 MOL1         0.0947
       8    C3      19.795617   18.192386   21.858998 C.3        1 MOL1        -0.1437
       9    H6      19.453659   17.220188   22.239944 H          1 MOL1         0.0947
      10    H7      20.892055   18.184024   21.929602 H          1 MOL1         0.0947
      11    C4      19.223335   19.316547   22.755434 C.3        1 MOL1        -0.1437
      12    H8      18.131041   19.355284   22.643076 H          1 MOL1         0.0947
      13    H9      19.613018   20.289291   22.427940 H          1 MOL1         0.0947
      14    C5      19.581645   19.101715   24.243286 C.3        1 MOL1        -0.1437
      15    H10     19.188363   18.128941   24.563134 H          1 MOL1         0.0947
      16    H11     20.674320   19.068331   24.354329 H          1 MOL1         0.0947
      17    C6      19.001074   20.221080   25.139531 C.3        1 MOL1        -0.1437
      18    H12     17.903361   20.178983   25.113298 H          1 MOL1         0.0947
      19    H13     19.280127   21.196169   24.716773 H          1 MOL1         0.0947
      20    C7      19.483761   20.179101   26.611951 C.3        1 MOL1        -0.1477
      21    H14     20.575890   20.283431   26.659423 H          1 MOL1         0.0947
      22    H15     19.074401   21.059316   27.125265 H          1 MOL1         0.0947
      23    C8      19.037767   18.928087   27.396803 C.3        1 MOL1         0.0145
      24    H16     18.009273   18.669841   27.130737 H          1 MOL1         0.0921
      25    H17     19.065831   19.150422   28.466970 H          1 MOL1         0.0921
      26    N1      19.914234   17.710746   27.175896 N.4        1 MOL1        -0.5969
      27    H18     19.582421   16.901087   27.711645 H          1 MOL1         0.3603
      28    H19     20.882700   17.883830   27.464802 H          1 MOL1         0.3603
      29    H20     19.937254   17.433570   26.190475 H          1 MOL1         0.3603
@<TRIPOS>BOND
    1     1     2    1
    2     1     3    1
    3     1     4    1
    4     1     5    1
    5     5     6    1
    6     5     7    1
    7     5     8    1
    8     8     9    1
    9     8    10    1
   10     8    11    1
   11    11    12    1
   12    11    13    1
   13    11    14    1
   14    14    15    1
   15    14    16    1
   16    14    17    1
   17    17    18    1
   18    17    19    1
   19    17    20    1
   20    20    21    1
   21    20    22    1
   22    20    23    1
   23    23    24    1
   24    23    25    1
   25    23    26    1
   26    26    27    1
   27    26    28    1
   28    26    29    1
@<TRIPOS>SUBSTRUCTURE
       1 MOL1            1 RESIDUE      1      MOL     
@<SCITEGIC>MOL_PROPERTY
VM2 Rank
SciTegic.value.IntegerValue
213

@<SCITEGIC>MOL_PROPERTY
Conf_Id
SciTegic.value.IntegerValue
1643

@<SCITEGIC>MOL_PROPERTY
Probability
SciTegic.value.DoubleValue
0.02

@<SCITEGIC>MOL_PROPERTY
Sum Probability
SciTegic.value.DoubleValue
98.99

@<SCITEGIC>MOL_PROPERTY
Delta G
SciTegic.value.DoubleValue
3.388

@<SCITEGIC>MOL_PROPERTY
G
SciTegic.value.DoubleValue
61.536

@<SCITEGIC>MOL_PROPERTY
E
SciTegic.value.DoubleValue
24.086

@<SCITEGIC>MOL_PROPERTY
-TS
SciTegic.value.DoubleValue
37.450

@<SCITEGIC>MOL_PROPERTY
U+W
SciTegic.value.DoubleValue
-0.059

@<SCITEGIC>MOL_PROPERTY
U
SciTegic.value.DoubleValue
51.916

@<SCITEGIC>MOL_PROPERTY
W
SciTegic.value.DoubleValue
-51.974

@<SCITEGIC>MOL_PROPERTY
W(PB)
SciTegic.value.DoubleValue
-54.468

@<SCITEGIC>MOL_PROPERTY
W(SA)
SciTegic.value.DoubleValue
2.494

@<SCITEGIC>MOL_PROPERTY
Valence
SciTegic.value.DoubleValue
4.676

@<SCITEGIC>MOL_PROPERTY
Coulomb
SciTegic.value.DoubleValue
46.401

@<SCITEGIC>MOL_PROPERTY
VdW
SciTegic.value.DoubleValue
0.839

@<SCITEGIC>MOL_PROPERTY
VdW6
SciTegic.value.DoubleValue
-9.052

@<SCITEGIC>MOL_PROPERTY
VdW12
SciTegic.value.DoubleValue
9.891

@<SCITEGIC>MOL_PROPERTY
Bond
SciTegic.value.DoubleValue
0.238

@<SCITEGIC>MOL_PROPERTY
Angle
SciTegic.value.DoubleValue
1.195

@<SCITEGIC>MOL_PROPERTY
Pdih
SciTegic.value.DoubleValue
3.242

@<SCITEGIC>MOL_PROPERTY
Idih
SciTegic.value.DoubleValue
0.000

@<SCITEGIC>MOL_PROPERTY
Tether
SciTegic.value.DoubleValue
0.000

@<TRIPOS>MOLECULE
guest-3_vm2.mol2 : vm2 ligand conformer 214
          29          28           1
SMALL
USER_CHARGES
 
@<TRIPOS>ATOM
       1    C1      20.302380   18.809586   20.176734 C.3        1 MOL1        -0.2427
       2    H1      20.889307   19.368681   19.436652 H          1 MOL1         0.0958
       3    H2      21.004362   18.216573   20.776015 H          1 MOL1         0.0958
       4    H3      19.645330   18.118749   19.632735 H          1 MOL1         0.0958
       5    C2      19.481721   19.776590   21.059492 C.3        1 MOL1        -0.1412
       6    H4      18.878353   20.424139   20.408240 H          1 MOL1         0.0947
       7    H5      20.160162   20.445992   21.604890 H          1 MOL1         0.0947
       8    C3      18.534706   19.051508   22.048983 C.3        1 MOL1        -0.1437
       9    H6      17.946178   19.802023   22.592819 H          1 MOL1         0.0947
      10    H7      17.805222   18.464275   21.474627 H          1 MOL1         0.0947
      11    C4      19.237008   18.111218   23.065067 C.3        1 MOL1        -0.1437
      12    H8      19.698020   17.274128   22.524459 H          1 MOL1         0.0947
      13    H9      18.474020   17.652987   23.707897 H          1 MOL1         0.0947
      14    C5      20.316476   18.787907   23.951529 C.3        1 MOL1        -0.1437
      15    H10     20.744834   18.031642   24.622513 H          1 MOL1         0.0947
      16    H11     21.150649   19.117607   23.318245 H          1 MOL1         0.0947
      17    C6      19.816442   19.995253   24.789309 C.3        1 MOL1        -0.1437
      18    H12     19.517195   20.809292   24.116023 H          1 MOL1         0.0947
      19    H13     20.658531   20.393355   25.370931 H          1 MOL1         0.0947
      20    C7      18.639034   19.676969   25.747566 C.3        1 MOL1        -0.1477
      21    H14     18.382515   20.580028   26.317007 H          1 MOL1         0.0947
      22    H15     17.744795   19.426453   25.162883 H          1 MOL1         0.0947
      23    C8      18.927931   18.525364   26.730927 C.3        1 MOL1         0.0145
      24    H16     19.152702   17.612342   26.173529 H          1 MOL1         0.0921
      25    H17     18.042429   18.340339   27.344972 H          1 MOL1         0.0921
      26    N1      20.088302   18.803605   27.665393 N.4        1 MOL1        -0.5969
      27    H18     20.255983   18.022383   28.308719 H          1 MOL1         0.3603
      28    H19     19.921769   19.636066   28.240120 H          1 MOL1         0.3603
      29    H20     20.958421   18.961537   27.147623 H          1 MOL1         0.3603
@<TRIPOS>BOND
    1     1     2    1
    2     1     3    1
    3     1     4    1
    4     1     5    1
    5     5     6    1
    6     5     7    1
    7     5     8    1
    8     8     9    1
    9     8    10    1
   10     8    11    1
   11    11    12    1
   12    11    13    1
   13    11    14    1
   14    14    15    1
   15    14    16    1
   16    14    17    1
   17    17    18    1
   18    17    19    1
   19    17    20    1
   20    20    21    1
   21    20    22    1
   22    20    23    1
   23    23    24    1
   24    23    25    1
   25    23    26    1
   26    26    27    1
   27    26    28    1
   28    26    29    1
@<TRIPOS>SUBSTRUCTURE
       1 MOL1            1 RESIDUE      1      MOL     
@<SCITEGIC>MOL_PROPERTY
VM2 Rank
SciTegic.value.IntegerValue
214

@<SCITEGIC>MOL_PROPERTY
Conf_Id
SciTegic.value.IntegerValue
1299

@<SCITEGIC>MOL_PROPERTY
Probability
SciTegic.value.DoubleValue
0.02

@<SCITEGIC>MOL_PROPERTY
Sum Probability
SciTegic.value.DoubleValue
99.01

@<SCITEGIC>MOL_PROPERTY
Delta G
SciTegic.value.DoubleValue
3.391

@<SCITEGIC>MOL_PROPERTY
G
SciTegic.value.DoubleValue
61.539

@<SCITEGIC>MOL_PROPERTY
E
SciTegic.value.DoubleValue
22.858

@<SCITEGIC>MOL_PROPERTY
-TS
SciTegic.value.DoubleValue
38.681

@<SCITEGIC>MOL_PROPERTY
U+W
SciTegic.value.DoubleValue
-1.287

@<SCITEGIC>MOL_PROPERTY
U
SciTegic.value.DoubleValue
50.976

@<SCITEGIC>MOL_PROPERTY
W
SciTegic.value.DoubleValue
-52.263

@<SCITEGIC>MOL_PROPERTY
W(PB)
SciTegic.value.DoubleValue
-54.638

@<SCITEGIC>MOL_PROPERTY
W(SA)
SciTegic.value.DoubleValue
2.376

@<SCITEGIC>MOL_PROPERTY
Valence
SciTegic.value.DoubleValue
4.770

@<SCITEGIC>MOL_PROPERTY
Coulomb
SciTegic.value.DoubleValue
45.602

@<SCITEGIC>MOL_PROPERTY
VdW
SciTegic.value.DoubleValue
0.604

@<SCITEGIC>MOL_PROPERTY
VdW6
SciTegic.value.DoubleValue
-12.016

@<SCITEGIC>MOL_PROPERTY
VdW12
SciTegic.value.DoubleValue
12.620

@<SCITEGIC>MOL_PROPERTY
Bond
SciTegic.value.DoubleValue
0.365

@<SCITEGIC>MOL_PROPERTY
Angle
SciTegic.value.DoubleValue
1.946

@<SCITEGIC>MOL_PROPERTY
Pdih
SciTegic.value.DoubleValue
2.459

@<SCITEGIC>MOL_PROPERTY
Idih
SciTegic.value.DoubleValue
0.000

@<SCITEGIC>MOL_PROPERTY
Tether
SciTegic.value.DoubleValue
0.000

@<TRIPOS>MOLECULE
guest-3_vm2.mol2 : vm2 ligand conformer 215
          29          28           1
SMALL
USER_CHARGES
 
@<TRIPOS>ATOM
       1    C1      21.389288   19.317729   20.394472 C.3        1 MOL1        -0.2427
       2    H1      21.371890   18.303290   19.975120 H          1 MOL1         0.0958
       3    H2      21.681014   20.008796   19.592996 H          1 MOL1         0.0958
       4    H3      22.165480   19.354023   21.169996 H          1 MOL1         0.0958
       5    C2      20.010568   19.703107   20.971070 C.3        1 MOL1        -0.1412
       6    H4      19.262417   19.691421   20.166075 H          1 MOL1         0.0947
       7    H5      20.050099   20.733072   21.352466 H          1 MOL1         0.0947
       8    C3      19.575567   18.745142   22.101869 C.3        1 MOL1        -0.1437
       9    H6      19.538337   17.717869   21.713852 H          1 MOL1         0.0947
      10    H7      20.334822   18.752205   22.892634 H          1 MOL1         0.0947
      11    C4      18.189183   19.126834   22.676175 C.3        1 MOL1        -0.1437
      12    H8      17.454180   19.067283   21.861514 H          1 MOL1         0.0947
      13    H9      18.186545   20.173385   23.010599 H          1 MOL1         0.0947
      14    C5      17.721502   18.198575   23.827274 C.3        1 MOL1        -0.1437
      15    H10     16.633881   18.068090   23.740723 H          1 MOL1         0.0947
      16    H11     18.149916   17.194180   23.705399 H          1 MOL1         0.0947
      17    C6      18.014325   18.734113   25.252695 C.3        1 MOL1        -0.1437
      18    H12     17.581621   18.032890   25.979836 H          1 MOL1         0.0947
      19    H13     17.489296   19.688285   25.399079 H          1 MOL1         0.0947
      20    C7      19.515312   18.921147   25.569322 C.3        1 MOL1        -0.1477
      21    H14     20.060224   17.994776   25.344245 H          1 MOL1         0.0947
      22    H15     19.933776   19.713099   24.935658 H          1 MOL1         0.0947
      23    C8      19.733905   19.297730   27.045063 C.3        1 MOL1         0.0145
      24    H16     19.334472   18.509795   27.689300 H          1 MOL1         0.0921
      25    H17     19.204787   20.227719   27.270004 H          1 MOL1         0.0921
      26    N1      21.194349   19.493624   27.397061 N.4        1 MOL1        -0.5969
      27    H18     21.317561   19.743414   28.384554 H          1 MOL1         0.3603
      28    H19     21.623520   20.242618   26.843676 H          1 MOL1         0.3603
      29    H20     21.743885   18.643541   27.233265 H          1 MOL1         0.3603
@<TRIPOS>BOND
    1     1     2    1
    2     1     3    1
    3     1     4    1
    4     1     5    1
    5     5     6    1
    6     5     7    1
    7     5     8    1
    8     8     9    1
    9     8    10    1
   10     8    11    1
   11    11    12    1
   12    11    13    1
   13    11    14    1
   14    14    15    1
   15    14    16    1
   16    14    17    1
   17    17    18    1
   18    17    19    1
   19    17    20    1
   20    20    21    1
   21    20    22    1
   22    20    23    1
   23    23    24    1
   24    23    25    1
   25    23    26    1
   26    26    27    1
   27    26    28    1
   28    26    29    1
@<TRIPOS>SUBSTRUCTURE
       1 MOL1            1 RESIDUE      1      MOL     
@<SCITEGIC>MOL_PROPERTY
VM2 Rank
SciTegic.value.IntegerValue
215

@<SCITEGIC>MOL_PROPERTY
Conf_Id
SciTegic.value.IntegerValue
2273

@<SCITEGIC>MOL_PROPERTY
Probability
SciTegic.value.DoubleValue
0.02

@<SCITEGIC>MOL_PROPERTY
Sum Probability
SciTegic.value.DoubleValue
99.03

@<SCITEGIC>MOL_PROPERTY
Delta G
SciTegic.value.DoubleValue
3.411

@<SCITEGIC>MOL_PROPERTY
G
SciTegic.value.DoubleValue
61.559

@<SCITEGIC>MOL_PROPERTY
E
SciTegic.value.DoubleValue
23.988

@<SCITEGIC>MOL_PROPERTY
-TS
SciTegic.value.DoubleValue
37.570

@<SCITEGIC>MOL_PROPERTY
U+W
SciTegic.value.DoubleValue
-0.156

@<SCITEGIC>MOL_PROPERTY
U
SciTegic.value.DoubleValue
51.876

@<SCITEGIC>MOL_PROPERTY
W
SciTegic.value.DoubleValue
-52.032

@<SCITEGIC>MOL_PROPERTY
W(PB)
SciTegic.value.DoubleValue
-54.548

@<SCITEGIC>MOL_PROPERTY
W(SA)
SciTegic.value.DoubleValue
2.516

@<SCITEGIC>MOL_PROPERTY
Valence
SciTegic.value.DoubleValue
5.608

@<SCITEGIC>MOL_PROPERTY
Coulomb
SciTegic.value.DoubleValue
45.523

@<SCITEGIC>MOL_PROPERTY
VdW
SciTegic.value.DoubleValue
0.745

@<SCITEGIC>MOL_PROPERTY
VdW6
SciTegic.value.DoubleValue
-8.647

@<SCITEGIC>MOL_PROPERTY
VdW12
SciTegic.value.DoubleValue
9.392

@<SCITEGIC>MOL_PROPERTY
Bond
SciTegic.value.DoubleValue
0.233

@<SCITEGIC>MOL_PROPERTY
Angle
SciTegic.value.DoubleValue
1.167

@<SCITEGIC>MOL_PROPERTY
Pdih
SciTegic.value.DoubleValue
4.208

@<SCITEGIC>MOL_PROPERTY
Idih
SciTegic.value.DoubleValue
0.000

@<SCITEGIC>MOL_PROPERTY
Tether
SciTegic.value.DoubleValue
0.000

@<TRIPOS>MOLECULE
guest-3_vm2.mol2 : vm2 ligand conformer 216
          29          28           1
SMALL
USER_CHARGES
 
@<TRIPOS>ATOM
       1    C1      20.105189   17.325582   20.926408 C.3        1 MOL1        -0.2427
       2    H1      21.166376   17.346558   21.206530 H          1 MOL1         0.0958
       3    H2      19.537717   16.891399   21.758788 H          1 MOL1         0.0958
       4    H3      19.998045   16.650847   20.067234 H          1 MOL1         0.0958
       5    C2      19.596737   18.740677   20.568898 C.3        1 MOL1        -0.1412
       6    H4      18.526052   18.698182   20.324889 H          1 MOL1         0.0947
       7    H5      20.106806   19.079675   19.656395 H          1 MOL1         0.0947
       8    C3      19.837804   19.782433   21.687918 C.3        1 MOL1        -0.1437
       9    H6      20.911500   19.834115   21.915350 H          1 MOL1         0.0947
      10    H7      19.554143   20.773719   21.308238 H          1 MOL1         0.0947
      11    C4      19.043710   19.490721   22.983611 C.3        1 MOL1        -0.1437
      12    H8      19.360384   18.527599   23.396475 H          1 MOL1         0.0947
      13    H9      17.976175   19.395190   22.742329 H          1 MOL1         0.0947
      14    C5      19.234515   20.611892   24.034657 C.3        1 MOL1        -0.1437
      15    H10     20.301435   20.748705   24.258747 H          1 MOL1         0.0947
      16    H11     18.894266   21.557412   23.590012 H          1 MOL1         0.0947
      17    C6      18.441107   20.379907   25.347031 C.3        1 MOL1        -0.1437
      18    H12     17.491185   19.870862   25.132860 H          1 MOL1         0.0947
      19    H13     18.166299   21.361423   25.757602 H          1 MOL1         0.0947
      20    C7      19.220584   19.616427   26.447271 C.3        1 MOL1        -0.1477
      21    H14     20.128821   20.175619   26.708629 H          1 MOL1         0.0947
      22    H15     18.603296   19.585231   27.354976 H          1 MOL1         0.0947
      23    C8      19.601637   18.178007   26.055754 C.3        1 MOL1         0.0145
      24    H16     20.298741   18.198777   25.214523 H          1 MOL1         0.0921
      25    H17     18.706290   17.628347   25.753170 H          1 MOL1         0.0921
      26    N1      20.262718   17.412354   27.183451 N.4        1 MOL1        -0.5969
      27    H18     19.649328   17.332104   28.001228 H          1 MOL1         0.3603
      28    H19     21.126877   17.866157   27.497674 H          1 MOL1         0.3603
      29    H20     20.511453   16.457749   26.901607 H          1 MOL1         0.3603
@<TRIPOS>BOND
    1     1     2    1
    2     1     3    1
    3     1     4    1
    4     1     5    1
    5     5     6    1
    6     5     7    1
    7     5     8    1
    8     8     9    1
    9     8    10    1
   10     8    11    1
   11    11    12    1
   12    11    13    1
   13    11    14    1
   14    14    15    1
   15    14    16    1
   16    14    17    1
   17    17    18    1
   18    17    19    1
   19    17    20    1
   20    20    21    1
   21    20    22    1
   22    20    23    1
   23    23    24    1
   24    23    25    1
   25    23    26    1
   26    26    27    1
   27    26    28    1
   28    26    29    1
@<TRIPOS>SUBSTRUCTURE
       1 MOL1            1 RESIDUE      1      MOL     
@<SCITEGIC>MOL_PROPERTY
VM2 Rank
SciTegic.value.IntegerValue
216

@<SCITEGIC>MOL_PROPERTY
Conf_Id
SciTegic.value.IntegerValue
2008

@<SCITEGIC>MOL_PROPERTY
Probability
SciTegic.value.DoubleValue
0.02

@<SCITEGIC>MOL_PROPERTY
Sum Probability
SciTegic.value.DoubleValue
99.05

@<SCITEGIC>MOL_PROPERTY
Delta G
SciTegic.value.DoubleValue
3.439

@<SCITEGIC>MOL_PROPERTY
G
SciTegic.value.DoubleValue
61.587

@<SCITEGIC>MOL_PROPERTY
E
SciTegic.value.DoubleValue
24.142

@<SCITEGIC>MOL_PROPERTY
-TS
SciTegic.value.DoubleValue
37.444

@<SCITEGIC>MOL_PROPERTY
U+W
SciTegic.value.DoubleValue
-0.002

@<SCITEGIC>MOL_PROPERTY
U
SciTegic.value.DoubleValue
52.222

@<SCITEGIC>MOL_PROPERTY
W
SciTegic.value.DoubleValue
-52.224

@<SCITEGIC>MOL_PROPERTY
W(PB)
SciTegic.value.DoubleValue
-54.698

@<SCITEGIC>MOL_PROPERTY
W(SA)
SciTegic.value.DoubleValue
2.474

@<SCITEGIC>MOL_PROPERTY
Valence
SciTegic.value.DoubleValue
5.623

@<SCITEGIC>MOL_PROPERTY
Coulomb
SciTegic.value.DoubleValue
45.733

@<SCITEGIC>MOL_PROPERTY
VdW
SciTegic.value.DoubleValue
0.865

@<SCITEGIC>MOL_PROPERTY
VdW6
SciTegic.value.DoubleValue
-9.148

@<SCITEGIC>MOL_PROPERTY
VdW12
SciTegic.value.DoubleValue
10.014

@<SCITEGIC>MOL_PROPERTY
Bond
SciTegic.value.DoubleValue
0.264

@<SCITEGIC>MOL_PROPERTY
Angle
SciTegic.value.DoubleValue
1.329

@<SCITEGIC>MOL_PROPERTY
Pdih
SciTegic.value.DoubleValue
4.030

@<SCITEGIC>MOL_PROPERTY
Idih
SciTegic.value.DoubleValue
0.000

@<SCITEGIC>MOL_PROPERTY
Tether
SciTegic.value.DoubleValue
0.000

@<TRIPOS>MOLECULE
guest-3_vm2.mol2 : vm2 ligand conformer 217
          29          28           1
SMALL
USER_CHARGES
 
@<TRIPOS>ATOM
       1    C1      20.317840   18.626880   19.620374 C.3        1 MOL1        -0.2427
       2    H1      19.491458   19.118125   19.090264 H          1 MOL1         0.0958
       3    H2      21.258292   18.966313   19.167203 H          1 MOL1         0.0958
       4    H3      20.235328   17.544778   19.454633 H          1 MOL1         0.0958
       5    C2      20.286783   18.961790   21.126614 C.3        1 MOL1        -0.1412
       6    H4      20.411830   20.045373   21.253799 H          1 MOL1         0.0947
       7    H5      21.140784   18.481521   21.624294 H          1 MOL1         0.0947
       8    C3      18.967821   18.495989   21.787009 C.3        1 MOL1        -0.1437
       9    H6      18.117585   19.012239   21.320322 H          1 MOL1         0.0947
      10    H7      18.825834   17.425115   21.586155 H          1 MOL1         0.0947
      11    C4      18.932770   18.717708   23.318914 C.3        1 MOL1        -0.1437
      12    H8      19.770136   18.174046   23.774795 H          1 MOL1         0.0947
      13    H9      18.010039   18.271851   23.714855 H          1 MOL1         0.0947
      14    C5      18.991936   20.210912   23.724827 C.3        1 MOL1        -0.1437
      15    H10     19.985092   20.619044   23.494908 H          1 MOL1         0.0947
      16    H11     18.277865   20.775641   23.109696 H          1 MOL1         0.0947
      17    C6      18.665867   20.483966   25.216008 C.3        1 MOL1        -0.1437
      18    H12     17.638584   20.166658   25.443046 H          1 MOL1         0.0947
      19    H13     18.680182   21.572713   25.363844 H          1 MOL1         0.0947
      20    C7      19.653675   19.848450   26.226584 C.3        1 MOL1        -0.1477
      21    H14     20.677747   19.893968   25.832802 H          1 MOL1         0.0947
      22    H15     19.647547   20.449817   27.145453 H          1 MOL1         0.0947
      23    C8      19.288108   18.399196   26.601642 C.3        1 MOL1         0.0145
      24    H16     19.296933   17.764034   25.714132 H          1 MOL1         0.0921
      25    H17     18.282273   18.374502   27.029449 H          1 MOL1         0.0921
      26    N1      20.239200   17.793110   27.613028 N.4        1 MOL1        -0.5969
      27    H18     21.201850   17.762318   27.261261 H          1 MOL1         0.3603
      28    H19     19.977353   16.830679   27.853412 H          1 MOL1         0.3603
      29    H20     20.254804   18.325897   28.489015 H          1 MOL1         0.3603
@<TRIPOS>BOND
    1     1     2    1
    2     1     3    1
    3     1     4    1
    4     1     5    1
    5     5     6    1
    6     5     7    1
    7     5     8    1
    8     8     9    1
    9     8    10    1
   10     8    11    1
   11    11    12    1
   12    11    13    1
   13    11    14    1
   14    14    15    1
   15    14    16    1
   16    14    17    1
   17    17    18    1
   18    17    19    1
   19    17    20    1
   20    20    21    1
   21    20    22    1
   22    20    23    1
   23    23    24    1
   24    23    25    1
   25    23    26    1
   26    26    27    1
   27    26    28    1
   28    26    29    1
@<TRIPOS>SUBSTRUCTURE
       1 MOL1            1 RESIDUE      1      MOL     
@<SCITEGIC>MOL_PROPERTY
VM2 Rank
SciTegic.value.IntegerValue
217

@<SCITEGIC>MOL_PROPERTY
Conf_Id
SciTegic.value.IntegerValue
300

@<SCITEGIC>MOL_PROPERTY
Probability
SciTegic.value.DoubleValue
0.02

@<SCITEGIC>MOL_PROPERTY
Sum Probability
SciTegic.value.DoubleValue
99.06

@<SCITEGIC>MOL_PROPERTY
Delta G
SciTegic.value.DoubleValue
3.445

@<SCITEGIC>MOL_PROPERTY
G
SciTegic.value.DoubleValue
61.593

@<SCITEGIC>MOL_PROPERTY
E
SciTegic.value.DoubleValue
23.948

@<SCITEGIC>MOL_PROPERTY
-TS
SciTegic.value.DoubleValue
37.645

@<SCITEGIC>MOL_PROPERTY
U+W
SciTegic.value.DoubleValue
-0.197

@<SCITEGIC>MOL_PROPERTY
U
SciTegic.value.DoubleValue
51.999

@<SCITEGIC>MOL_PROPERTY
W
SciTegic.value.DoubleValue
-52.196

@<SCITEGIC>MOL_PROPERTY
W(PB)
SciTegic.value.DoubleValue
-54.680

@<SCITEGIC>MOL_PROPERTY
W(SA)
SciTegic.value.DoubleValue
2.484

@<SCITEGIC>MOL_PROPERTY
Valence
SciTegic.value.DoubleValue
5.450

@<SCITEGIC>MOL_PROPERTY
Coulomb
SciTegic.value.DoubleValue
45.755

@<SCITEGIC>MOL_PROPERTY
VdW
SciTegic.value.DoubleValue
0.794

@<SCITEGIC>MOL_PROPERTY
VdW6
SciTegic.value.DoubleValue
-9.318

@<SCITEGIC>MOL_PROPERTY
VdW12
SciTegic.value.DoubleValue
10.112

@<SCITEGIC>MOL_PROPERTY
Bond
SciTegic.value.DoubleValue
0.250

@<SCITEGIC>MOL_PROPERTY
Angle
SciTegic.value.DoubleValue
1.353

@<SCITEGIC>MOL_PROPERTY
Pdih
SciTegic.value.DoubleValue
3.847

@<SCITEGIC>MOL_PROPERTY
Idih
SciTegic.value.DoubleValue
0.000

@<SCITEGIC>MOL_PROPERTY
Tether
SciTegic.value.DoubleValue
0.000

@<TRIPOS>MOLECULE
guest-3_vm2.mol2 : vm2 ligand conformer 218
          29          28           1
SMALL
USER_CHARGES
 
@<TRIPOS>ATOM
       1    C1      21.103041   20.126910   20.988694 C.3        1 MOL1        -0.2427
       2    H1      20.925596   20.788996   21.845172 H          1 MOL1         0.0958
       3    H2      21.908238   19.429292   21.253291 H          1 MOL1         0.0958
       4    H3      21.458566   20.750564   20.158283 H          1 MOL1         0.0958
       5    C2      19.820105   19.366587   20.582727 C.3        1 MOL1        -0.1412
       6    H4      20.014298   18.817650   19.650680 H          1 MOL1         0.0947
       7    H5      19.020599   20.085455   20.355274 H          1 MOL1         0.0947
       8    C3      19.332848   18.363957   21.656452 C.3        1 MOL1        -0.1437
       9    H6      18.492040   17.790758   21.242022 H          1 MOL1         0.0947
      10    H7      20.129032   17.636587   21.866794 H          1 MOL1         0.0947
      11    C4      18.883475   19.040693   22.973492 C.3        1 MOL1        -0.1437
      12    H8      18.120231   19.798911   22.750918 H          1 MOL1         0.0947
      13    H9      19.731704   19.569619   23.419700 H          1 MOL1         0.0947
      14    C5      18.307556   18.011101   23.976679 C.3        1 MOL1        -0.1437
      15    H10     17.452583   17.512021   23.499787 H          1 MOL1         0.0947
      16    H11     19.044427   17.221941   24.180395 H          1 MOL1         0.0947
      17    C6      17.820850   18.640572   25.308040 C.3        1 MOL1        -0.1437
      18    H12     16.981410   18.038828   25.683148 H          1 MOL1         0.0947
      19    H13     17.410098   19.643557   25.127343 H          1 MOL1         0.0947
      20    C7      18.891569   18.694933   26.426797 C.3        1 MOL1        -0.1477
      21    H14     18.420233   19.073931   27.343394 H          1 MOL1         0.0947
      22    H15     19.237411   17.677616   26.653411 H          1 MOL1         0.0947
      23    C8      20.102174   19.581861   26.087173 C.3        1 MOL1         0.0145
      24    H16     19.760916   20.585343   25.819042 H          1 MOL1         0.0921
      25    H17     20.640796   19.157944   25.236150 H          1 MOL1         0.0921
      26    N1      21.082382   19.711386   27.234946 N.4        1 MOL1        -0.5969
      27    H18     21.882934   20.303431   26.987609 H          1 MOL1         0.3603
      28    H19     21.459924   18.801306   27.518954 H          1 MOL1         0.3603
      29    H20     20.646560   20.129312   28.063706 H          1 MOL1         0.3603
@<TRIPOS>BOND
    1     1     2    1
    2     1     3    1
    3     1     4    1
    4     1     5    1
    5     5     6    1
    6     5     7    1
    7     5     8    1
    8     8     9    1
    9     8    10    1
   10     8    11    1
   11    11    12    1
   12    11    13    1
   13    11    14    1
   14    14    15    1
   15    14    16    1
   16    14    17    1
   17    17    18    1
   18    17    19    1
   19    17    20    1
   20    20    21    1
   21    20    22    1
   22    20    23    1
   23    23    24    1
   24    23    25    1
   25    23    26    1
   26    26    27    1
   27    26    28    1
   28    26    29    1
@<TRIPOS>SUBSTRUCTURE
       1 MOL1            1 RESIDUE      1      MOL     
@<SCITEGIC>MOL_PROPERTY
VM2 Rank
SciTegic.value.IntegerValue
218

@<SCITEGIC>MOL_PROPERTY
Conf_Id
SciTegic.value.IntegerValue
1615

@<SCITEGIC>MOL_PROPERTY
Probability
SciTegic.value.DoubleValue
0.02

@<SCITEGIC>MOL_PROPERTY
Sum Probability
SciTegic.value.DoubleValue
99.08

@<SCITEGIC>MOL_PROPERTY
Delta G
SciTegic.value.DoubleValue
3.450

@<SCITEGIC>MOL_PROPERTY
G
SciTegic.value.DoubleValue
61.598

@<SCITEGIC>MOL_PROPERTY
E
SciTegic.value.DoubleValue
24.152

@<SCITEGIC>MOL_PROPERTY
-TS
SciTegic.value.DoubleValue
37.446

@<SCITEGIC>MOL_PROPERTY
U+W
SciTegic.value.DoubleValue
0.008

@<SCITEGIC>MOL_PROPERTY
U
SciTegic.value.DoubleValue
52.222

@<SCITEGIC>MOL_PROPERTY
W
SciTegic.value.DoubleValue
-52.214

@<SCITEGIC>MOL_PROPERTY
W(PB)
SciTegic.value.DoubleValue
-54.706

@<SCITEGIC>MOL_PROPERTY
W(SA)
SciTegic.value.DoubleValue
2.492

@<SCITEGIC>MOL_PROPERTY
Valence
SciTegic.value.DoubleValue
5.624

@<SCITEGIC>MOL_PROPERTY
Coulomb
SciTegic.value.DoubleValue
45.733

@<SCITEGIC>MOL_PROPERTY
VdW
SciTegic.value.DoubleValue
0.865

@<SCITEGIC>MOL_PROPERTY
VdW6
SciTegic.value.DoubleValue
-9.148

@<SCITEGIC>MOL_PROPERTY
VdW12
SciTegic.value.DoubleValue
10.014

@<SCITEGIC>MOL_PROPERTY
Bond
SciTegic.value.DoubleValue
0.264

@<SCITEGIC>MOL_PROPERTY
Angle
SciTegic.value.DoubleValue
1.329

@<SCITEGIC>MOL_PROPERTY
Pdih
SciTegic.value.DoubleValue
4.031

@<SCITEGIC>MOL_PROPERTY
Idih
SciTegic.value.DoubleValue
0.000

@<SCITEGIC>MOL_PROPERTY
Tether
SciTegic.value.DoubleValue
0.000

@<TRIPOS>MOLECULE
guest-3_vm2.mol2 : vm2 ligand conformer 219
          29          28           1
SMALL
USER_CHARGES
 
@<TRIPOS>ATOM
       1    C1      20.596625   20.406061   20.725474 C.3        1 MOL1        -0.2427
       2    H1      19.694160   20.804496   20.243983 H          1 MOL1         0.0958
       3    H2      20.717722   20.903840   21.695547 H          1 MOL1         0.0958
       4    H3      21.458364   20.681256   20.103712 H          1 MOL1         0.0958
       5    C2      20.511074   18.870916   20.881959 C.3        1 MOL1        -0.1412
       6    H4      21.410685   18.501109   21.393481 H          1 MOL1         0.0947
       7    H5      20.514713   18.412237   19.883288 H          1 MOL1         0.0947
       8    C3      19.246835   18.399556   21.640224 C.3        1 MOL1        -0.1437
       9    H6      18.350152   18.748945   21.110039 H          1 MOL1         0.0947
      10    H7      19.213449   17.301576   21.614571 H          1 MOL1         0.0947
      11    C4      19.200471   18.872072   23.112934 C.3        1 MOL1        -0.1437
      12    H8      19.150153   19.968009   23.151891 H          1 MOL1         0.0947
      13    H9      20.129442   18.567094   23.611084 H          1 MOL1         0.0947
      14    C5      17.987270   18.278494   23.866202 C.3        1 MOL1        -0.1437
      15    H10     17.078952   18.454007   23.273284 H          1 MOL1         0.0947
      16    H11     18.099688   17.187767   23.936439 H          1 MOL1         0.0947
      17    C6      17.758831   18.865402   25.283299 C.3        1 MOL1        -0.1437
      18    H12     16.852463   18.398369   25.692937 H          1 MOL1         0.0947
      19    H13     17.535306   19.939196   25.215653 H          1 MOL1         0.0947
      20    C7      18.918084   18.627251   26.283421 C.3        1 MOL1        -0.1477
      21    H14     18.504427   18.612652   27.300610 H          1 MOL1         0.0947
      22    H15     19.364162   17.637938   26.115636 H          1 MOL1         0.0947
      23    C8      20.001778   19.721436   26.223972 C.3        1 MOL1         0.0145
      24    H16     19.551643   20.694167   26.439647 H          1 MOL1         0.0921
      25    H17     20.443674   19.764155   25.226842 H          1 MOL1         0.0921
      26    N1      21.123032   19.496813   27.217514 N.4        1 MOL1        -0.5969
      27    H18     21.831577   20.237050   27.166418 H          1 MOL1         0.3603
      28    H19     21.606642   18.607762   27.052957 H          1 MOL1         0.3603
      29    H20     20.778987   19.479008   28.183315 H          1 MOL1         0.3603
@<TRIPOS>BOND
    1     1     2    1
    2     1     3    1
    3     1     4    1
    4     1     5    1
    5     5     6    1
    6     5     7    1
    7     5     8    1
    8     8     9    1
    9     8    10    1
   10     8    11    1
   11    11    12    1
   12    11    13    1
   13    11    14    1
   14    14    15    1
   15    14    16    1
   16    14    17    1
   17    17    18    1
   18    17    19    1
   19    17    20    1
   20    20    21    1
   21    20    22    1
   22    20    23    1
   23    23    24    1
   24    23    25    1
   25    23    26    1
   26    26    27    1
   27    26    28    1
   28    26    29    1
@<TRIPOS>SUBSTRUCTURE
       1 MOL1            1 RESIDUE      1      MOL     
@<SCITEGIC>MOL_PROPERTY
VM2 Rank
SciTegic.value.IntegerValue
219

@<SCITEGIC>MOL_PROPERTY
Conf_Id
SciTegic.value.IntegerValue
2147

@<SCITEGIC>MOL_PROPERTY
Probability
SciTegic.value.DoubleValue
0.02

@<SCITEGIC>MOL_PROPERTY
Sum Probability
SciTegic.value.DoubleValue
99.10

@<SCITEGIC>MOL_PROPERTY
Delta G
SciTegic.value.DoubleValue
3.457

@<SCITEGIC>MOL_PROPERTY
G
SciTegic.value.DoubleValue
61.605

@<SCITEGIC>MOL_PROPERTY
E
SciTegic.value.DoubleValue
23.960

@<SCITEGIC>MOL_PROPERTY
-TS
SciTegic.value.DoubleValue
37.645

@<SCITEGIC>MOL_PROPERTY
U+W
SciTegic.value.DoubleValue
-0.184

@<SCITEGIC>MOL_PROPERTY
U
SciTegic.value.DoubleValue
52.128

@<SCITEGIC>MOL_PROPERTY
W
SciTegic.value.DoubleValue
-52.312

@<SCITEGIC>MOL_PROPERTY
W(PB)
SciTegic.value.DoubleValue
-54.797

@<SCITEGIC>MOL_PROPERTY
W(SA)
SciTegic.value.DoubleValue
2.484

@<SCITEGIC>MOL_PROPERTY
Valence
SciTegic.value.DoubleValue
5.466

@<SCITEGIC>MOL_PROPERTY
Coulomb
SciTegic.value.DoubleValue
45.872

@<SCITEGIC>MOL_PROPERTY
VdW
SciTegic.value.DoubleValue
0.790

@<SCITEGIC>MOL_PROPERTY
VdW6
SciTegic.value.DoubleValue
-9.336

@<SCITEGIC>MOL_PROPERTY
VdW12
SciTegic.value.DoubleValue
10.126

@<SCITEGIC>MOL_PROPERTY
Bond
SciTegic.value.DoubleValue
0.248

@<SCITEGIC>MOL_PROPERTY
Angle
SciTegic.value.DoubleValue
1.378

@<SCITEGIC>MOL_PROPERTY
Pdih
SciTegic.value.DoubleValue
3.840

@<SCITEGIC>MOL_PROPERTY
Idih
SciTegic.value.DoubleValue
0.000

@<SCITEGIC>MOL_PROPERTY
Tether
SciTegic.value.DoubleValue
0.000

@<TRIPOS>MOLECULE
guest-3_vm2.mol2 : vm2 ligand conformer 220
          29          28           1
SMALL
USER_CHARGES
 
@<TRIPOS>ATOM
       1    C1      20.464062   19.036444   19.629595 C.3        1 MOL1        -0.2427
       2    H1      19.520873   19.200075   19.092134 H          1 MOL1         0.0958
       3    H2      21.086921   19.932257   19.507987 H          1 MOL1         0.0958
       4    H3      20.984116   18.196972   19.150157 H          1 MOL1         0.0958
       5    C2      20.206872   18.737432   21.121687 C.3        1 MOL1        -0.1412
       6    H4      21.164967   18.549069   21.625904 H          1 MOL1         0.0947
       7    H5      19.616530   17.815116   21.204101 H          1 MOL1         0.0947
       8    C3      19.470745   19.905883   21.818537 C.3        1 MOL1        -0.1437
       9    H6      20.041024   20.831978   21.662322 H          1 MOL1         0.0947
      10    H7      18.492399   20.062871   21.343768 H          1 MOL1         0.0947
      11    C4      19.281619   19.695870   23.340791 C.3        1 MOL1        -0.1437
      12    H8      18.843644   20.608797   23.767089 H          1 MOL1         0.0947
      13    H9      20.267477   19.568473   23.806016 H          1 MOL1         0.0947
      14    C5      18.376935   18.487527   23.686299 C.3        1 MOL1        -0.1437
      15    H10     17.475402   18.527011   23.059494 H          1 MOL1         0.0947
      16    H11     18.890888   17.552635   23.426262 H          1 MOL1         0.0947
      17    C6      17.930745   18.423463   25.169980 C.3        1 MOL1        -0.1437
      18    H12     17.250947   17.566485   25.274354 H          1 MOL1         0.0947
      19    H13     17.332870   19.309778   25.424011 H          1 MOL1         0.0947
      20    C7      19.083484   18.249951   26.190761 C.3        1 MOL1        -0.1477
      21    H14     18.685430   17.752092   27.085014 H          1 MOL1         0.0947
      22    H15     19.853253   17.582643   25.780861 H          1 MOL1         0.0947
      23    C8      19.711860   19.587252   26.628274 C.3        1 MOL1         0.0145
      24    H16     18.942588   20.225506   27.071203 H          1 MOL1         0.0921
      25    H17     20.132807   20.108363   25.766629 H          1 MOL1         0.0921
      26    N1      20.817678   19.414177   27.649076 N.4        1 MOL1        -0.5969
      27    H18     21.587546   18.843128   27.284947 H          1 MOL1         0.3603
      28    H19     20.480557   18.957268   28.502916 H          1 MOL1         0.3603
      29    H20     21.220311   20.314680   27.931215 H          1 MOL1         0.3603
@<TRIPOS>BOND
    1     1     2    1
    2     1     3    1
    3     1     4    1
    4     1     5    1
    5     5     6    1
    6     5     7    1
    7     5     8    1
    8     8     9    1
    9     8    10    1
   10     8    11    1
   11    11    12    1
   12    11    13    1
   13    11    14    1
   14    14    15    1
   15    14    16    1
   16    14    17    1
   17    17    18    1
   18    17    19    1
   19    17    20    1
   20    20    21    1
   21    20    22    1
   22    20    23    1
   23    23    24    1
   24    23    25    1
   25    23    26    1
   26    26    27    1
   27    26    28    1
   28    26    29    1
@<TRIPOS>SUBSTRUCTURE
       1 MOL1            1 RESIDUE      1      MOL     
@<SCITEGIC>MOL_PROPERTY
VM2 Rank
SciTegic.value.IntegerValue
220

@<SCITEGIC>MOL_PROPERTY
Conf_Id
SciTegic.value.IntegerValue
2285

@<SCITEGIC>MOL_PROPERTY
Probability
SciTegic.value.DoubleValue
0.02

@<SCITEGIC>MOL_PROPERTY
Sum Probability
SciTegic.value.DoubleValue
99.11

@<SCITEGIC>MOL_PROPERTY
Delta G
SciTegic.value.DoubleValue
3.470

@<SCITEGIC>MOL_PROPERTY
G
SciTegic.value.DoubleValue
61.618

@<SCITEGIC>MOL_PROPERTY
E
SciTegic.value.DoubleValue
23.973

@<SCITEGIC>MOL_PROPERTY
-TS
SciTegic.value.DoubleValue
37.645

@<SCITEGIC>MOL_PROPERTY
U+W
SciTegic.value.DoubleValue
-0.171

@<SCITEGIC>MOL_PROPERTY
U
SciTegic.value.DoubleValue
51.999

@<SCITEGIC>MOL_PROPERTY
W
SciTegic.value.DoubleValue
-52.171

@<SCITEGIC>MOL_PROPERTY
W(PB)
SciTegic.value.DoubleValue
-54.674

@<SCITEGIC>MOL_PROPERTY
W(SA)
SciTegic.value.DoubleValue
2.504

@<SCITEGIC>MOL_PROPERTY
Valence
SciTegic.value.DoubleValue
5.450

@<SCITEGIC>MOL_PROPERTY
Coulomb
SciTegic.value.DoubleValue
45.756

@<SCITEGIC>MOL_PROPERTY
VdW
SciTegic.value.DoubleValue
0.793

@<SCITEGIC>MOL_PROPERTY
VdW6
SciTegic.value.DoubleValue
-9.318

@<SCITEGIC>MOL_PROPERTY
VdW12
SciTegic.value.DoubleValue
10.111

@<SCITEGIC>MOL_PROPERTY
Bond
SciTegic.value.DoubleValue
0.250

@<SCITEGIC>MOL_PROPERTY
Angle
SciTegic.value.DoubleValue
1.353

@<SCITEGIC>MOL_PROPERTY
Pdih
SciTegic.value.DoubleValue
3.847

@<SCITEGIC>MOL_PROPERTY
Idih
SciTegic.value.DoubleValue
0.000

@<SCITEGIC>MOL_PROPERTY
Tether
SciTegic.value.DoubleValue
0.000

@<TRIPOS>MOLECULE
guest-3_vm2.mol2 : vm2 ligand conformer 221
          29          28           1
SMALL
USER_CHARGES
 
@<TRIPOS>ATOM
       1    C1      20.969113   18.799986   19.917316 C.3        1 MOL1        -0.2427
       2    H1      20.280428   18.755728   19.063507 H          1 MOL1         0.0958
       3    H2      21.822413   19.427741   19.629499 H          1 MOL1         0.0958
       4    H3      21.345019   17.786009   20.106492 H          1 MOL1         0.0958
       5    C2      20.267994   19.373203   21.167031 C.3        1 MOL1        -0.1412
       6    H4      19.929215   20.397314   20.957016 H          1 MOL1         0.0947
       7    H5      20.997452   19.440017   21.984927 H          1 MOL1         0.0947
       8    C3      19.063344   18.501878   21.594327 C.3        1 MOL1        -0.1437
       9    H6      18.386675   18.383759   20.736730 H          1 MOL1         0.0947
      10    H7      19.410050   17.492196   21.854159 H          1 MOL1         0.0947
      11    C4      18.257507   19.094682   22.776237 C.3        1 MOL1        -0.1437
      12    H8      17.364058   18.474673   22.933516 H          1 MOL1         0.0947
      13    H9      17.894603   20.096268   22.507154 H          1 MOL1         0.0947
      14    C5      19.059737   19.166150   24.097578 C.3        1 MOL1        -0.1437
      15    H10     19.465258   18.170895   24.316946 H          1 MOL1         0.0947
      16    H11     19.908910   19.852217   23.981947 H          1 MOL1         0.0947
      17    C6      18.176970   19.642830   25.275116 C.3        1 MOL1        -0.1437
      18    H12     17.394121   18.897268   25.471873 H          1 MOL1         0.0947
      19    H13     17.655487   20.563380   24.978329 H          1 MOL1         0.0947
      20    C7      18.955190   19.930699   26.584447 C.3        1 MOL1        -0.1477
      21    H14     19.700554   20.720289   26.420575 H          1 MOL1         0.0947
      22    H15     18.243703   20.335267   27.316537 H          1 MOL1         0.0947
      23    C8      19.626244   18.693372   27.215873 C.3        1 MOL1         0.0145
      24    H16     18.963412   17.828001   27.131818 H          1 MOL1         0.0921
      25    H17     19.799988   18.885812   28.278065 H          1 MOL1         0.0921
      26    N1      20.967902   18.335200   26.607074 N.4        1 MOL1        -0.5969
      27    H18     21.378309   17.506989   27.052411 H          1 MOL1         0.3603
      28    H19     21.646185   19.097171   26.710391 H          1 MOL1         0.3603
      29    H20     20.888639   18.133570   25.606339 H          1 MOL1         0.3603
@<TRIPOS>BOND
    1     1     2    1
    2     1     3    1
    3     1     4    1
    4     1     5    1
    5     5     6    1
    6     5     7    1
    7     5     8    1
    8     8     9    1
    9     8    10    1
   10     8    11    1
   11    11    12    1
   12    11    13    1
   13    11    14    1
   14    14    15    1
   15    14    16    1
   16    14    17    1
   17    17    18    1
   18    17    19    1
   19    17    20    1
   20    20    21    1
   21    20    22    1
   22    20    23    1
   23    23    24    1
   24    23    25    1
   25    23    26    1
   26    26    27    1
   27    26    28    1
   28    26    29    1
@<TRIPOS>SUBSTRUCTURE
       1 MOL1            1 RESIDUE      1      MOL     
@<SCITEGIC>MOL_PROPERTY
VM2 Rank
SciTegic.value.IntegerValue
221

@<SCITEGIC>MOL_PROPERTY
Conf_Id
SciTegic.value.IntegerValue
1280

@<SCITEGIC>MOL_PROPERTY
Probability
SciTegic.value.DoubleValue
0.02

@<SCITEGIC>MOL_PROPERTY
Sum Probability
SciTegic.value.DoubleValue
99.13

@<SCITEGIC>MOL_PROPERTY
Delta G
SciTegic.value.DoubleValue
3.497

@<SCITEGIC>MOL_PROPERTY
G
SciTegic.value.DoubleValue
61.645

@<SCITEGIC>MOL_PROPERTY
E
SciTegic.value.DoubleValue
24.191

@<SCITEGIC>MOL_PROPERTY
-TS
SciTegic.value.DoubleValue
37.454

@<SCITEGIC>MOL_PROPERTY
U+W
SciTegic.value.DoubleValue
0.046

@<SCITEGIC>MOL_PROPERTY
U
SciTegic.value.DoubleValue
52.272

@<SCITEGIC>MOL_PROPERTY
W
SciTegic.value.DoubleValue
-52.226

@<SCITEGIC>MOL_PROPERTY
W(PB)
SciTegic.value.DoubleValue
-54.706

@<SCITEGIC>MOL_PROPERTY
W(SA)
SciTegic.value.DoubleValue
2.479

@<SCITEGIC>MOL_PROPERTY
Valence
SciTegic.value.DoubleValue
4.707

@<SCITEGIC>MOL_PROPERTY
Coulomb
SciTegic.value.DoubleValue
46.779

@<SCITEGIC>MOL_PROPERTY
VdW
SciTegic.value.DoubleValue
0.787

@<SCITEGIC>MOL_PROPERTY
VdW6
SciTegic.value.DoubleValue
-9.146

@<SCITEGIC>MOL_PROPERTY
VdW12
SciTegic.value.DoubleValue
9.933

@<SCITEGIC>MOL_PROPERTY
Bond
SciTegic.value.DoubleValue
0.241

@<SCITEGIC>MOL_PROPERTY
Angle
SciTegic.value.DoubleValue
1.214

@<SCITEGIC>MOL_PROPERTY
Pdih
SciTegic.value.DoubleValue
3.253

@<SCITEGIC>MOL_PROPERTY
Idih
SciTegic.value.DoubleValue
0.000

@<SCITEGIC>MOL_PROPERTY
Tether
SciTegic.value.DoubleValue
0.000

@<TRIPOS>MOLECULE
guest-3_vm2.mol2 : vm2 ligand conformer 222
          29          28           1
SMALL
USER_CHARGES
 
@<TRIPOS>ATOM
       1    C1      20.244557   19.335870   19.378273 C.3        1 MOL1        -0.2427
       2    H1      19.846185   19.227223   18.361150 H          1 MOL1         0.0958
       3    H2      20.502274   20.392433   19.528263 H          1 MOL1         0.0958
       4    H3      21.168138   18.745953   19.443410 H          1 MOL1         0.0958
       5    C2      19.210217   18.863607   20.421860 C.3        1 MOL1        -0.1412
       6    H4      18.946809   17.814993   20.224654 H          1 MOL1         0.0947
       7    H5      18.286668   19.448951   20.310797 H          1 MOL1         0.0947
       8    C3      19.746572   19.005234   21.863570 C.3        1 MOL1        -0.1437
       9    H6      20.668210   18.416650   21.969919 H          1 MOL1         0.0947
      10    H7      20.015212   20.054181   22.042313 H          1 MOL1         0.0947
      11    C4      18.708005   18.534867   22.910574 C.3        1 MOL1        -0.1437
      12    H8      18.394392   17.511376   22.662597 H          1 MOL1         0.0947
      13    H9      17.805121   19.157661   22.845497 H          1 MOL1         0.0947
      14    C5      19.241177   18.542088   24.364606 C.3        1 MOL1        -0.1437
      15    H10     18.496043   18.038342   24.991952 H          1 MOL1         0.0947
      16    H11     20.161920   17.945243   24.421185 H          1 MOL1         0.0947
      17    C6      19.497399   19.964525   24.922995 C.3        1 MOL1        -0.1437
      18    H12     18.554158   20.527878   24.934737 H          1 MOL1         0.0947
      19    H13     20.170365   20.508091   24.248230 H          1 MOL1         0.0947
      20    C7      20.130886   19.991958   26.337625 C.3        1 MOL1        -0.1477
      21    H14     21.106301   19.487594   26.329474 H          1 MOL1         0.0947
      22    H15     20.336216   21.040062   26.592937 H          1 MOL1         0.0947
      23    C8      19.240635   19.404065   27.452010 C.3        1 MOL1         0.0145
      24    H16     18.197358   19.681920   27.279813 H          1 MOL1         0.0921
      25    H17     19.549527   19.824335   28.412965 H          1 MOL1         0.0921
      26    N1      19.324553   17.895786   27.583487 N.4        1 MOL1        -0.5969
      27    H18     19.044960   17.422722   26.719518 H          1 MOL1         0.3603
      28    H19     18.716764   17.544996   28.331952 H          1 MOL1         0.3603
      29    H20     20.277377   17.587091   27.802984 H          1 MOL1         0.3603
@<TRIPOS>BOND
    1     1     2    1
    2     1     3    1
    3     1     4    1
    4     1     5    1
    5     5     6    1
    6     5     7    1
    7     5     8    1
    8     8     9    1
    9     8    10    1
   10     8    11    1
   11    11    12    1
   12    11    13    1
   13    11    14    1
   14    14    15    1
   15    14    16    1
   16    14    17    1
   17    17    18    1
   18    17    19    1
   19    17    20    1
   20    20    21    1
   21    20    22    1
   22    20    23    1
   23    23    24    1
   24    23    25    1
   25    23    26    1
   26    26    27    1
   27    26    28    1
   28    26    29    1
@<TRIPOS>SUBSTRUCTURE
       1 MOL1            1 RESIDUE      1      MOL     
@<SCITEGIC>MOL_PROPERTY
VM2 Rank
SciTegic.value.IntegerValue
222

@<SCITEGIC>MOL_PROPERTY
Conf_Id
SciTegic.value.IntegerValue
2334

@<SCITEGIC>MOL_PROPERTY
Probability
SciTegic.value.DoubleValue
0.02

@<SCITEGIC>MOL_PROPERTY
Sum Probability
SciTegic.value.DoubleValue
99.14

@<SCITEGIC>MOL_PROPERTY
Delta G
SciTegic.value.DoubleValue
3.499

@<SCITEGIC>MOL_PROPERTY
G
SciTegic.value.DoubleValue
61.647

@<SCITEGIC>MOL_PROPERTY
E
SciTegic.value.DoubleValue
24.302

@<SCITEGIC>MOL_PROPERTY
-TS
SciTegic.value.DoubleValue
37.344

@<SCITEGIC>MOL_PROPERTY
U+W
SciTegic.value.DoubleValue
0.158

@<SCITEGIC>MOL_PROPERTY
U
SciTegic.value.DoubleValue
51.996

@<SCITEGIC>MOL_PROPERTY
W
SciTegic.value.DoubleValue
-51.838

@<SCITEGIC>MOL_PROPERTY
W(PB)
SciTegic.value.DoubleValue
-54.337

@<SCITEGIC>MOL_PROPERTY
W(SA)
SciTegic.value.DoubleValue
2.500

@<SCITEGIC>MOL_PROPERTY
Valence
SciTegic.value.DoubleValue
4.867

@<SCITEGIC>MOL_PROPERTY
Coulomb
SciTegic.value.DoubleValue
46.253

@<SCITEGIC>MOL_PROPERTY
VdW
SciTegic.value.DoubleValue
0.877

@<SCITEGIC>MOL_PROPERTY
VdW6
SciTegic.value.DoubleValue
-9.001

@<SCITEGIC>MOL_PROPERTY
VdW12
SciTegic.value.DoubleValue
9.878

@<SCITEGIC>MOL_PROPERTY
Bond
SciTegic.value.DoubleValue
0.252

@<SCITEGIC>MOL_PROPERTY
Angle
SciTegic.value.DoubleValue
1.290

@<SCITEGIC>MOL_PROPERTY
Pdih
SciTegic.value.DoubleValue
3.325

@<SCITEGIC>MOL_PROPERTY
Idih
SciTegic.value.DoubleValue
0.000

@<SCITEGIC>MOL_PROPERTY
Tether
SciTegic.value.DoubleValue
0.000

@<TRIPOS>MOLECULE
guest-3_vm2.mol2 : vm2 ligand conformer 223
          29          28           1
SMALL
USER_CHARGES
 
@<TRIPOS>ATOM
       1    C1      21.198496   20.018312   21.080637 C.3        1 MOL1        -0.2427
       2    H1      21.796063   19.102887   20.980984 H          1 MOL1         0.0958
       3    H2      21.617475   20.768764   20.397851 H          1 MOL1         0.0958
       4    H3      21.319142   20.398972   22.102391 H          1 MOL1         0.0958
       5    C2      19.713488   19.751760   20.745246 C.3        1 MOL1        -0.1412
       6    H4      19.631833   19.495516   19.679686 H          1 MOL1         0.0947
       7    H5      19.131919   20.673662   20.885205 H          1 MOL1         0.0947
       8    C3      19.089139   18.607506   21.579829 C.3        1 MOL1        -0.1437
       9    H6      18.075189   18.415360   21.202729 H          1 MOL1         0.0947
      10    H7      19.659593   17.682337   21.418945 H          1 MOL1         0.0947
      11    C4      19.016325   18.918715   23.093885 C.3        1 MOL1        -0.1437
      12    H8      18.485346   19.868013   23.248034 H          1 MOL1         0.0947
      13    H9      20.033163   19.043160   23.484409 H          1 MOL1         0.0947
      14    C5      18.304810   17.791115   23.877531 C.3        1 MOL1        -0.1437
      15    H10     17.345264   17.567720   23.391061 H          1 MOL1         0.0947
      16    H11     18.901225   16.870591   23.812716 H          1 MOL1         0.0947
      17    C6      18.024265   18.120099   25.366820 C.3        1 MOL1        -0.1437
      18    H12     17.484675   17.265799   25.798611 H          1 MOL1         0.0947
      19    H13     17.337019   18.974302   25.441675 H          1 MOL1         0.0947
      20    C7      19.286507   18.378188   26.227708 C.3        1 MOL1        -0.1477
      21    H14     19.060980   18.108758   27.268162 H          1 MOL1         0.0947
      22    H15     20.103765   17.718721   25.906643 H          1 MOL1         0.0947
      23    C8      19.743490   19.849888   26.203634 C.3        1 MOL1         0.0145
      24    H16     18.937278   20.489242   26.573222 H          1 MOL1         0.0921
      25    H17     19.981107   20.157011   25.183544 H          1 MOL1         0.0921
      26    N1      20.967480   20.102417   27.059710 N.4        1 MOL1        -0.5969
      27    H18     21.772451   19.549169   26.747809 H          1 MOL1         0.3603
      28    H19     20.800664   19.864679   28.043128 H          1 MOL1         0.3603
      29    H20     21.253321   21.087441   27.034919 H          1 MOL1         0.3603
@<TRIPOS>BOND
    1     1     2    1
    2     1     3    1
    3     1     4    1
    4     1     5    1
    5     5     6    1
    6     5     7    1
    7     5     8    1
    8     8     9    1
    9     8    10    1
   10     8    11    1
   11    11    12    1
   12    11    13    1
   13    11    14    1
   14    14    15    1
   15    14    16    1
   16    14    17    1
   17    17    18    1
   18    17    19    1
   19    17    20    1
   20    20    21    1
   21    20    22    1
   22    20    23    1
   23    23    24    1
   24    23    25    1
   25    23    26    1
   26    26    27    1
   27    26    28    1
   28    26    29    1
@<TRIPOS>SUBSTRUCTURE
       1 MOL1            1 RESIDUE      1      MOL     
@<SCITEGIC>MOL_PROPERTY
VM2 Rank
SciTegic.value.IntegerValue
223

@<SCITEGIC>MOL_PROPERTY
Conf_Id
SciTegic.value.IntegerValue
2584

@<SCITEGIC>MOL_PROPERTY
Probability
SciTegic.value.DoubleValue
0.02

@<SCITEGIC>MOL_PROPERTY
Sum Probability
SciTegic.value.DoubleValue
99.16

@<SCITEGIC>MOL_PROPERTY
Delta G
SciTegic.value.DoubleValue
3.502

@<SCITEGIC>MOL_PROPERTY
G
SciTegic.value.DoubleValue
61.650

@<SCITEGIC>MOL_PROPERTY
E
SciTegic.value.DoubleValue
23.999

@<SCITEGIC>MOL_PROPERTY
-TS
SciTegic.value.DoubleValue
37.651

@<SCITEGIC>MOL_PROPERTY
U+W
SciTegic.value.DoubleValue
-0.145

@<SCITEGIC>MOL_PROPERTY
U
SciTegic.value.DoubleValue
52.277

@<SCITEGIC>MOL_PROPERTY
W
SciTegic.value.DoubleValue
-52.422

@<SCITEGIC>MOL_PROPERTY
W(PB)
SciTegic.value.DoubleValue
-54.893

@<SCITEGIC>MOL_PROPERTY
W(SA)
SciTegic.value.DoubleValue
2.471

@<SCITEGIC>MOL_PROPERTY
Valence
SciTegic.value.DoubleValue
5.465

@<SCITEGIC>MOL_PROPERTY
Coulomb
SciTegic.value.DoubleValue
46.027

@<SCITEGIC>MOL_PROPERTY
VdW
SciTegic.value.DoubleValue
0.785

@<SCITEGIC>MOL_PROPERTY
VdW6
SciTegic.value.DoubleValue
-9.375

@<SCITEGIC>MOL_PROPERTY
VdW12
SciTegic.value.DoubleValue
10.160

@<SCITEGIC>MOL_PROPERTY
Bond
SciTegic.value.DoubleValue
0.251

@<SCITEGIC>MOL_PROPERTY
Angle
SciTegic.value.DoubleValue
1.379

@<SCITEGIC>MOL_PROPERTY
Pdih
SciTegic.value.DoubleValue
3.835

@<SCITEGIC>MOL_PROPERTY
Idih
SciTegic.value.DoubleValue
0.000

@<SCITEGIC>MOL_PROPERTY
Tether
SciTegic.value.DoubleValue
0.000

@<TRIPOS>MOLECULE
guest-3_vm2.mol2 : vm2 ligand conformer 224
          29          28           1
SMALL
USER_CHARGES
 
@<TRIPOS>ATOM
       1    C1      21.016326   18.184008   20.562700 C.3        1 MOL1        -0.2427
       2    H1      21.883621   18.166392   21.235541 H          1 MOL1         0.0958
       3    H2      21.093824   17.319870   19.890182 H          1 MOL1         0.0958
       4    H3      21.076323   19.093692   19.951053 H          1 MOL1         0.0958
       5    C2      19.695326   18.137694   21.359228 C.3        1 MOL1        -0.1412
       6    H4      19.649681   17.202735   21.935080 H          1 MOL1         0.0947
       7    H5      18.847952   18.121103   20.659563 H          1 MOL1         0.0947
       8    C3      19.560787   19.344587   22.313411 C.3        1 MOL1        -0.1437
       9    H6      20.419667   19.358694   22.995889 H          1 MOL1         0.0947
      10    H7      19.602313   20.276868   21.733556 H          1 MOL1         0.0947
      11    C4      18.238497   19.296135   23.116205 C.3        1 MOL1        -0.1437
      12    H8      18.174589   18.365086   23.692906 H          1 MOL1         0.0947
      13    H9      17.398306   19.263506   22.408935 H          1 MOL1         0.0947
      14    C5      18.035988   20.514308   24.051683 C.3        1 MOL1        -0.1437
      15    H10     17.987530   21.423677   23.436931 H          1 MOL1         0.0947
      16    H11     17.050992   20.427807   24.530697 H          1 MOL1         0.0947
      17    C6      19.110242   20.721588   25.153814 C.3        1 MOL1        -0.1437
      18    H12     18.842998   21.636161   25.701060 H          1 MOL1         0.0947
      19    H13     20.091715   20.927713   24.706482 H          1 MOL1         0.0947
      20    C7      19.220672   19.567940   26.182838 C.3        1 MOL1        -0.1477
      21    H14     19.601239   19.978944   27.127408 H          1 MOL1         0.0947
      22    H15     18.224259   19.161396   26.401099 H          1 MOL1         0.0947
      23    C8      20.171259   18.440762   25.735792 C.3        1 MOL1         0.0145
      24    H16     21.169689   18.851237   25.562812 H          1 MOL1         0.0921
      25    H17     19.819199   17.995959   24.803311 H          1 MOL1         0.0921
      26    N1      20.294904   17.330977   26.759329 N.4        1 MOL1        -0.5969
      27    H18     20.934515   16.592669   26.445777 H          1 MOL1         0.3603
      28    H19     19.391720   16.884072   26.948708 H          1 MOL1         0.3603
      29    H20     20.654176   17.676792   27.655287 H          1 MOL1         0.3603
@<TRIPOS>BOND
    1     1     2    1
    2     1     3    1
    3     1     4    1
    4     1     5    1
    5     5     6    1
    6     5     7    1
    7     5     8    1
    8     8     9    1
    9     8    10    1
   10     8    11    1
   11    11    12    1
   12    11    13    1
   13    11    14    1
   14    14    15    1
   15    14    16    1
   16    14    17    1
   17    17    18    1
   18    17    19    1
   19    17    20    1
   20    20    21    1
   21    20    22    1
   22    20    23    1
   23    23    24    1
   24    23    25    1
   25    23    26    1
   26    26    27    1
   27    26    28    1
   28    26    29    1
@<TRIPOS>SUBSTRUCTURE
       1 MOL1            1 RESIDUE      1      MOL     
@<SCITEGIC>MOL_PROPERTY
VM2 Rank
SciTegic.value.IntegerValue
224

@<SCITEGIC>MOL_PROPERTY
Conf_Id
SciTegic.value.IntegerValue
2467

@<SCITEGIC>MOL_PROPERTY
Probability
SciTegic.value.DoubleValue
0.01

@<SCITEGIC>MOL_PROPERTY
Sum Probability
SciTegic.value.DoubleValue
99.17

@<SCITEGIC>MOL_PROPERTY
Delta G
SciTegic.value.DoubleValue
3.526

@<SCITEGIC>MOL_PROPERTY
G
SciTegic.value.DoubleValue
61.674

@<SCITEGIC>MOL_PROPERTY
E
SciTegic.value.DoubleValue
23.615

@<SCITEGIC>MOL_PROPERTY
-TS
SciTegic.value.DoubleValue
38.059

@<SCITEGIC>MOL_PROPERTY
U+W
SciTegic.value.DoubleValue
-0.530

@<SCITEGIC>MOL_PROPERTY
U
SciTegic.value.DoubleValue
52.109

@<SCITEGIC>MOL_PROPERTY
W
SciTegic.value.DoubleValue
-52.639

@<SCITEGIC>MOL_PROPERTY
W(PB)
SciTegic.value.DoubleValue
-55.097

@<SCITEGIC>MOL_PROPERTY
W(SA)
SciTegic.value.DoubleValue
2.458

@<SCITEGIC>MOL_PROPERTY
Valence
SciTegic.value.DoubleValue
5.483

@<SCITEGIC>MOL_PROPERTY
Coulomb
SciTegic.value.DoubleValue
46.297

@<SCITEGIC>MOL_PROPERTY
VdW
SciTegic.value.DoubleValue
0.329

@<SCITEGIC>MOL_PROPERTY
VdW6
SciTegic.value.DoubleValue
-10.093

@<SCITEGIC>MOL_PROPERTY
VdW12
SciTegic.value.DoubleValue
10.423

@<SCITEGIC>MOL_PROPERTY
Bond
SciTegic.value.DoubleValue
0.261

@<SCITEGIC>MOL_PROPERTY
Angle
SciTegic.value.DoubleValue
1.719

@<SCITEGIC>MOL_PROPERTY
Pdih
SciTegic.value.DoubleValue
3.504

@<SCITEGIC>MOL_PROPERTY
Idih
SciTegic.value.DoubleValue
0.000

@<SCITEGIC>MOL_PROPERTY
Tether
SciTegic.value.DoubleValue
0.000

@<TRIPOS>MOLECULE
guest-3_vm2.mol2 : vm2 ligand conformer 225
          29          28           1
SMALL
USER_CHARGES
 
@<TRIPOS>ATOM
       1    C1      20.246838   17.346078   21.020759 C.3        1 MOL1        -0.2427
       2    H1      21.289599   17.681400   20.948437 H          1 MOL1         0.0958
       3    H2      20.086076   16.934752   22.024951 H          1 MOL1         0.0958
       4    H3      20.106880   16.527374   20.303086 H          1 MOL1         0.0958
       5    C2      19.268627   18.503651   20.717587 C.3        1 MOL1        -0.1412
       6    H4      18.233626   18.151615   20.829644 H          1 MOL1         0.0947
       7    H5      19.381674   18.795777   19.664197 H          1 MOL1         0.0947
       8    C3      19.496046   19.750952   21.605380 C.3        1 MOL1        -0.1437
       9    H6      20.524854   20.113219   21.472891 H          1 MOL1         0.0947
      10    H7      18.836737   20.555133   21.250665 H          1 MOL1         0.0947
      11    C4      19.222111   19.496164   23.106899 C.3        1 MOL1        -0.1437
      12    H8      19.926102   18.741903   23.477636 H          1 MOL1         0.0947
      13    H9      18.208676   19.090722   23.231136 H          1 MOL1         0.0947
      14    C5      19.372384   20.787590   23.944442 C.3        1 MOL1        -0.1437
      15    H10     20.417165   21.125746   23.907560 H          1 MOL1         0.0947
      16    H11     18.776812   21.586113   23.480821 H          1 MOL1         0.0947
      17    C6      18.926295   20.651357   25.423414 C.3        1 MOL1        -0.1437
      18    H12     17.852846   20.421795   25.474234 H          1 MOL1         0.0947
      19    H13     19.042261   21.636441   25.896267 H          1 MOL1         0.0947
      20    C7      19.729009   19.619616   26.255367 C.3        1 MOL1        -0.1477
      21    H14     20.783529   19.626059   25.949038 H          1 MOL1         0.0947
      22    H15     19.710044   19.929427   27.308769 H          1 MOL1         0.0947
      23    C8      19.153060   18.192833   26.166581 C.3        1 MOL1         0.0145
      24    H16     19.157353   17.845381   25.131868 H          1 MOL1         0.0921
      25    H17     18.119105   18.193073   26.521947 H          1 MOL1         0.0921
      26    N1      19.929630   17.189761   26.994571 N.4        1 MOL1        -0.5969
      27    H18     20.907375   17.121367   26.693436 H          1 MOL1         0.3603
      28    H19     19.528729   16.247809   26.926781 H          1 MOL1         0.3603
      29    H20     19.936861   17.440238   27.988888 H          1 MOL1         0.3603
@<TRIPOS>BOND
    1     1     2    1
    2     1     3    1
    3     1     4    1
    4     1     5    1
    5     5     6    1
    6     5     7    1
    7     5     8    1
    8     8     9    1
    9     8    10    1
   10     8    11    1
   11    11    12    1
   12    11    13    1
   13    11    14    1
   14    14    15    1
   15    14    16    1
   16    14    17    1
   17    17    18    1
   18    17    19    1
   19    17    20    1
   20    20    21    1
   21    20    22    1
   22    20    23    1
   23    23    24    1
   24    23    25    1
   25    23    26    1
   26    26    27    1
   27    26    28    1
   28    26    29    1
@<TRIPOS>SUBSTRUCTURE
       1 MOL1            1 RESIDUE      1      MOL     
@<SCITEGIC>MOL_PROPERTY
VM2 Rank
SciTegic.value.IntegerValue
225

@<SCITEGIC>MOL_PROPERTY
Conf_Id
SciTegic.value.IntegerValue
1216

@<SCITEGIC>MOL_PROPERTY
Probability
SciTegic.value.DoubleValue
0.01

@<SCITEGIC>MOL_PROPERTY
Sum Probability
SciTegic.value.DoubleValue
99.19

@<SCITEGIC>MOL_PROPERTY
Delta G
SciTegic.value.DoubleValue
3.529

@<SCITEGIC>MOL_PROPERTY
G
SciTegic.value.DoubleValue
61.677

@<SCITEGIC>MOL_PROPERTY
E
SciTegic.value.DoubleValue
24.026

@<SCITEGIC>MOL_PROPERTY
-TS
SciTegic.value.DoubleValue
37.651

@<SCITEGIC>MOL_PROPERTY
U+W
SciTegic.value.DoubleValue
-0.119

@<SCITEGIC>MOL_PROPERTY
U
SciTegic.value.DoubleValue
52.277

@<SCITEGIC>MOL_PROPERTY
W
SciTegic.value.DoubleValue
-52.395

@<SCITEGIC>MOL_PROPERTY
W(PB)
SciTegic.value.DoubleValue
-54.863

@<SCITEGIC>MOL_PROPERTY
W(SA)
SciTegic.value.DoubleValue
2.467

@<SCITEGIC>MOL_PROPERTY
Valence
SciTegic.value.DoubleValue
5.464

@<SCITEGIC>MOL_PROPERTY
Coulomb
SciTegic.value.DoubleValue
46.027

@<SCITEGIC>MOL_PROPERTY
VdW
SciTegic.value.DoubleValue
0.785

@<SCITEGIC>MOL_PROPERTY
VdW6
SciTegic.value.DoubleValue
-9.375

@<SCITEGIC>MOL_PROPERTY
VdW12
SciTegic.value.DoubleValue
10.160

@<SCITEGIC>MOL_PROPERTY
Bond
SciTegic.value.DoubleValue
0.251

@<SCITEGIC>MOL_PROPERTY
Angle
SciTegic.value.DoubleValue
1.378

@<SCITEGIC>MOL_PROPERTY
Pdih
SciTegic.value.DoubleValue
3.835

@<SCITEGIC>MOL_PROPERTY
Idih
SciTegic.value.DoubleValue
0.000

@<SCITEGIC>MOL_PROPERTY
Tether
SciTegic.value.DoubleValue
0.000

@<TRIPOS>MOLECULE
guest-3_vm2.mol2 : vm2 ligand conformer 226
          29          28           1
SMALL
USER_CHARGES
 
@<TRIPOS>ATOM
       1    C1      20.855031   18.479645   19.910213 C.3        1 MOL1        -0.2427
       2    H1      21.784491   19.019318   20.134045 H          1 MOL1         0.0958
       3    H2      21.123470   17.465876   19.585793 H          1 MOL1         0.0958
       4    H3      20.361450   18.982945   19.068606 H          1 MOL1         0.0958
       5    C2      19.931873   18.429708   21.146022 C.3        1 MOL1        -0.1412
       6    H4      20.443304   17.884606   21.950278 H          1 MOL1         0.0947
       7    H5      19.025081   17.859535   20.900440 H          1 MOL1         0.0947
       8    C3      19.543148   19.848518   21.624400 C.3        1 MOL1        -0.1437
       9    H6      20.446254   20.400530   21.919114 H          1 MOL1         0.0947
      10    H7      19.105638   20.401558   20.781763 H          1 MOL1         0.0947
      11    C4      18.527389   19.852248   22.793131 C.3        1 MOL1        -0.1437
      12    H8      17.616988   19.317090   22.489726 H          1 MOL1         0.0947
      13    H9      18.224750   20.890549   22.987396 H          1 MOL1         0.0947
      14    C5      19.085128   19.237609   24.099185 C.3        1 MOL1        -0.1437
      15    H10     19.311052   18.174502   23.944542 H          1 MOL1         0.0947
      16    H11     20.025291   19.742846   24.352039 H          1 MOL1         0.0947
      17    C6      18.083277   19.380081   25.269270 C.3        1 MOL1        -0.1437
      18    H12     17.101563   19.009056   24.943667 H          1 MOL1         0.0947
      19    H13     17.945238   20.444100   25.506414 H          1 MOL1         0.0947
      20    C7      18.485794   18.613562   26.555071 C.3        1 MOL1        -0.1477
      21    H14     17.668566   18.721319   27.280583 H          1 MOL1         0.0947
      22    H15     18.566363   17.537846   26.349594 H          1 MOL1         0.0947
      23    C8      19.779001   19.121809   27.225365 C.3        1 MOL1         0.0145
      24    H16     19.776989   18.821079   28.276570 H          1 MOL1         0.0921
      25    H17     19.813797   20.213794   27.184925 H          1 MOL1         0.0921
      26    N1      21.053357   18.574819   26.612343 N.4        1 MOL1        -0.5969
      27    H18     21.095641   17.552315   26.675925 H          1 MOL1         0.3603
      28    H19     21.888617   18.938633   27.084224 H          1 MOL1         0.3603
      29    H20     21.133502   18.820484   25.621567 H          1 MOL1         0.3603
@<TRIPOS>BOND
    1     1     2    1
    2     1     3    1
    3     1     4    1
    4     1     5    1
    5     5     6    1
    6     5     7    1
    7     5     8    1
    8     8     9    1
    9     8    10    1
   10     8    11    1
   11    11    12    1
   12    11    13    1
   13    11    14    1
   14    14    15    1
   15    14    16    1
   16    14    17    1
   17    17    18    1
   18    17    19    1
   19    17    20    1
   20    20    21    1
   21    20    22    1
   22    20    23    1
   23    23    24    1
   24    23    25    1
   25    23    26    1
   26    26    27    1
   27    26    28    1
   28    26    29    1
@<TRIPOS>SUBSTRUCTURE
       1 MOL1            1 RESIDUE      1      MOL     
@<SCITEGIC>MOL_PROPERTY
VM2 Rank
SciTegic.value.IntegerValue
226

@<SCITEGIC>MOL_PROPERTY
Conf_Id
SciTegic.value.IntegerValue
1291

@<SCITEGIC>MOL_PROPERTY
Probability
SciTegic.value.DoubleValue
0.01

@<SCITEGIC>MOL_PROPERTY
Sum Probability
SciTegic.value.DoubleValue
99.20

@<SCITEGIC>MOL_PROPERTY
Delta G
SciTegic.value.DoubleValue
3.553

@<SCITEGIC>MOL_PROPERTY
G
SciTegic.value.DoubleValue
61.701

@<SCITEGIC>MOL_PROPERTY
E
SciTegic.value.DoubleValue
24.245

@<SCITEGIC>MOL_PROPERTY
-TS
SciTegic.value.DoubleValue
37.456

@<SCITEGIC>MOL_PROPERTY
U+W
SciTegic.value.DoubleValue
0.101

@<SCITEGIC>MOL_PROPERTY
U
SciTegic.value.DoubleValue
52.272

@<SCITEGIC>MOL_PROPERTY
W
SciTegic.value.DoubleValue
-52.172

@<SCITEGIC>MOL_PROPERTY
W(PB)
SciTegic.value.DoubleValue
-54.659

@<SCITEGIC>MOL_PROPERTY
W(SA)
SciTegic.value.DoubleValue
2.487

@<SCITEGIC>MOL_PROPERTY
Valence
SciTegic.value.DoubleValue
4.707

@<SCITEGIC>MOL_PROPERTY
Coulomb
SciTegic.value.DoubleValue
46.779

@<SCITEGIC>MOL_PROPERTY
VdW
SciTegic.value.DoubleValue
0.786

@<SCITEGIC>MOL_PROPERTY
VdW6
SciTegic.value.DoubleValue
-9.146

@<SCITEGIC>MOL_PROPERTY
VdW12
SciTegic.value.DoubleValue
9.932

@<SCITEGIC>MOL_PROPERTY
Bond
SciTegic.value.DoubleValue
0.241

@<SCITEGIC>MOL_PROPERTY
Angle
SciTegic.value.DoubleValue
1.214

@<SCITEGIC>MOL_PROPERTY
Pdih
SciTegic.value.DoubleValue
3.253

@<SCITEGIC>MOL_PROPERTY
Idih
SciTegic.value.DoubleValue
0.000

@<SCITEGIC>MOL_PROPERTY
Tether
SciTegic.value.DoubleValue
0.000

@<TRIPOS>MOLECULE
guest-3_vm2.mol2 : vm2 ligand conformer 227
          29          28           1
SMALL
USER_CHARGES
 
@<TRIPOS>ATOM
       1    C1      19.538000   17.439742   20.659923 C.3        1 MOL1        -0.2427
       2    H1      19.303528   16.940017   21.607966 H          1 MOL1         0.0958
       3    H2      18.593747   17.721439   20.176125 H          1 MOL1         0.0958
       4    H3      20.039674   16.706135   20.015670 H          1 MOL1         0.0958
       5    C2      20.440856   18.675048   20.877520 C.3        1 MOL1        -0.1412
       6    H4      20.747556   19.066754   19.897598 H          1 MOL1         0.0947
       7    H5      21.364378   18.371796   21.390216 H          1 MOL1         0.0947
       8    C3      19.749831   19.809666   21.671612 C.3        1 MOL1        -0.1437
       9    H6      20.419168   20.680869   21.689659 H          1 MOL1         0.0947
      10    H7      18.841928   20.127837   21.140867 H          1 MOL1         0.0947
      11    C4      19.394385   19.415527   23.125094 C.3        1 MOL1        -0.1437
      12    H8      20.299549   19.043571   23.621567 H          1 MOL1         0.0947
      13    H9      18.661132   18.598546   23.121574 H          1 MOL1         0.0947
      14    C5      18.820668   20.612659   23.918398 C.3        1 MOL1        -0.1437
      15    H10     19.597218   21.381926   24.030011 H          1 MOL1         0.0947
      16    H11     18.014831   21.075465   23.332025 H          1 MOL1         0.0947
      17    C6      18.252524   20.247501   25.314351 C.3        1 MOL1        -0.1437
      18    H12     17.400468   19.561814   25.207557 H          1 MOL1         0.0947
      19    H13     17.841274   21.166212   25.755110 H          1 MOL1         0.0947
      20    C7      19.286419   19.657709   26.306333 C.3        1 MOL1        -0.1477
      21    H14     20.260476   20.146467   26.171392 H          1 MOL1         0.0947
      22    H15     18.961430   19.890594   27.329145 H          1 MOL1         0.0947
      23    C8      19.432756   18.128078   26.188094 C.3        1 MOL1         0.0145
      24    H16     19.761672   17.854798   25.183854 H          1 MOL1         0.0921
      25    H17     18.465347   17.652834   26.371412 H          1 MOL1         0.0921
      26    N1      20.428561   17.552068   27.173675 N.4        1 MOL1        -0.5969
      27    H18     21.368145   17.939425   27.037646 H          1 MOL1         0.3603
      28    H19     20.508689   16.533254   27.083145 H          1 MOL1         0.3603
      29    H20     20.160006   17.745350   28.144230 H          1 MOL1         0.3603
@<TRIPOS>BOND
    1     1     2    1
    2     1     3    1
    3     1     4    1
    4     1     5    1
    5     5     6    1
    6     5     7    1
    7     5     8    1
    8     8     9    1
    9     8    10    1
   10     8    11    1
   11    11    12    1
   12    11    13    1
   13    11    14    1
   14    14    15    1
   15    14    16    1
   16    14    17    1
   17    17    18    1
   18    17    19    1
   19    17    20    1
   20    20    21    1
   21    20    22    1
   22    20    23    1
   23    23    24    1
   24    23    25    1
   25    23    26    1
   26    26    27    1
   27    26    28    1
   28    26    29    1
@<TRIPOS>SUBSTRUCTURE
       1 MOL1            1 RESIDUE      1      MOL     
@<SCITEGIC>MOL_PROPERTY
VM2 Rank
SciTegic.value.IntegerValue
227

@<SCITEGIC>MOL_PROPERTY
Conf_Id
SciTegic.value.IntegerValue
888

@<SCITEGIC>MOL_PROPERTY
Probability
SciTegic.value.DoubleValue
0.01

@<SCITEGIC>MOL_PROPERTY
Sum Probability
SciTegic.value.DoubleValue
99.21

@<SCITEGIC>MOL_PROPERTY
Delta G
SciTegic.value.DoubleValue
3.558

@<SCITEGIC>MOL_PROPERTY
G
SciTegic.value.DoubleValue
61.706

@<SCITEGIC>MOL_PROPERTY
E
SciTegic.value.DoubleValue
24.061

@<SCITEGIC>MOL_PROPERTY
-TS
SciTegic.value.DoubleValue
37.645

@<SCITEGIC>MOL_PROPERTY
U+W
SciTegic.value.DoubleValue
-0.083

@<SCITEGIC>MOL_PROPERTY
U
SciTegic.value.DoubleValue
52.128

@<SCITEGIC>MOL_PROPERTY
W
SciTegic.value.DoubleValue
-52.212

@<SCITEGIC>MOL_PROPERTY
W(PB)
SciTegic.value.DoubleValue
-54.720

@<SCITEGIC>MOL_PROPERTY
W(SA)
SciTegic.value.DoubleValue
2.508

@<SCITEGIC>MOL_PROPERTY
Valence
SciTegic.value.DoubleValue
5.466

@<SCITEGIC>MOL_PROPERTY
Coulomb
SciTegic.value.DoubleValue
45.873

@<SCITEGIC>MOL_PROPERTY
VdW
SciTegic.value.DoubleValue
0.790

@<SCITEGIC>MOL_PROPERTY
VdW6
SciTegic.value.DoubleValue
-9.337

@<SCITEGIC>MOL_PROPERTY
VdW12
SciTegic.value.DoubleValue
10.127

@<SCITEGIC>MOL_PROPERTY
Bond
SciTegic.value.DoubleValue
0.248

@<SCITEGIC>MOL_PROPERTY
Angle
SciTegic.value.DoubleValue
1.378

@<SCITEGIC>MOL_PROPERTY
Pdih
SciTegic.value.DoubleValue
3.839

@<SCITEGIC>MOL_PROPERTY
Idih
SciTegic.value.DoubleValue
0.000

@<SCITEGIC>MOL_PROPERTY
Tether
SciTegic.value.DoubleValue
0.000

@<TRIPOS>MOLECULE
guest-3_vm2.mol2 : vm2 ligand conformer 228
          29          28           1
SMALL
USER_CHARGES
 
@<TRIPOS>ATOM
       1    C1      19.963459   18.544554   19.360721 C.3        1 MOL1        -0.2427
       2    H1      21.051099   18.415824   19.436318 H          1 MOL1         0.0958
       3    H2      19.494157   17.557583   19.465044 H          1 MOL1         0.0958
       4    H3      19.737635   18.920464   18.354372 H          1 MOL1         0.0958
       5    C2      19.444695   19.521999   20.436571 C.3        1 MOL1        -0.1412
       6    H4      18.360622   19.656074   20.315274 H          1 MOL1         0.0947
       7    H5      19.905241   20.508273   20.284835 H          1 MOL1         0.0947
       8    C3      19.750650   19.016619   21.863894 C.3        1 MOL1        -0.1437
       9    H6      19.294121   18.027561   21.997131 H          1 MOL1         0.0947
      10    H7      20.835345   18.886334   21.980603 H          1 MOL1         0.0947
      11    C4      19.227521   19.995206   22.943149 C.3        1 MOL1        -0.1437
      12    H8      18.135187   20.085577   22.866041 H          1 MOL1         0.0947
      13    H9      19.634150   20.995667   22.740391 H          1 MOL1         0.0947
      14    C5      19.615661   19.595378   24.388146 C.3        1 MOL1        -0.1437
      15    H10     20.705553   19.473714   24.455412 H          1 MOL1         0.0947
      16    H11     19.347336   20.431234   25.045337 H          1 MOL1         0.0947
      17    C6      18.907933   18.310112   24.886123 C.3        1 MOL1        -0.1437
      18    H12     19.095597   17.490929   24.180876 H          1 MOL1         0.0947
      19    H13     17.820804   18.469327   24.889003 H          1 MOL1         0.0947
      20    C7      19.361859   17.832627   26.289402 C.3        1 MOL1        -0.1477
      21    H14     18.855167   16.881479   26.500227 H          1 MOL1         0.0947
      22    H15     20.436564   17.607041   26.287245 H          1 MOL1         0.0947
      23    C8      19.027972   18.806127   27.438677 C.3        1 MOL1         0.0145
      24    H16     18.988433   18.247616   28.377814 H          1 MOL1         0.0921
      25    H17     18.046324   19.257100   27.270538 H          1 MOL1         0.0921
      26    N1      20.044251   19.915378   27.628317 N.4        1 MOL1        -0.5969
      27    H18     20.974630   19.543561   27.846241 H          1 MOL1         0.3603
      28    H19     19.784518   20.541361   28.398605 H          1 MOL1         0.3603
      29    H20     20.138529   20.492389   26.787737 H          1 MOL1         0.3603
@<TRIPOS>BOND
    1     1     2    1
    2     1     3    1
    3     1     4    1
    4     1     5    1
    5     5     6    1
    6     5     7    1
    7     5     8    1
    8     8     9    1
    9     8    10    1
   10     8    11    1
   11    11    12    1
   12    11    13    1
   13    11    14    1
   14    14    15    1
   15    14    16    1
   16    14    17    1
   17    17    18    1
   18    17    19    1
   19    17    20    1
   20    20    21    1
   21    20    22    1
   22    20    23    1
   23    23    24    1
   24    23    25    1
   25    23    26    1
   26    26    27    1
   27    26    28    1
   28    26    29    1
@<TRIPOS>SUBSTRUCTURE
       1 MOL1            1 RESIDUE      1      MOL     
@<SCITEGIC>MOL_PROPERTY
VM2 Rank
SciTegic.value.IntegerValue
228

@<SCITEGIC>MOL_PROPERTY
Conf_Id
SciTegic.value.IntegerValue
2282

@<SCITEGIC>MOL_PROPERTY
Probability
SciTegic.value.DoubleValue
0.01

@<SCITEGIC>MOL_PROPERTY
Sum Probability
SciTegic.value.DoubleValue
99.23

@<SCITEGIC>MOL_PROPERTY
Delta G
SciTegic.value.DoubleValue
3.588

@<SCITEGIC>MOL_PROPERTY
G
SciTegic.value.DoubleValue
61.736

@<SCITEGIC>MOL_PROPERTY
E
SciTegic.value.DoubleValue
24.392

@<SCITEGIC>MOL_PROPERTY
-TS
SciTegic.value.DoubleValue
37.344

@<SCITEGIC>MOL_PROPERTY
U+W
SciTegic.value.DoubleValue
0.247

@<SCITEGIC>MOL_PROPERTY
U
SciTegic.value.DoubleValue
51.996

@<SCITEGIC>MOL_PROPERTY
W
SciTegic.value.DoubleValue
-51.749

@<SCITEGIC>MOL_PROPERTY
W(PB)
SciTegic.value.DoubleValue
-54.267

@<SCITEGIC>MOL_PROPERTY
W(SA)
SciTegic.value.DoubleValue
2.518

@<SCITEGIC>MOL_PROPERTY
Valence
SciTegic.value.DoubleValue
4.867

@<SCITEGIC>MOL_PROPERTY
Coulomb
SciTegic.value.DoubleValue
46.253

@<SCITEGIC>MOL_PROPERTY
VdW
SciTegic.value.DoubleValue
0.877

@<SCITEGIC>MOL_PROPERTY
VdW6
SciTegic.value.DoubleValue
-9.001

@<SCITEGIC>MOL_PROPERTY
VdW12
SciTegic.value.DoubleValue
9.878

@<SCITEGIC>MOL_PROPERTY
Bond
SciTegic.value.DoubleValue
0.252

@<SCITEGIC>MOL_PROPERTY
Angle
SciTegic.value.DoubleValue
1.290

@<SCITEGIC>MOL_PROPERTY
Pdih
SciTegic.value.DoubleValue
3.325

@<SCITEGIC>MOL_PROPERTY
Idih
SciTegic.value.DoubleValue
0.000

@<SCITEGIC>MOL_PROPERTY
Tether
SciTegic.value.DoubleValue
0.000

@<TRIPOS>MOLECULE
guest-3_vm2.mol2 : vm2 ligand conformer 229
          29          28           1
SMALL
USER_CHARGES
 
@<TRIPOS>ATOM
       1    C1      20.481048   20.158869   20.671443 C.3        1 MOL1        -0.2427
       2    H1      20.195863   20.752719   21.548542 H          1 MOL1         0.0958
       3    H2      21.392025   19.595198   20.910716 H          1 MOL1         0.0958
       4    H3      20.723187   20.862269   19.864315 H          1 MOL1         0.0958
       5    C2      19.338702   19.214212   20.238974 C.3        1 MOL1        -0.1412
       6    H4      19.598075   18.769557   19.268034 H          1 MOL1         0.0947
       7    H5      18.424945   19.801007   20.070434 H          1 MOL1         0.0947
       8    C3      19.043112   18.068791   21.240584 C.3        1 MOL1        -0.1437
       9    H6      18.254612   17.441899   20.801693 H          1 MOL1         0.0947
      10    H7      19.921145   17.415463   21.336946 H          1 MOL1         0.0947
      11    C4      18.564340   18.537623   22.639303 C.3        1 MOL1        -0.1437
      12    H8      17.822823   17.817417   23.011852 H          1 MOL1         0.0947
      13    H9      18.038527   19.498564   22.554447 H          1 MOL1         0.0947
      14    C5      19.706160   18.635908   23.680357 C.3        1 MOL1        -0.1437
      15    H10     20.180808   17.651446   23.793388 H          1 MOL1         0.0947
      16    H11     20.486906   19.320266   23.328094 H          1 MOL1         0.0947
      17    C6      19.188398   19.116219   25.054785 C.3        1 MOL1        -0.1437
      18    H12     18.410951   18.426630   25.409778 H          1 MOL1         0.0947
      19    H13     18.714820   20.101625   24.943823 H          1 MOL1         0.0947
      20    C7      20.327403   19.207086   26.097596 C.3        1 MOL1        -0.1477
      21    H14     20.788068   18.220268   26.238881 H          1 MOL1         0.0947
      22    H15     21.116319   19.869842   25.717679 H          1 MOL1         0.0947
      23    C8      19.847382   19.750166   27.457209 C.3        1 MOL1         0.0145
      24    H16     19.382387   20.729984   27.318911 H          1 MOL1         0.0921
      25    H17     20.705967   19.870805   28.123407 H          1 MOL1         0.0921
      26    N1      18.847454   18.849127   28.154750 N.4        1 MOL1        -0.5969
      27    H18     17.997767   18.721854   27.596106 H          1 MOL1         0.3603
      28    H19     18.557015   19.232366   29.061045 H          1 MOL1         0.3603
      29    H20     19.235455   17.917071   28.333710 H          1 MOL1         0.3603
@<TRIPOS>BOND
    1     1     2    1
    2     1     3    1
    3     1     4    1
    4     1     5    1
    5     5     6    1
    6     5     7    1
    7     5     8    1
    8     8     9    1
    9     8    10    1
   10     8    11    1
   11    11    12    1
   12    11    13    1
   13    11    14    1
   14    14    15    1
   15    14    16    1
   16    14    17    1
   17    17    18    1
   18    17    19    1
   19    17    20    1
   20    20    21    1
   21    20    22    1
   22    20    23    1
   23    23    24    1
   24    23    25    1
   25    23    26    1
   26    26    27    1
   27    26    28    1
   28    26    29    1
@<TRIPOS>SUBSTRUCTURE
       1 MOL1            1 RESIDUE      1      MOL     
@<SCITEGIC>MOL_PROPERTY
VM2 Rank
SciTegic.value.IntegerValue
229

@<SCITEGIC>MOL_PROPERTY
Conf_Id
SciTegic.value.IntegerValue
652

@<SCITEGIC>MOL_PROPERTY
Probability
SciTegic.value.DoubleValue
0.01

@<SCITEGIC>MOL_PROPERTY
Sum Probability
SciTegic.value.DoubleValue
99.24

@<SCITEGIC>MOL_PROPERTY
Delta G
SciTegic.value.DoubleValue
3.594

@<SCITEGIC>MOL_PROPERTY
G
SciTegic.value.DoubleValue
61.742

@<SCITEGIC>MOL_PROPERTY
E
SciTegic.value.DoubleValue
24.099

@<SCITEGIC>MOL_PROPERTY
-TS
SciTegic.value.DoubleValue
37.643

@<SCITEGIC>MOL_PROPERTY
U+W
SciTegic.value.DoubleValue
-0.046

@<SCITEGIC>MOL_PROPERTY
U
SciTegic.value.DoubleValue
51.589

@<SCITEGIC>MOL_PROPERTY
W
SciTegic.value.DoubleValue
-51.634

@<SCITEGIC>MOL_PROPERTY
W(PB)
SciTegic.value.DoubleValue
-54.120

@<SCITEGIC>MOL_PROPERTY
W(SA)
SciTegic.value.DoubleValue
2.486

@<SCITEGIC>MOL_PROPERTY
Valence
SciTegic.value.DoubleValue
5.652

@<SCITEGIC>MOL_PROPERTY
Coulomb
SciTegic.value.DoubleValue
44.997

@<SCITEGIC>MOL_PROPERTY
VdW
SciTegic.value.DoubleValue
0.940

@<SCITEGIC>MOL_PROPERTY
VdW6
SciTegic.value.DoubleValue
-9.012

@<SCITEGIC>MOL_PROPERTY
VdW12
SciTegic.value.DoubleValue
9.952

@<SCITEGIC>MOL_PROPERTY
Bond
SciTegic.value.DoubleValue
0.249

@<SCITEGIC>MOL_PROPERTY
Angle
SciTegic.value.DoubleValue
1.190

@<SCITEGIC>MOL_PROPERTY
Pdih
SciTegic.value.DoubleValue
4.213

@<SCITEGIC>MOL_PROPERTY
Idih
SciTegic.value.DoubleValue
0.000

@<SCITEGIC>MOL_PROPERTY
Tether
SciTegic.value.DoubleValue
0.000

@<TRIPOS>MOLECULE
guest-3_vm2.mol2 : vm2 ligand conformer 230
          29          28           1
SMALL
USER_CHARGES
 
@<TRIPOS>ATOM
       1    C1      21.145612   19.222250   20.143079 C.3        1 MOL1        -0.2427
       2    H1      20.913730   18.264073   19.659994 H          1 MOL1         0.0958
       3    H2      21.441586   19.931836   19.359546 H          1 MOL1         0.0958
       4    H3      22.008469   19.071672   20.804917 H          1 MOL1         0.0958
       5    C2      19.929478   19.755294   20.929683 C.3        1 MOL1        -0.1412
       6    H4      19.094377   19.928621   20.236544 H          1 MOL1         0.0947
       7    H5      20.180757   20.728870   21.373376 H          1 MOL1         0.0947
       8    C3      19.491652   18.774392   22.039552 C.3        1 MOL1        -0.1437
       9    H6      19.242237   17.803721   21.589208 H          1 MOL1         0.0947
      10    H7      20.335219   18.596576   22.716645 H          1 MOL1         0.0947
      11    C4      18.267273   19.305350   22.824679 C.3        1 MOL1        -0.1437
      12    H8      17.437796   19.435496   22.115833 H          1 MOL1         0.0947
      13    H9      18.476376   20.303704   23.232913 H          1 MOL1         0.0947
      14    C5      17.799194   18.354171   23.956794 C.3        1 MOL1        -0.1437
      15    H10     16.702933   18.403868   24.013064 H          1 MOL1         0.0947
      16    H11     18.034667   17.311769   23.701608 H          1 MOL1         0.0947
      17    C6      18.353475   18.698329   25.363319 C.3        1 MOL1        -0.1437
      18    H12     17.899007   18.010872   26.090243 H          1 MOL1         0.0947
      19    H13     18.019897   19.706359   25.643928 H          1 MOL1         0.0947
      20    C7      19.893864   18.605566   25.481386 C.3        1 MOL1        -0.1477
      21    H14     20.232966   17.638903   25.086187 H          1 MOL1         0.0947
      22    H15     20.368076   19.385945   24.873075 H          1 MOL1         0.0947
      23    C8      20.384186   18.737724   26.935901 C.3        1 MOL1         0.0145
      24    H16     21.467585   18.593892   26.968733 H          1 MOL1         0.0921
      25    H17     19.918347   17.964731   27.553029 H          1 MOL1         0.0921
      26    N1      20.079267   20.084924   27.560607 N.4        1 MOL1        -0.5969
      27    H18     20.512047   20.853438   27.037882 H          1 MOL1         0.3603
      28    H19     20.425621   20.144807   28.524453 H          1 MOL1         0.3603
      29    H20     19.071475   20.268455   27.591393 H          1 MOL1         0.3603
@<TRIPOS>BOND
    1     1     2    1
    2     1     3    1
    3     1     4    1
    4     1     5    1
    5     5     6    1
    6     5     7    1
    7     5     8    1
    8     8     9    1
    9     8    10    1
   10     8    11    1
   11    11    12    1
   12    11    13    1
   13    11    14    1
   14    14    15    1
   15    14    16    1
   16    14    17    1
   17    17    18    1
   18    17    19    1
   19    17    20    1
   20    20    21    1
   21    20    22    1
   22    20    23    1
   23    23    24    1
   24    23    25    1
   25    23    26    1
   26    26    27    1
   27    26    28    1
   28    26    29    1
@<TRIPOS>SUBSTRUCTURE
       1 MOL1            1 RESIDUE      1      MOL     
@<SCITEGIC>MOL_PROPERTY
VM2 Rank
SciTegic.value.IntegerValue
230

@<SCITEGIC>MOL_PROPERTY
Conf_Id
SciTegic.value.IntegerValue
661

@<SCITEGIC>MOL_PROPERTY
Probability
SciTegic.value.DoubleValue
0.01

@<SCITEGIC>MOL_PROPERTY
Sum Probability
SciTegic.value.DoubleValue
99.25

@<SCITEGIC>MOL_PROPERTY
Delta G
SciTegic.value.DoubleValue
3.629

@<SCITEGIC>MOL_PROPERTY
G
SciTegic.value.DoubleValue
61.777

@<SCITEGIC>MOL_PROPERTY
E
SciTegic.value.DoubleValue
24.104

@<SCITEGIC>MOL_PROPERTY
-TS
SciTegic.value.DoubleValue
37.673

@<SCITEGIC>MOL_PROPERTY
U+W
SciTegic.value.DoubleValue
-0.041

@<SCITEGIC>MOL_PROPERTY
U
SciTegic.value.DoubleValue
52.009

@<SCITEGIC>MOL_PROPERTY
W
SciTegic.value.DoubleValue
-52.050

@<SCITEGIC>MOL_PROPERTY
W(PB)
SciTegic.value.DoubleValue
-54.512

@<SCITEGIC>MOL_PROPERTY
W(SA)
SciTegic.value.DoubleValue
2.462

@<SCITEGIC>MOL_PROPERTY
Valence
SciTegic.value.DoubleValue
5.695

@<SCITEGIC>MOL_PROPERTY
Coulomb
SciTegic.value.DoubleValue
45.464

@<SCITEGIC>MOL_PROPERTY
VdW
SciTegic.value.DoubleValue
0.850

@<SCITEGIC>MOL_PROPERTY
VdW6
SciTegic.value.DoubleValue
-9.160

@<SCITEGIC>MOL_PROPERTY
VdW12
SciTegic.value.DoubleValue
10.010

@<SCITEGIC>MOL_PROPERTY
Bond
SciTegic.value.DoubleValue
0.252

@<SCITEGIC>MOL_PROPERTY
Angle
SciTegic.value.DoubleValue
1.178

@<SCITEGIC>MOL_PROPERTY
Pdih
SciTegic.value.DoubleValue
4.265

@<SCITEGIC>MOL_PROPERTY
Idih
SciTegic.value.DoubleValue
0.000

@<SCITEGIC>MOL_PROPERTY
Tether
SciTegic.value.DoubleValue
0.000

@<TRIPOS>MOLECULE
guest-3_vm2.mol2 : vm2 ligand conformer 231
          29          28           1
SMALL
USER_CHARGES
 
@<TRIPOS>ATOM
       1    C1      20.924344   19.584187   20.510701 C.3        1 MOL1        -0.2427
       2    H1      21.260360   20.463753   19.946481 H          1 MOL1         0.0958
       3    H2      21.302449   19.682157   21.534196 H          1 MOL1         0.0958
       4    H3      21.394477   18.700349   20.060318 H          1 MOL1         0.0958
       5    C2      19.382608   19.470792   20.467481 C.3        1 MOL1        -0.1412
       6    H4      19.078156   19.400885   19.413781 H          1 MOL1         0.0947
       7    H5      18.920796   20.389503   20.855115 H          1 MOL1         0.0947
       8    C3      18.835081   18.232338   21.222638 C.3        1 MOL1        -0.1437
       9    H6      17.959507   17.857708   20.674574 H          1 MOL1         0.0947
      10    H7      19.570439   17.416389   21.197991 H          1 MOL1         0.0947
      11    C4      18.389063   18.503977   22.682602 C.3        1 MOL1        -0.1437
      12    H8      17.957442   17.578099   23.087168 H          1 MOL1         0.0947
      13    H9      17.578259   19.245456   22.684243 H          1 MOL1         0.0947
      14    C5      19.523613   18.981225   23.618318 C.3        1 MOL1        -0.1437
      15    H10     20.376364   18.292416   23.544272 H          1 MOL1         0.0947
      16    H11     19.874657   19.970013   23.296047 H          1 MOL1         0.0947
      17    C6      19.056652   19.069381   25.088771 C.3        1 MOL1        -0.1437
      18    H12     18.703220   18.082594   25.416330 H          1 MOL1         0.0947
      19    H13     18.201197   19.755382   25.161207 H          1 MOL1         0.0947
      20    C7      20.189597   19.558080   26.021864 C.3        1 MOL1        -0.1477
      21    H14     21.038165   18.862259   25.979954 H          1 MOL1         0.0947
      22    H15     20.561572   20.527874   25.665352 H          1 MOL1         0.0947
      23    C8      19.728753   19.720102   27.483125 C.3        1 MOL1         0.0145
      24    H16     18.879761   20.407598   27.527351 H          1 MOL1         0.0921
      25    H17     20.543470   20.145311   28.075556 H          1 MOL1         0.0921
      26    N1      19.314287   18.417918   28.139500 N.4        1 MOL1        -0.5969
      27    H18     18.525846   17.981577   27.651427 H          1 MOL1         0.3603
      28    H19     19.024717   18.557869   29.113750 H          1 MOL1         0.3603
      29    H20     20.080084   17.736187   28.149207 H          1 MOL1         0.3603
@<TRIPOS>BOND
    1     1     2    1
    2     1     3    1
    3     1     4    1
    4     1     5    1
    5     5     6    1
    6     5     7    1
    7     5     8    1
    8     8     9    1
    9     8    10    1
   10     8    11    1
   11    11    12    1
   12    11    13    1
   13    11    14    1
   14    14    15    1
   15    14    16    1
   16    14    17    1
   17    17    18    1
   18    17    19    1
   19    17    20    1
   20    20    21    1
   21    20    22    1
   22    20    23    1
   23    23    24    1
   24    23    25    1
   25    23    26    1
   26    26    27    1
   27    26    28    1
   28    26    29    1
@<TRIPOS>SUBSTRUCTURE
       1 MOL1            1 RESIDUE      1      MOL     
@<SCITEGIC>MOL_PROPERTY
VM2 Rank
SciTegic.value.IntegerValue
231

@<SCITEGIC>MOL_PROPERTY
Conf_Id
SciTegic.value.IntegerValue
1988

@<SCITEGIC>MOL_PROPERTY
Probability
SciTegic.value.DoubleValue
0.01

@<SCITEGIC>MOL_PROPERTY
Sum Probability
SciTegic.value.DoubleValue
99.26

@<SCITEGIC>MOL_PROPERTY
Delta G
SciTegic.value.DoubleValue
3.641

@<SCITEGIC>MOL_PROPERTY
G
SciTegic.value.DoubleValue
61.789

@<SCITEGIC>MOL_PROPERTY
E
SciTegic.value.DoubleValue
24.155

@<SCITEGIC>MOL_PROPERTY
-TS
SciTegic.value.DoubleValue
37.634

@<SCITEGIC>MOL_PROPERTY
U+W
SciTegic.value.DoubleValue
0.011

@<SCITEGIC>MOL_PROPERTY
U
SciTegic.value.DoubleValue
51.624

@<SCITEGIC>MOL_PROPERTY
W
SciTegic.value.DoubleValue
-51.613

@<SCITEGIC>MOL_PROPERTY
W(PB)
SciTegic.value.DoubleValue
-54.099

@<SCITEGIC>MOL_PROPERTY
W(SA)
SciTegic.value.DoubleValue
2.486

@<SCITEGIC>MOL_PROPERTY
Valence
SciTegic.value.DoubleValue
5.677

@<SCITEGIC>MOL_PROPERTY
Coulomb
SciTegic.value.DoubleValue
44.987

@<SCITEGIC>MOL_PROPERTY
VdW
SciTegic.value.DoubleValue
0.961

@<SCITEGIC>MOL_PROPERTY
VdW6
SciTegic.value.DoubleValue
-9.002

@<SCITEGIC>MOL_PROPERTY
VdW12
SciTegic.value.DoubleValue
9.962

@<SCITEGIC>MOL_PROPERTY
Bond
SciTegic.value.DoubleValue
0.249

@<SCITEGIC>MOL_PROPERTY
Angle
SciTegic.value.DoubleValue
1.231

@<SCITEGIC>MOL_PROPERTY
Pdih
SciTegic.value.DoubleValue
4.197

@<SCITEGIC>MOL_PROPERTY
Idih
SciTegic.value.DoubleValue
0.000

@<SCITEGIC>MOL_PROPERTY
Tether
SciTegic.value.DoubleValue
0.000

@<TRIPOS>MOLECULE
guest-3_vm2.mol2 : vm2 ligand conformer 232
          29          28           1
SMALL
USER_CHARGES
 
@<TRIPOS>ATOM
       1    C1      19.126996   17.659717   20.175318 C.3        1 MOL1        -0.2427
       2    H1      20.147418   17.537962   19.789097 H          1 MOL1         0.0958
       3    H2      18.689719   16.659835   20.293799 H          1 MOL1         0.0958
       4    H3      18.537742   18.197716   19.421291 H          1 MOL1         0.0958
       5    C2      19.130297   18.415761   21.520796 C.3        1 MOL1        -0.1412
       6    H4      19.696375   17.827706   22.255111 H          1 MOL1         0.0947
       7    H5      18.100385   18.499082   21.894725 H          1 MOL1         0.0947
       8    C3      19.752861   19.823635   21.382031 C.3        1 MOL1        -0.1437
       9    H6      20.808598   19.728386   21.092982 H          1 MOL1         0.0947
      10    H7      19.257081   20.352852   20.556558 H          1 MOL1         0.0947
      11    C4      19.644810   20.701431   22.655656 C.3        1 MOL1        -0.1437
      12    H8      18.589508   20.893816   22.893194 H          1 MOL1         0.0947
      13    H9      20.077430   21.682952   22.417269 H          1 MOL1         0.0947
      14    C5      20.383151   20.137607   23.897605 C.3        1 MOL1        -0.1437
      15    H10     21.234229   19.518979   23.581163 H          1 MOL1         0.0947
      16    H11     20.812376   20.979476   24.458407 H          1 MOL1         0.0947
      17    C6      19.460660   19.342720   24.853979 C.3        1 MOL1        -0.1437
      18    H12     18.981950   18.511573   24.322693 H          1 MOL1         0.0947
      19    H13     18.652521   20.000424   25.200604 H          1 MOL1         0.0947
      20    C7      20.240262   18.787697   26.069269 C.3        1 MOL1        -0.1477
      21    H14     21.069465   18.161641   25.713705 H          1 MOL1         0.0947
      22    H15     20.691247   19.612816   26.636516 H          1 MOL1         0.0947
      23    C8      19.357650   17.941091   27.006387 C.3        1 MOL1         0.0145
      24    H16     19.977882   17.508160   27.795959 H          1 MOL1         0.0921
      25    H17     18.901814   17.122440   26.442999 H          1 MOL1         0.0921
      26    N1      18.247312   18.728340   27.673959 N.4        1 MOL1        -0.5969
      27    H18     17.604550   19.134620   26.986951 H          1 MOL1         0.3603
      28    H19     18.615470   19.500680   28.238982 H          1 MOL1         0.3603
      29    H20     17.686321   18.139759   28.299616 H          1 MOL1         0.3603
@<TRIPOS>BOND
    1     1     2    1
    2     1     3    1
    3     1     4    1
    4     1     5    1
    5     5     6    1
    6     5     7    1
    7     5     8    1
    8     8     9    1
    9     8    10    1
   10     8    11    1
   11    11    12    1
   12    11    13    1
   13    11    14    1
   14    14    15    1
   15    14    16    1
   16    14    17    1
   17    17    18    1
   18    17    19    1
   19    17    20    1
   20    20    21    1
   21    20    22    1
   22    20    23    1
   23    23    24    1
   24    23    25    1
   25    23    26    1
   26    26    27    1
   27    26    28    1
   28    26    29    1
@<TRIPOS>SUBSTRUCTURE
       1 MOL1            1 RESIDUE      1      MOL     
@<SCITEGIC>MOL_PROPERTY
VM2 Rank
SciTegic.value.IntegerValue
232

@<SCITEGIC>MOL_PROPERTY
Conf_Id
SciTegic.value.IntegerValue
279

@<SCITEGIC>MOL_PROPERTY
Probability
SciTegic.value.DoubleValue
0.01

@<SCITEGIC>MOL_PROPERTY
Sum Probability
SciTegic.value.DoubleValue
99.27

@<SCITEGIC>MOL_PROPERTY
Delta G
SciTegic.value.DoubleValue
3.663

@<SCITEGIC>MOL_PROPERTY
G
SciTegic.value.DoubleValue
61.811

@<SCITEGIC>MOL_PROPERTY
E
SciTegic.value.DoubleValue
24.142

@<SCITEGIC>MOL_PROPERTY
-TS
SciTegic.value.DoubleValue
37.670

@<SCITEGIC>MOL_PROPERTY
U+W
SciTegic.value.DoubleValue
-0.003

@<SCITEGIC>MOL_PROPERTY
U
SciTegic.value.DoubleValue
52.020

@<SCITEGIC>MOL_PROPERTY
W
SciTegic.value.DoubleValue
-52.023

@<SCITEGIC>MOL_PROPERTY
W(PB)
SciTegic.value.DoubleValue
-54.510

@<SCITEGIC>MOL_PROPERTY
W(SA)
SciTegic.value.DoubleValue
2.487

@<SCITEGIC>MOL_PROPERTY
Valence
SciTegic.value.DoubleValue
5.716

@<SCITEGIC>MOL_PROPERTY
Coulomb
SciTegic.value.DoubleValue
45.417

@<SCITEGIC>MOL_PROPERTY
VdW
SciTegic.value.DoubleValue
0.888

@<SCITEGIC>MOL_PROPERTY
VdW6
SciTegic.value.DoubleValue
-9.127

@<SCITEGIC>MOL_PROPERTY
VdW12
SciTegic.value.DoubleValue
10.015

@<SCITEGIC>MOL_PROPERTY
Bond
SciTegic.value.DoubleValue
0.252

@<SCITEGIC>MOL_PROPERTY
Angle
SciTegic.value.DoubleValue
1.208

@<SCITEGIC>MOL_PROPERTY
Pdih
SciTegic.value.DoubleValue
4.255

@<SCITEGIC>MOL_PROPERTY
Idih
SciTegic.value.DoubleValue
0.000

@<SCITEGIC>MOL_PROPERTY
Tether
SciTegic.value.DoubleValue
0.000

@<TRIPOS>MOLECULE
guest-3_vm2.mol2 : vm2 ligand conformer 233
          29          28           1
SMALL
USER_CHARGES
 
@<TRIPOS>ATOM
       1    C1      20.913299   18.493502   20.545763 C.3        1 MOL1        -0.2427
       2    H1      21.302953   17.583963   20.070586 H          1 MOL1         0.0958
       3    H2      21.297292   19.353914   19.982486 H          1 MOL1         0.0958
       4    H3      21.327382   18.542099   21.558813 H          1 MOL1         0.0958
       5    C2      19.366839   18.482041   20.548356 C.3        1 MOL1        -0.1412
       6    H4      18.992165   17.580782   21.053245 H          1 MOL1         0.0947
       7    H5      19.027568   18.407449   19.505669 H          1 MOL1         0.0947
       8    C3      18.742871   19.752738   21.180659 C.3        1 MOL1        -0.1437
       9    H6      19.408552   20.614902   21.036881 H          1 MOL1         0.0947
      10    H7      17.824171   19.993331   20.627978 H          1 MOL1         0.0947
      11    C4      18.363137   19.616357   22.677789 C.3        1 MOL1        -0.1437
      12    H8      17.615551   18.819500   22.793199 H          1 MOL1         0.0947
      13    H9      17.869842   20.546299   22.992614 H          1 MOL1         0.0947
      14    C5      19.559488   19.338654   23.616997 C.3        1 MOL1        -0.1437
      15    H10     19.979633   18.349123   23.395311 H          1 MOL1         0.0947
      16    H11     20.351240   20.077768   23.432764 H          1 MOL1         0.0947
      17    C6      19.144443   19.384824   25.104819 C.3        1 MOL1        -0.1437
      18    H12     18.344730   18.652752   25.279637 H          1 MOL1         0.0947
      19    H13     18.728605   20.374498   25.339801 H          1 MOL1         0.0947
      20    C7      20.339525   19.093249   26.042787 C.3        1 MOL1        -0.1477
      21    H14     20.743213   18.092624   25.838396 H          1 MOL1         0.0947
      22    H15     21.148179   19.806218   25.833690 H          1 MOL1         0.0947
      23    C8      19.966339   19.202712   27.533643 C.3        1 MOL1         0.0145
      24    H16     19.558631   20.196163   27.739128 H          1 MOL1         0.0921
      25    H17     20.864212   19.069487   28.143245 H          1 MOL1         0.0921
      26    N1      18.948059   18.173923   27.984187 N.4        1 MOL1        -0.5969
      27    H18     18.064210   18.266740   27.473848 H          1 MOL1         0.3603
      28    H19     18.730050   18.265840   28.982497 H          1 MOL1         0.3603
      29    H20     19.284172   17.216424   27.837521 H          1 MOL1         0.3603
@<TRIPOS>BOND
    1     1     2    1
    2     1     3    1
    3     1     4    1
    4     1     5    1
    5     5     6    1
    6     5     7    1
    7     5     8    1
    8     8     9    1
    9     8    10    1
   10     8    11    1
   11    11    12    1
   12    11    13    1
   13    11    14    1
   14    14    15    1
   15    14    16    1
   16    14    17    1
   17    17    18    1
   18    17    19    1
   19    17    20    1
   20    20    21    1
   21    20    22    1
   22    20    23    1
   23    23    24    1
   24    23    25    1
   25    23    26    1
   26    26    27    1
   27    26    28    1
   28    26    29    1
@<TRIPOS>SUBSTRUCTURE
       1 MOL1            1 RESIDUE      1      MOL     
@<SCITEGIC>MOL_PROPERTY
VM2 Rank
SciTegic.value.IntegerValue
233

@<SCITEGIC>MOL_PROPERTY
Conf_Id
SciTegic.value.IntegerValue
2330

@<SCITEGIC>MOL_PROPERTY
Probability
SciTegic.value.DoubleValue
0.01

@<SCITEGIC>MOL_PROPERTY
Sum Probability
SciTegic.value.DoubleValue
99.29

@<SCITEGIC>MOL_PROPERTY
Delta G
SciTegic.value.DoubleValue
3.674

@<SCITEGIC>MOL_PROPERTY
G
SciTegic.value.DoubleValue
61.822

@<SCITEGIC>MOL_PROPERTY
E
SciTegic.value.DoubleValue
24.188

@<SCITEGIC>MOL_PROPERTY
-TS
SciTegic.value.DoubleValue
37.634

@<SCITEGIC>MOL_PROPERTY
U+W
SciTegic.value.DoubleValue
0.043

@<SCITEGIC>MOL_PROPERTY
U
SciTegic.value.DoubleValue
51.669

@<SCITEGIC>MOL_PROPERTY
W
SciTegic.value.DoubleValue
-51.626

@<SCITEGIC>MOL_PROPERTY
W(PB)
SciTegic.value.DoubleValue
-54.116

@<SCITEGIC>MOL_PROPERTY
W(SA)
SciTegic.value.DoubleValue
2.490

@<SCITEGIC>MOL_PROPERTY
Valence
SciTegic.value.DoubleValue
5.678

@<SCITEGIC>MOL_PROPERTY
Coulomb
SciTegic.value.DoubleValue
45.035

@<SCITEGIC>MOL_PROPERTY
VdW
SciTegic.value.DoubleValue
0.957

@<SCITEGIC>MOL_PROPERTY
VdW6
SciTegic.value.DoubleValue
-9.003

@<SCITEGIC>MOL_PROPERTY
VdW12
SciTegic.value.DoubleValue
9.960

@<SCITEGIC>MOL_PROPERTY
Bond
SciTegic.value.DoubleValue
0.249

@<SCITEGIC>MOL_PROPERTY
Angle
SciTegic.value.DoubleValue
1.232

@<SCITEGIC>MOL_PROPERTY
Pdih
SciTegic.value.DoubleValue
4.197

@<SCITEGIC>MOL_PROPERTY
Idih
SciTegic.value.DoubleValue
0.000

@<SCITEGIC>MOL_PROPERTY
Tether
SciTegic.value.DoubleValue
0.000

@<TRIPOS>MOLECULE
guest-3_vm2.mol2 : vm2 ligand conformer 234
          29          28           1
SMALL
USER_CHARGES
 
@<TRIPOS>ATOM
       1    C1      19.201362   18.337216   19.564573 C.3        1 MOL1        -0.2427
       2    H1      18.378680   17.933981   18.959896 H          1 MOL1         0.0958
       3    H2      19.547510   19.263615   19.087898 H          1 MOL1         0.0958
       4    H3      20.024880   17.611635   19.540095 H          1 MOL1         0.0958
       5    C2      18.735882   18.599050   21.012516 C.3        1 MOL1        -0.1412
       6    H4      18.364331   17.662208   21.450882 H          1 MOL1         0.0947
       7    H5      17.890813   19.301639   21.002343 H          1 MOL1         0.0947
       8    C3      19.876282   19.167499   21.885696 C.3        1 MOL1        -0.1437
       9    H6      20.719157   18.462555   21.891524 H          1 MOL1         0.0947
      10    H7      20.246347   20.101836   21.441340 H          1 MOL1         0.0947
      11    C4      19.413999   19.431363   23.336407 C.3        1 MOL1        -0.1437
      12    H8      19.035286   18.495908   23.762084 H          1 MOL1         0.0947
      13    H9      18.574963   20.140513   23.326298 H          1 MOL1         0.0947
      14    C5      20.560899   20.000727   24.207000 C.3        1 MOL1        -0.1437
      15    H10     21.405491   19.298472   24.231953 H          1 MOL1         0.0947
      16    H11     20.937909   20.910227   23.718932 H          1 MOL1         0.0947
      17    C6      20.136407   20.372680   25.651851 C.3        1 MOL1        -0.1437
      18    H12     19.123673   20.797130   25.656347 H          1 MOL1         0.0947
      19    H13     20.793214   21.184017   25.995007 H          1 MOL1         0.0947
      20    C7      20.253826   19.220486   26.685121 C.3        1 MOL1        -0.1477
      21    H14     21.290300   18.858553   26.706324 H          1 MOL1         0.0947
      22    H15     20.054149   19.621318   27.687757 H          1 MOL1         0.0947
      23    C8      19.318108   18.021274   26.441349 C.3        1 MOL1         0.0145
      24    H16     19.478031   17.273875   27.223184 H          1 MOL1         0.0921
      25    H17     19.552686   17.557005   25.481001 H          1 MOL1         0.0921
      26    N1      17.847235   18.387707   26.450486 N.4        1 MOL1        -0.5969
      27    H18     17.563964   18.794040   27.348201 H          1 MOL1         0.3603
      28    H19     17.249211   17.569993   26.288918 H          1 MOL1         0.3603
      29    H20     17.627029   19.075061   25.723231 H          1 MOL1         0.3603
@<TRIPOS>BOND
    1     1     2    1
    2     1     3    1
    3     1     4    1
    4     1     5    1
    5     5     6    1
    6     5     7    1
    7     5     8    1
    8     8     9    1
    9     8    10    1
   10     8    11    1
   11    11    12    1
   12    11    13    1
   13    11    14    1
   14    14    15    1
   15    14    16    1
   16    14    17    1
   17    17    18    1
   18    17    19    1
   19    17    20    1
   20    20    21    1
   21    20    22    1
   22    20    23    1
   23    23    24    1
   24    23    25    1
   25    23    26    1
   26    26    27    1
   27    26    28    1
   28    26    29    1
@<TRIPOS>SUBSTRUCTURE
       1 MOL1            1 RESIDUE      1      MOL     
@<SCITEGIC>MOL_PROPERTY
VM2 Rank
SciTegic.value.IntegerValue
234

@<SCITEGIC>MOL_PROPERTY
Conf_Id
SciTegic.value.IntegerValue
1366

@<SCITEGIC>MOL_PROPERTY
Probability
SciTegic.value.DoubleValue
0.01

@<SCITEGIC>MOL_PROPERTY
Sum Probability
SciTegic.value.DoubleValue
99.30

@<SCITEGIC>MOL_PROPERTY
Delta G
SciTegic.value.DoubleValue
3.685

@<SCITEGIC>MOL_PROPERTY
G
SciTegic.value.DoubleValue
61.833

@<SCITEGIC>MOL_PROPERTY
E
SciTegic.value.DoubleValue
24.127

@<SCITEGIC>MOL_PROPERTY
-TS
SciTegic.value.DoubleValue
37.706

@<SCITEGIC>MOL_PROPERTY
U+W
SciTegic.value.DoubleValue
-0.018

@<SCITEGIC>MOL_PROPERTY
U
SciTegic.value.DoubleValue
52.436

@<SCITEGIC>MOL_PROPERTY
W
SciTegic.value.DoubleValue
-52.454

@<SCITEGIC>MOL_PROPERTY
W(PB)
SciTegic.value.DoubleValue
-54.920

@<SCITEGIC>MOL_PROPERTY
W(SA)
SciTegic.value.DoubleValue
2.466

@<SCITEGIC>MOL_PROPERTY
Valence
SciTegic.value.DoubleValue
5.285

@<SCITEGIC>MOL_PROPERTY
Coulomb
SciTegic.value.DoubleValue
46.570

@<SCITEGIC>MOL_PROPERTY
VdW
SciTegic.value.DoubleValue
0.581

@<SCITEGIC>MOL_PROPERTY
VdW6
SciTegic.value.DoubleValue
-9.434

@<SCITEGIC>MOL_PROPERTY
VdW12
SciTegic.value.DoubleValue
10.015

@<SCITEGIC>MOL_PROPERTY
Bond
SciTegic.value.DoubleValue
0.255

@<SCITEGIC>MOL_PROPERTY
Angle
SciTegic.value.DoubleValue
1.438

@<SCITEGIC>MOL_PROPERTY
Pdih
SciTegic.value.DoubleValue
3.593

@<SCITEGIC>MOL_PROPERTY
Idih
SciTegic.value.DoubleValue
0.000

@<SCITEGIC>MOL_PROPERTY
Tether
SciTegic.value.DoubleValue
0.000

@<TRIPOS>MOLECULE
guest-3_vm2.mol2 : vm2 ligand conformer 235
          29          28           1
SMALL
USER_CHARGES
 
@<TRIPOS>ATOM
       1    C1      20.998857   19.583029   20.019485 C.3        1 MOL1        -0.2427
       2    H1      21.620422   18.678394   20.042805 H          1 MOL1         0.0958
       3    H2      20.345986   19.526830   19.138667 H          1 MOL1         0.0958
       4    H3      21.664540   20.446344   19.890679 H          1 MOL1         0.0958
       5    C2      20.172208   19.720936   21.315460 C.3        1 MOL1        -0.1412
       6    H4      19.583895   20.648273   21.275099 H          1 MOL1         0.0947
       7    H5      20.859164   19.815577   22.166552 H          1 MOL1         0.0947
       8    C3      19.228774   18.512195   21.520546 C.3        1 MOL1        -0.1437
       9    H6      18.608680   18.388038   20.622000 H          1 MOL1         0.0947
      10    H7      19.820998   17.591604   21.615414 H          1 MOL1         0.0947
      11    C4      18.292263   18.655845   22.745356 C.3        1 MOL1        -0.1437
      12    H8      17.581271   17.818169   22.737391 H          1 MOL1         0.0947
      13    H9      17.692139   19.570702   22.644327 H          1 MOL1         0.0947
      14    C5      19.041670   18.669059   24.099323 C.3        1 MOL1        -0.1437
      15    H10     19.674531   17.774145   24.175349 H          1 MOL1         0.0947
      16    H11     19.699944   19.544273   24.137293 H          1 MOL1         0.0947
      17    C6      18.060388   18.715177   25.294491 C.3        1 MOL1        -0.1437
      18    H12     17.311053   17.920919   25.172076 H          1 MOL1         0.0947
      19    H13     17.506456   19.664006   25.276466 H          1 MOL1         0.0947
      20    C7      18.729480   18.535038   26.681127 C.3        1 MOL1        -0.1477
      21    H14     17.934070   18.512129   27.437861 H          1 MOL1         0.0947
      22    H15     19.229728   17.559258   26.740237 H          1 MOL1         0.0947
      23    C8      19.714169   19.657800   27.068083 C.3        1 MOL1         0.0145
      24    H16     19.821047   19.678483   28.156029 H          1 MOL1         0.0921
      25    H17     19.318863   20.625380   26.747450 H          1 MOL1         0.0921
      26    N1      21.106191   19.488920   26.491130 N.4        1 MOL1        -0.5969
      27    H18     21.545790   18.619762   26.811660 H          1 MOL1         0.3603
      28    H19     21.727592   20.257489   26.766602 H          1 MOL1         0.3603
      29    H20     21.091992   19.461538   25.467742 H          1 MOL1         0.3603
@<TRIPOS>BOND
    1     1     2    1
    2     1     3    1
    3     1     4    1
    4     1     5    1
    5     5     6    1
    6     5     7    1
    7     5     8    1
    8     8     9    1
    9     8    10    1
   10     8    11    1
   11    11    12    1
   12    11    13    1
   13    11    14    1
   14    14    15    1
   15    14    16    1
   16    14    17    1
   17    17    18    1
   18    17    19    1
   19    17    20    1
   20    20    21    1
   21    20    22    1
   22    20    23    1
   23    23    24    1
   24    23    25    1
   25    23    26    1
   26    26    27    1
   27    26    28    1
   28    26    29    1
@<TRIPOS>SUBSTRUCTURE
       1 MOL1            1 RESIDUE      1      MOL     
@<SCITEGIC>MOL_PROPERTY
VM2 Rank
SciTegic.value.IntegerValue
235

@<SCITEGIC>MOL_PROPERTY
Conf_Id
SciTegic.value.IntegerValue
996

@<SCITEGIC>MOL_PROPERTY
Probability
SciTegic.value.DoubleValue
0.01

@<SCITEGIC>MOL_PROPERTY
Sum Probability
SciTegic.value.DoubleValue
99.31

@<SCITEGIC>MOL_PROPERTY
Delta G
SciTegic.value.DoubleValue
3.697

@<SCITEGIC>MOL_PROPERTY
G
SciTegic.value.DoubleValue
61.845

@<SCITEGIC>MOL_PROPERTY
E
SciTegic.value.DoubleValue
24.410

@<SCITEGIC>MOL_PROPERTY
-TS
SciTegic.value.DoubleValue
37.435

@<SCITEGIC>MOL_PROPERTY
U+W
SciTegic.value.DoubleValue
0.265

@<SCITEGIC>MOL_PROPERTY
U
SciTegic.value.DoubleValue
52.481

@<SCITEGIC>MOL_PROPERTY
W
SciTegic.value.DoubleValue
-52.215

@<SCITEGIC>MOL_PROPERTY
W(PB)
SciTegic.value.DoubleValue
-54.699

@<SCITEGIC>MOL_PROPERTY
W(SA)
SciTegic.value.DoubleValue
2.483

@<SCITEGIC>MOL_PROPERTY
Valence
SciTegic.value.DoubleValue
4.726

@<SCITEGIC>MOL_PROPERTY
Coulomb
SciTegic.value.DoubleValue
46.978

@<SCITEGIC>MOL_PROPERTY
VdW
SciTegic.value.DoubleValue
0.777

@<SCITEGIC>MOL_PROPERTY
VdW6
SciTegic.value.DoubleValue
-9.165

@<SCITEGIC>MOL_PROPERTY
VdW12
SciTegic.value.DoubleValue
9.942

@<SCITEGIC>MOL_PROPERTY
Bond
SciTegic.value.DoubleValue
0.244

@<SCITEGIC>MOL_PROPERTY
Angle
SciTegic.value.DoubleValue
1.215

@<SCITEGIC>MOL_PROPERTY
Pdih
SciTegic.value.DoubleValue
3.267

@<SCITEGIC>MOL_PROPERTY
Idih
SciTegic.value.DoubleValue
0.000

@<SCITEGIC>MOL_PROPERTY
Tether
SciTegic.value.DoubleValue
0.000

@<TRIPOS>MOLECULE
guest-3_vm2.mol2 : vm2 ligand conformer 236
          29          28           1
SMALL
USER_CHARGES
 
@<TRIPOS>ATOM
       1    C1      20.317210   17.878141   20.472673 C.3        1 MOL1        -0.2427
       2    H1      21.246222   18.283516   20.051192 H          1 MOL1         0.0958
       3    H2      20.533923   17.522902   21.486056 H          1 MOL1         0.0958
       4    H3      20.030269   17.007232   19.869291 H          1 MOL1         0.0958
       5    C2      19.194216   18.941282   20.455653 C.3        1 MOL1        -0.1412
       6    H4      18.250540   18.506159   20.813009 H          1 MOL1         0.0947
       7    H5      19.017256   19.229421   19.409935 H          1 MOL1         0.0947
       8    C3      19.541162   20.216139   21.266938 C.3        1 MOL1        -0.1437
       9    H6      20.626867   20.384569   21.264307 H          1 MOL1         0.0947
      10    H7      19.106704   21.080881   20.746535 H          1 MOL1         0.0947
      11    C4      19.003224   20.229612   22.721123 C.3        1 MOL1        -0.1437
      12    H8      17.906379   20.167465   22.704788 H          1 MOL1         0.0947
      13    H9      19.247645   21.203093   23.168126 H          1 MOL1         0.0947
      14    C5      19.568098   19.106449   23.621099 C.3        1 MOL1        -0.1437
      15    H10     19.220221   18.131893   23.255017 H          1 MOL1         0.0947
      16    H11     20.665216   19.104109   23.562338 H          1 MOL1         0.0947
      17    C6      19.129772   19.274918   25.093358 C.3        1 MOL1        -0.1437
      18    H12     18.032355   19.281356   25.150645 H          1 MOL1         0.0947
      19    H13     19.474587   20.249171   25.464691 H          1 MOL1         0.0947
      20    C7      19.686025   18.143911   25.990276 C.3        1 MOL1        -0.1477
      21    H14     19.366621   17.172258   25.590481 H          1 MOL1         0.0947
      22    H15     20.783875   18.148140   25.963889 H          1 MOL1         0.0947
      23    C8      19.206026   18.251794   27.450373 C.3        1 MOL1         0.0145
      24    H16     19.560538   17.384470   28.013942 H          1 MOL1         0.0921
      25    H17     18.113074   18.254164   27.479411 H          1 MOL1         0.0921
      26    N1      19.698266   19.495754   28.163507 N.4        1 MOL1        -0.5969
      27    H18     19.369805   20.350970   27.704195 H          1 MOL1         0.3603
      28    H19     20.722340   19.539277   28.189432 H          1 MOL1         0.3603
      29    H20     19.371660   19.531856   29.135426 H          1 MOL1         0.3603
@<TRIPOS>BOND
    1     1     2    1
    2     1     3    1
    3     1     4    1
    4     1     5    1
    5     5     6    1
    6     5     7    1
    7     5     8    1
    8     8     9    1
    9     8    10    1
   10     8    11    1
   11    11    12    1
   12    11    13    1
   13    11    14    1
   14    14    15    1
   15    14    16    1
   16    14    17    1
   17    17    18    1
   18    17    19    1
   19    17    20    1
   20    20    21    1
   21    20    22    1
   22    20    23    1
   23    23    24    1
   24    23    25    1
   25    23    26    1
   26    26    27    1
   27    26    28    1
   28    26    29    1
@<TRIPOS>SUBSTRUCTURE
       1 MOL1            1 RESIDUE      1      MOL     
@<SCITEGIC>MOL_PROPERTY
VM2 Rank
SciTegic.value.IntegerValue
236

@<SCITEGIC>MOL_PROPERTY
Conf_Id
SciTegic.value.IntegerValue
1547

@<SCITEGIC>MOL_PROPERTY
Probability
SciTegic.value.DoubleValue
0.01

@<SCITEGIC>MOL_PROPERTY
Sum Probability
SciTegic.value.DoubleValue
99.32

@<SCITEGIC>MOL_PROPERTY
Delta G
SciTegic.value.DoubleValue
3.719

@<SCITEGIC>MOL_PROPERTY
G
SciTegic.value.DoubleValue
61.867

@<SCITEGIC>MOL_PROPERTY
E
SciTegic.value.DoubleValue
24.233

@<SCITEGIC>MOL_PROPERTY
-TS
SciTegic.value.DoubleValue
37.634

@<SCITEGIC>MOL_PROPERTY
U+W
SciTegic.value.DoubleValue
0.088

@<SCITEGIC>MOL_PROPERTY
U
SciTegic.value.DoubleValue
51.624

@<SCITEGIC>MOL_PROPERTY
W
SciTegic.value.DoubleValue
-51.536

@<SCITEGIC>MOL_PROPERTY
W(PB)
SciTegic.value.DoubleValue
-54.028

@<SCITEGIC>MOL_PROPERTY
W(SA)
SciTegic.value.DoubleValue
2.492

@<SCITEGIC>MOL_PROPERTY
Valence
SciTegic.value.DoubleValue
5.677

@<SCITEGIC>MOL_PROPERTY
Coulomb
SciTegic.value.DoubleValue
44.987

@<SCITEGIC>MOL_PROPERTY
VdW
SciTegic.value.DoubleValue
0.961

@<SCITEGIC>MOL_PROPERTY
VdW6
SciTegic.value.DoubleValue
-9.002

@<SCITEGIC>MOL_PROPERTY
VdW12
SciTegic.value.DoubleValue
9.963

@<SCITEGIC>MOL_PROPERTY
Bond
SciTegic.value.DoubleValue
0.249

@<SCITEGIC>MOL_PROPERTY
Angle
SciTegic.value.DoubleValue
1.231

@<SCITEGIC>MOL_PROPERTY
Pdih
SciTegic.value.DoubleValue
4.197

@<SCITEGIC>MOL_PROPERTY
Idih
SciTegic.value.DoubleValue
0.000

@<SCITEGIC>MOL_PROPERTY
Tether
SciTegic.value.DoubleValue
0.000

@<TRIPOS>MOLECULE
guest-3_vm2.mol2 : vm2 ligand conformer 237
          29          28           1
SMALL
USER_CHARGES
 
@<TRIPOS>ATOM
       1    C1      20.254208   18.666251   19.507898 C.3        1 MOL1        -0.2427
       2    H1      20.183344   19.372474   18.670482 H          1 MOL1         0.0958
       3    H2      21.318342   18.476630   19.700012 H          1 MOL1         0.0958
       4    H3      19.790005   17.722596   19.192844 H          1 MOL1         0.0958
       5    C2      19.557769   19.236247   20.761723 C.3        1 MOL1        -0.1412
       6    H4      18.503451   19.442718   20.530542 H          1 MOL1         0.0947
       7    H5      20.021943   20.197115   21.020491 H          1 MOL1         0.0947
       8    C3      19.648880   18.259288   21.957673 C.3        1 MOL1        -0.1437
       9    H6      19.254925   17.280988   21.649386 H          1 MOL1         0.0947
      10    H7      20.702500   18.096941   22.223635 H          1 MOL1         0.0947
      11    C4      18.865533   18.731050   23.207299 C.3        1 MOL1        -0.1437
      12    H8      18.884012   17.921734   23.946033 H          1 MOL1         0.0947
      13    H9      17.808989   18.875512   22.942764 H          1 MOL1         0.0947
      14    C5      19.426287   20.035068   23.831562 C.3        1 MOL1        -0.1437
      15    H10     20.509419   19.947403   23.993519 H          1 MOL1         0.0947
      16    H11     19.290614   20.852719   23.111632 H          1 MOL1         0.0947
      17    C6      18.722918   20.442255   25.152512 C.3        1 MOL1        -0.1437
      18    H12     17.667787   20.136125   25.132189 H          1 MOL1         0.0947
      19    H13     18.713244   21.539487   25.211464 H          1 MOL1         0.0947
      20    C7      19.409476   19.912030   26.436372 C.3        1 MOL1        -0.1477
      21    H14     20.437338   20.295285   26.486754 H          1 MOL1         0.0947
      22    H15     18.882885   20.319432   27.309673 H          1 MOL1         0.0947
      23    C8      19.431890   18.376983   26.539488 C.3        1 MOL1         0.0145
      24    H16     20.025558   17.962629   25.720749 H          1 MOL1         0.0921
      25    H17     18.413290   17.987314   26.462516 H          1 MOL1         0.0921
      26    N1      20.027040   17.878828   27.840472 N.4        1 MOL1        -0.5969
      27    H18     20.996199   18.191243   27.961205 H          1 MOL1         0.3603
      28    H19     20.034917   16.854009   27.888307 H          1 MOL1         0.3603
      29    H20     19.498962   18.211748   28.653955 H          1 MOL1         0.3603
@<TRIPOS>BOND
    1     1     2    1
    2     1     3    1
    3     1     4    1
    4     1     5    1
    5     5     6    1
    6     5     7    1
    7     5     8    1
    8     8     9    1
    9     8    10    1
   10     8    11    1
   11    11    12    1
   12    11    13    1
   13    11    14    1
   14    14    15    1
   15    14    16    1
   16    14    17    1
   17    17    18    1
   18    17    19    1
   19    17    20    1
   20    20    21    1
   21    20    22    1
   22    20    23    1
   23    23    24    1
   24    23    25    1
   25    23    26    1
   26    26    27    1
   27    26    28    1
   28    26    29    1
@<TRIPOS>SUBSTRUCTURE
       1 MOL1            1 RESIDUE      1      MOL     
@<SCITEGIC>MOL_PROPERTY
VM2 Rank
SciTegic.value.IntegerValue
237

@<SCITEGIC>MOL_PROPERTY
Conf_Id
SciTegic.value.IntegerValue
1606

@<SCITEGIC>MOL_PROPERTY
Probability
SciTegic.value.DoubleValue
0.01

@<SCITEGIC>MOL_PROPERTY
Sum Probability
SciTegic.value.DoubleValue
99.33

@<SCITEGIC>MOL_PROPERTY
Delta G
SciTegic.value.DoubleValue
3.723

@<SCITEGIC>MOL_PROPERTY
G
SciTegic.value.DoubleValue
61.871

@<SCITEGIC>MOL_PROPERTY
E
SciTegic.value.DoubleValue
24.380

@<SCITEGIC>MOL_PROPERTY
-TS
SciTegic.value.DoubleValue
37.491

@<SCITEGIC>MOL_PROPERTY
U+W
SciTegic.value.DoubleValue
0.235

@<SCITEGIC>MOL_PROPERTY
U
SciTegic.value.DoubleValue
52.135

@<SCITEGIC>MOL_PROPERTY
W
SciTegic.value.DoubleValue
-51.900

@<SCITEGIC>MOL_PROPERTY
W(PB)
SciTegic.value.DoubleValue
-54.405

@<SCITEGIC>MOL_PROPERTY
W(SA)
SciTegic.value.DoubleValue
2.505

@<SCITEGIC>MOL_PROPERTY
Valence
SciTegic.value.DoubleValue
5.744

@<SCITEGIC>MOL_PROPERTY
Coulomb
SciTegic.value.DoubleValue
45.466

@<SCITEGIC>MOL_PROPERTY
VdW
SciTegic.value.DoubleValue
0.925

@<SCITEGIC>MOL_PROPERTY
VdW6
SciTegic.value.DoubleValue
-9.090

@<SCITEGIC>MOL_PROPERTY
VdW12
SciTegic.value.DoubleValue
10.016

@<SCITEGIC>MOL_PROPERTY
Bond
SciTegic.value.DoubleValue
0.268

@<SCITEGIC>MOL_PROPERTY
Angle
SciTegic.value.DoubleValue
1.306

@<SCITEGIC>MOL_PROPERTY
Pdih
SciTegic.value.DoubleValue
4.170

@<SCITEGIC>MOL_PROPERTY
Idih
SciTegic.value.DoubleValue
0.000

@<SCITEGIC>MOL_PROPERTY
Tether
SciTegic.value.DoubleValue
0.000

@<TRIPOS>MOLECULE
guest-3_vm2.mol2 : vm2 ligand conformer 238
          29          28           1
SMALL
USER_CHARGES
 
@<TRIPOS>ATOM
       1    C1      21.154973   19.918882   20.611680 C.3        1 MOL1        -0.2427
       2    H1      20.880431   19.664286   19.579671 H          1 MOL1         0.0958
       3    H2      21.639785   20.903663   20.598276 H          1 MOL1         0.0958
       4    H3      21.892809   19.184582   20.960409 H          1 MOL1         0.0958
       5    C2      19.913563   19.935032   21.528293 C.3        1 MOL1        -0.1412
       6    H4      19.211559   20.702323   21.173105 H          1 MOL1         0.0947
       7    H5      20.217113   20.234672   22.538452 H          1 MOL1         0.0947
       8    C3      19.206190   18.558607   21.553974 C.3        1 MOL1        -0.1437
       9    H6      18.891415   18.318071   20.529056 H          1 MOL1         0.0947
      10    H7      19.912463   17.769571   21.846702 H          1 MOL1         0.0947
      11    C4      17.956521   18.523364   22.471936 C.3        1 MOL1        -0.1437
      12    H8      17.202208   17.880304   21.997742 H          1 MOL1         0.0947
      13    H9      17.498870   19.520408   22.531784 H          1 MOL1         0.0947
      14    C5      18.212782   17.967640   23.896618 C.3        1 MOL1        -0.1437
      15    H10     17.251543   17.925859   24.427293 H          1 MOL1         0.0947
      16    H11     18.567302   16.930153   23.824360 H          1 MOL1         0.0947
      17    C6      19.214193   18.796008   24.734283 C.3        1 MOL1        -0.1437
      18    H12     18.908575   19.850587   24.726317 H          1 MOL1         0.0947
      19    H13     20.211200   18.740657   24.277947 H          1 MOL1         0.0947
      20    C7      19.302232   18.284446   26.191463 C.3        1 MOL1        -0.1477
      21    H14     18.321277   18.363340   26.678768 H          1 MOL1         0.0947
      22    H15     19.565375   17.218273   26.186963 H          1 MOL1         0.0947
      23    C8      20.352730   19.042816   27.025263 C.3        1 MOL1         0.0145
      24    H16     21.329719   18.971556   26.539670 H          1 MOL1         0.0921
      25    H17     20.429494   18.585155   28.015309 H          1 MOL1         0.0921
      26    N1      20.030816   20.511204   27.221491 N.4        1 MOL1        -0.5969
      27    H18     19.978844   21.010704   26.328254 H          1 MOL1         0.3603
      28    H19     20.742038   20.984081   27.789954 H          1 MOL1         0.3603
      29    H20     19.131486   20.643062   27.695967 H          1 MOL1         0.3603
@<TRIPOS>BOND
    1     1     2    1
    2     1     3    1
    3     1     4    1
    4     1     5    1
    5     5     6    1
    6     5     7    1
    7     5     8    1
    8     8     9    1
    9     8    10    1
   10     8    11    1
   11    11    12    1
   12    11    13    1
   13    11    14    1
   14    14    15    1
   15    14    16    1
   16    14    17    1
   17    17    18    1
   18    17    19    1
   19    17    20    1
   20    20    21    1
   21    20    22    1
   22    20    23    1
   23    23    24    1
   24    23    25    1
   25    23    26    1
   26    26    27    1
   27    26    28    1
   28    26    29    1
@<TRIPOS>SUBSTRUCTURE
       1 MOL1            1 RESIDUE      1      MOL     
@<SCITEGIC>MOL_PROPERTY
VM2 Rank
SciTegic.value.IntegerValue
238

@<SCITEGIC>MOL_PROPERTY
Conf_Id
SciTegic.value.IntegerValue
1289

@<SCITEGIC>MOL_PROPERTY
Probability
SciTegic.value.DoubleValue
0.01

@<SCITEGIC>MOL_PROPERTY
Sum Probability
SciTegic.value.DoubleValue
99.34

@<SCITEGIC>MOL_PROPERTY
Delta G
SciTegic.value.DoubleValue
3.725

@<SCITEGIC>MOL_PROPERTY
G
SciTegic.value.DoubleValue
61.873

@<SCITEGIC>MOL_PROPERTY
E
SciTegic.value.DoubleValue
24.200

@<SCITEGIC>MOL_PROPERTY
-TS
SciTegic.value.DoubleValue
37.672

@<SCITEGIC>MOL_PROPERTY
U+W
SciTegic.value.DoubleValue
0.056

@<SCITEGIC>MOL_PROPERTY
U
SciTegic.value.DoubleValue
52.242

@<SCITEGIC>MOL_PROPERTY
W
SciTegic.value.DoubleValue
-52.186

@<SCITEGIC>MOL_PROPERTY
W(PB)
SciTegic.value.DoubleValue
-54.645

@<SCITEGIC>MOL_PROPERTY
W(SA)
SciTegic.value.DoubleValue
2.458

@<SCITEGIC>MOL_PROPERTY
Valence
SciTegic.value.DoubleValue
5.713

@<SCITEGIC>MOL_PROPERTY
Coulomb
SciTegic.value.DoubleValue
45.680

@<SCITEGIC>MOL_PROPERTY
VdW
SciTegic.value.DoubleValue
0.849

@<SCITEGIC>MOL_PROPERTY
VdW6
SciTegic.value.DoubleValue
-9.171

@<SCITEGIC>MOL_PROPERTY
VdW12
SciTegic.value.DoubleValue
10.020

@<SCITEGIC>MOL_PROPERTY
Bond
SciTegic.value.DoubleValue
0.251

@<SCITEGIC>MOL_PROPERTY
Angle
SciTegic.value.DoubleValue
1.206

@<SCITEGIC>MOL_PROPERTY
Pdih
SciTegic.value.DoubleValue
4.257

@<SCITEGIC>MOL_PROPERTY
Idih
SciTegic.value.DoubleValue
0.000

@<SCITEGIC>MOL_PROPERTY
Tether
SciTegic.value.DoubleValue
0.000

@<TRIPOS>MOLECULE
guest-3_vm2.mol2 : vm2 ligand conformer 239
          29          28           1
SMALL
USER_CHARGES
 
@<TRIPOS>ATOM
       1    C1      21.068611   19.813189   20.257973 C.3        1 MOL1        -0.2427
       2    H1      21.466748   20.631066   20.872625 H          1 MOL1         0.0958
       3    H2      21.748427   18.955826   20.347493 H          1 MOL1         0.0958
       4    H3      21.078043   20.142994   19.210988 H          1 MOL1         0.0958
       5    C2      19.638260   19.434857   20.697097 C.3        1 MOL1        -0.1412
       6    H4      19.254825   18.639478   20.042721 H          1 MOL1         0.0947
       7    H5      18.975016   20.301289   20.565565 H          1 MOL1         0.0947
       8    C3      19.597617   18.965971   22.168246 C.3        1 MOL1        -0.1437
       9    H6      20.258132   18.097083   22.293709 H          1 MOL1         0.0947
      10    H7      19.989022   19.767929   22.807522 H          1 MOL1         0.0947
      11    C4      18.163906   18.596656   22.614429 C.3        1 MOL1        -0.1437
      12    H8      17.740052   17.880169   21.897296 H          1 MOL1         0.0947
      13    H9      17.525616   19.489753   22.567344 H          1 MOL1         0.0947
      14    C5      18.074474   17.974809   24.032035 C.3        1 MOL1        -0.1437
      15    H10     17.022152   17.714963   24.212427 H          1 MOL1         0.0947
      16    H11     18.622919   17.023230   24.062624 H          1 MOL1         0.0947
      17    C6      18.545863   18.905594   25.179587 C.3        1 MOL1        -0.1437
      18    H12     17.895397   18.735089   26.047839 H          1 MOL1         0.0947
      19    H13     18.403848   19.957255   24.894605 H          1 MOL1         0.0947
      20    C7      20.014215   18.655589   25.608381 C.3        1 MOL1        -0.1477
      21    H14     20.122323   17.630453   25.986853 H          1 MOL1         0.0947
      22    H15     20.681996   18.735221   24.743245 H          1 MOL1         0.0947
      23    C8      20.495585   19.650105   26.682171 C.3        1 MOL1         0.0145
      24    H16     20.385064   20.672998   26.312229 H          1 MOL1         0.0921
      25    H17     21.554650   19.475007   26.890152 H          1 MOL1         0.0921
      26    N1      19.745469   19.541229   27.995081 N.4        1 MOL1        -0.5969
      27    H18     18.745230   19.730410   27.876845 H          1 MOL1         0.3603
      28    H19     20.097433   20.207638   28.691190 H          1 MOL1         0.3603
      29    H20     19.830936   18.605565   28.405549 H          1 MOL1         0.3603
@<TRIPOS>BOND
    1     1     2    1
    2     1     3    1
    3     1     4    1
    4     1     5    1
    5     5     6    1
    6     5     7    1
    7     5     8    1
    8     8     9    1
    9     8    10    1
   10     8    11    1
   11    11    12    1
   12    11    13    1
   13    11    14    1
   14    14    15    1
   15    14    16    1
   16    14    17    1
   17    17    18    1
   18    17    19    1
   19    17    20    1
   20    20    21    1
   21    20    22    1
   22    20    23    1
   23    23    24    1
   24    23    25    1
   25    23    26    1
   26    26    27    1
   27    26    28    1
   28    26    29    1
@<TRIPOS>SUBSTRUCTURE
       1 MOL1            1 RESIDUE      1      MOL     
@<SCITEGIC>MOL_PROPERTY
VM2 Rank
SciTegic.value.IntegerValue
239

@<SCITEGIC>MOL_PROPERTY
Conf_Id
SciTegic.value.IntegerValue
2619

@<SCITEGIC>MOL_PROPERTY
Probability
SciTegic.value.DoubleValue
0.01

@<SCITEGIC>MOL_PROPERTY
Sum Probability
SciTegic.value.DoubleValue
99.35

@<SCITEGIC>MOL_PROPERTY
Delta G
SciTegic.value.DoubleValue
3.731

@<SCITEGIC>MOL_PROPERTY
G
SciTegic.value.DoubleValue
61.879

@<SCITEGIC>MOL_PROPERTY
E
SciTegic.value.DoubleValue
24.187

@<SCITEGIC>MOL_PROPERTY
-TS
SciTegic.value.DoubleValue
37.692

@<SCITEGIC>MOL_PROPERTY
U+W
SciTegic.value.DoubleValue
0.043

@<SCITEGIC>MOL_PROPERTY
U
SciTegic.value.DoubleValue
51.918

@<SCITEGIC>MOL_PROPERTY
W
SciTegic.value.DoubleValue
-51.875

@<SCITEGIC>MOL_PROPERTY
W(PB)
SciTegic.value.DoubleValue
-54.365

@<SCITEGIC>MOL_PROPERTY
W(SA)
SciTegic.value.DoubleValue
2.490

@<SCITEGIC>MOL_PROPERTY
Valence
SciTegic.value.DoubleValue
5.738

@<SCITEGIC>MOL_PROPERTY
Coulomb
SciTegic.value.DoubleValue
45.289

@<SCITEGIC>MOL_PROPERTY
VdW
SciTegic.value.DoubleValue
0.891

@<SCITEGIC>MOL_PROPERTY
VdW6
SciTegic.value.DoubleValue
-9.145

@<SCITEGIC>MOL_PROPERTY
VdW12
SciTegic.value.DoubleValue
10.036

@<SCITEGIC>MOL_PROPERTY
Bond
SciTegic.value.DoubleValue
0.256

@<SCITEGIC>MOL_PROPERTY
Angle
SciTegic.value.DoubleValue
1.170

@<SCITEGIC>MOL_PROPERTY
Pdih
SciTegic.value.DoubleValue
4.312

@<SCITEGIC>MOL_PROPERTY
Idih
SciTegic.value.DoubleValue
0.000

@<SCITEGIC>MOL_PROPERTY
Tether
SciTegic.value.DoubleValue
0.000

@<TRIPOS>MOLECULE
guest-3_vm2.mol2 : vm2 ligand conformer 240
          29          28           1
SMALL
USER_CHARGES
 
@<TRIPOS>ATOM
       1    C1      21.153421   20.158350   20.796924 C.3        1 MOL1        -0.2427
       2    H1      21.114267   19.755031   19.776611 H          1 MOL1         0.0958
       3    H2      21.379235   21.230337   20.727113 H          1 MOL1         0.0958
       4    H3      21.984184   19.672468   21.325076 H          1 MOL1         0.0958
       5    C2      19.817873   19.929710   21.535525 C.3        1 MOL1        -0.1412
       6    H4      19.014368   20.456031   21.001587 H          1 MOL1         0.0947
       7    H5      19.876611   20.382189   22.532611 H          1 MOL1         0.0947
       8    C3      19.472342   18.424329   21.635783 C.3        1 MOL1        -0.1437
       9    H6      19.383245   18.026385   20.615440 H          1 MOL1         0.0947
      10    H7      20.297545   17.871332   22.105156 H          1 MOL1         0.0947
      11    C4      18.145997   18.144688   22.389578 C.3        1 MOL1        -0.1437
      12    H8      17.648236   17.294902   21.902269 H          1 MOL1         0.0947
      13    H9      17.457581   18.993677   22.278010 H          1 MOL1         0.0947
      14    C5      18.314416   17.788471   23.889255 C.3        1 MOL1        -0.1437
      15    H10     17.323495   17.547961   24.298536 H          1 MOL1         0.0947
      16    H11     18.913503   16.871946   23.980771 H          1 MOL1         0.0947
      17    C6      18.954704   18.907588   24.742801 C.3        1 MOL1        -0.1437
      18    H12     18.408174   19.847915   24.586766 H          1 MOL1         0.0947
      19    H13     19.987623   19.070947   24.411438 H          1 MOL1         0.0947
      20    C7      18.950758   18.553298   26.248600 C.3        1 MOL1        -0.1477
      21    H14     17.920368   18.357585   26.574034 H          1 MOL1         0.0947
      22    H15     19.514718   17.626462   26.418660 H          1 MOL1         0.0947
      23    C8      19.532747   19.678388   27.125830 C.3        1 MOL1         0.0145
      24    H16     19.424431   19.409082   28.180002 H          1 MOL1         0.0921
      25    H17     18.978924   20.604864   26.951751 H          1 MOL1         0.0921
      26    N1      21.001741   19.953178   26.870704 N.4        1 MOL1        -0.5969
      27    H18     21.360679   20.697355   27.478978 H          1 MOL1         0.3603
      28    H19     21.170259   20.247661   25.903790 H          1 MOL1         0.3603
      29    H20     21.578802   19.122839   27.040606 H          1 MOL1         0.3603
@<TRIPOS>BOND
    1     1     2    1
    2     1     3    1
    3     1     4    1
    4     1     5    1
    5     5     6    1
    6     5     7    1
    7     5     8    1
    8     8     9    1
    9     8    10    1
   10     8    11    1
   11    11    12    1
   12    11    13    1
   13    11    14    1
   14    14    15    1
   15    14    16    1
   16    14    17    1
   17    17    18    1
   18    17    19    1
   19    17    20    1
   20    20    21    1
   21    20    22    1
   22    20    23    1
   23    23    24    1
   24    23    25    1
   25    23    26    1
   26    26    27    1
   27    26    28    1
   28    26    29    1
@<TRIPOS>SUBSTRUCTURE
       1 MOL1            1 RESIDUE      1      MOL     
@<SCITEGIC>MOL_PROPERTY
VM2 Rank
SciTegic.value.IntegerValue
240

@<SCITEGIC>MOL_PROPERTY
Conf_Id
SciTegic.value.IntegerValue
1042

@<SCITEGIC>MOL_PROPERTY
Probability
SciTegic.value.DoubleValue
0.01

@<SCITEGIC>MOL_PROPERTY
Sum Probability
SciTegic.value.DoubleValue
99.36

@<SCITEGIC>MOL_PROPERTY
Delta G
SciTegic.value.DoubleValue
3.739

@<SCITEGIC>MOL_PROPERTY
G
SciTegic.value.DoubleValue
61.887

@<SCITEGIC>MOL_PROPERTY
E
SciTegic.value.DoubleValue
24.203

@<SCITEGIC>MOL_PROPERTY
-TS
SciTegic.value.DoubleValue
37.684

@<SCITEGIC>MOL_PROPERTY
U+W
SciTegic.value.DoubleValue
0.059

@<SCITEGIC>MOL_PROPERTY
U
SciTegic.value.DoubleValue
52.464

@<SCITEGIC>MOL_PROPERTY
W
SciTegic.value.DoubleValue
-52.405

@<SCITEGIC>MOL_PROPERTY
W(PB)
SciTegic.value.DoubleValue
-54.873

@<SCITEGIC>MOL_PROPERTY
W(SA)
SciTegic.value.DoubleValue
2.467

@<SCITEGIC>MOL_PROPERTY
Valence
SciTegic.value.DoubleValue
5.708

@<SCITEGIC>MOL_PROPERTY
Coulomb
SciTegic.value.DoubleValue
45.914

@<SCITEGIC>MOL_PROPERTY
VdW
SciTegic.value.DoubleValue
0.841

@<SCITEGIC>MOL_PROPERTY
VdW6
SciTegic.value.DoubleValue
-9.209

@<SCITEGIC>MOL_PROPERTY
VdW12
SciTegic.value.DoubleValue
10.050

@<SCITEGIC>MOL_PROPERTY
Bond
SciTegic.value.DoubleValue
0.252

@<SCITEGIC>MOL_PROPERTY
Angle
SciTegic.value.DoubleValue
1.191

@<SCITEGIC>MOL_PROPERTY
Pdih
SciTegic.value.DoubleValue
4.265

@<SCITEGIC>MOL_PROPERTY
Idih
SciTegic.value.DoubleValue
0.000

@<SCITEGIC>MOL_PROPERTY
Tether
SciTegic.value.DoubleValue
0.000

@<TRIPOS>MOLECULE
guest-3_vm2.mol2 : vm2 ligand conformer 241
          29          28           1
SMALL
USER_CHARGES
 
@<TRIPOS>ATOM
       1    C1      20.382226   17.851236   19.980771 C.3        1 MOL1        -0.2427
       2    H1      19.923343   18.341446   19.112233 H          1 MOL1         0.0958
       3    H2      21.434920   18.158827   20.030538 H          1 MOL1         0.0958
       4    H3      20.355361   16.767374   19.808845 H          1 MOL1         0.0958
       5    C2      19.636464   18.215180   21.282040 C.3        1 MOL1        -0.1412
       6    H4      20.097910   17.674817   22.118879 H          1 MOL1         0.0947
       7    H5      18.595451   17.869726   21.213875 H          1 MOL1         0.0947
       8    C3      19.664961   19.738925   21.547691 C.3        1 MOL1        -0.1437
       9    H6      20.704010   20.074496   21.670107 H          1 MOL1         0.0947
      10    H7      19.274767   20.261856   20.663606 H          1 MOL1         0.0947
      11    C4      18.831258   20.170601   22.779131 C.3        1 MOL1        -0.1437
      12    H8      17.789672   19.845158   22.650680 H          1 MOL1         0.0947
      13    H9      18.809189   21.268575   22.814346 H          1 MOL1         0.0947
      14    C5      19.385098   19.633494   24.120696 C.3        1 MOL1        -0.1437
      15    H10     19.341711   18.538576   24.114880 H          1 MOL1         0.0947
      16    H11     20.439955   19.923375   24.222718 H          1 MOL1         0.0947
      17    C6      18.579103   20.170698   25.327033 C.3        1 MOL1        -0.1437
      18    H12     17.550510   19.787037   25.279691 H          1 MOL1         0.0947
      19    H13     18.502048   21.263827   25.246623 H          1 MOL1         0.0947
      20    C7      19.192376   19.832621   26.709962 C.3        1 MOL1        -0.1477
      21    H14     20.196050   20.268997   26.799970 H          1 MOL1         0.0947
      22    H15     18.580405   20.323585   27.478267 H          1 MOL1         0.0947
      23    C8      19.239874   18.326110   27.038768 C.3        1 MOL1         0.0145
      24    H16     18.326149   17.840038   26.686457 H          1 MOL1         0.0921
      25    H17     19.294898   18.199875   28.123442 H          1 MOL1         0.0921
      26    N1      20.432640   17.599135   26.448907 N.4        1 MOL1        -0.5969
      27    H18     20.424229   16.600772   26.685388 H          1 MOL1         0.3603
      28    H19     21.318441   17.981082   26.796608 H          1 MOL1         0.3603
      29    H20     20.452733   17.669345   25.427664 H          1 MOL1         0.3603
@<TRIPOS>BOND
    1     1     2    1
    2     1     3    1
    3     1     4    1
    4     1     5    1
    5     5     6    1
    6     5     7    1
    7     5     8    1
    8     8     9    1
    9     8    10    1
   10     8    11    1
   11    11    12    1
   12    11    13    1
   13    11    14    1
   14    14    15    1
   15    14    16    1
   16    14    17    1
   17    17    18    1
   18    17    19    1
   19    17    20    1
   20    20    21    1
   21    20    22    1
   22    20    23    1
   23    23    24    1
   24    23    25    1
   25    23    26    1
   26    26    27    1
   27    26    28    1
   28    26    29    1
@<TRIPOS>SUBSTRUCTURE
       1 MOL1            1 RESIDUE      1      MOL     
@<SCITEGIC>MOL_PROPERTY
VM2 Rank
SciTegic.value.IntegerValue
241

@<SCITEGIC>MOL_PROPERTY
Conf_Id
SciTegic.value.IntegerValue
644

@<SCITEGIC>MOL_PROPERTY
Probability
SciTegic.value.DoubleValue
0.01

@<SCITEGIC>MOL_PROPERTY
Sum Probability
SciTegic.value.DoubleValue
99.37

@<SCITEGIC>MOL_PROPERTY
Delta G
SciTegic.value.DoubleValue
3.740

@<SCITEGIC>MOL_PROPERTY
G
SciTegic.value.DoubleValue
61.888

@<SCITEGIC>MOL_PROPERTY
E
SciTegic.value.DoubleValue
24.454

@<SCITEGIC>MOL_PROPERTY
-TS
SciTegic.value.DoubleValue
37.434

@<SCITEGIC>MOL_PROPERTY
U+W
SciTegic.value.DoubleValue
0.309

@<SCITEGIC>MOL_PROPERTY
U
SciTegic.value.DoubleValue
52.481

@<SCITEGIC>MOL_PROPERTY
W
SciTegic.value.DoubleValue
-52.172

@<SCITEGIC>MOL_PROPERTY
W(PB)
SciTegic.value.DoubleValue
-54.661

@<SCITEGIC>MOL_PROPERTY
W(SA)
SciTegic.value.DoubleValue
2.490

@<SCITEGIC>MOL_PROPERTY
Valence
SciTegic.value.DoubleValue
4.726

@<SCITEGIC>MOL_PROPERTY
Coulomb
SciTegic.value.DoubleValue
46.978

@<SCITEGIC>MOL_PROPERTY
VdW
SciTegic.value.DoubleValue
0.777

@<SCITEGIC>MOL_PROPERTY
VdW6
SciTegic.value.DoubleValue
-9.165

@<SCITEGIC>MOL_PROPERTY
VdW12
SciTegic.value.DoubleValue
9.942

@<SCITEGIC>MOL_PROPERTY
Bond
SciTegic.value.DoubleValue
0.244

@<SCITEGIC>MOL_PROPERTY
Angle
SciTegic.value.DoubleValue
1.215

@<SCITEGIC>MOL_PROPERTY
Pdih
SciTegic.value.DoubleValue
3.267

@<SCITEGIC>MOL_PROPERTY
Idih
SciTegic.value.DoubleValue
0.000

@<SCITEGIC>MOL_PROPERTY
Tether
SciTegic.value.DoubleValue
0.000

@<TRIPOS>MOLECULE
guest-3_vm2.mol2 : vm2 ligand conformer 242
          29          28           1
SMALL
USER_CHARGES
 
@<TRIPOS>ATOM
       1    C1      19.978307   19.462961   19.425156 C.3        1 MOL1        -0.2427
       2    H1      19.223903   19.541031   18.631542 H          1 MOL1         0.0958
       3    H2      20.637506   20.337657   19.350376 H          1 MOL1         0.0958
       4    H3      20.578934   18.564465   19.232269 H          1 MOL1         0.0958
       5    C2      19.304809   19.391984   20.812043 C.3        1 MOL1        -0.1412
       6    H4      18.623694   18.531377   20.831961 H          1 MOL1         0.0947
       7    H5      18.689065   20.289482   20.963705 H          1 MOL1         0.0947
       8    C3      20.349959   19.277562   21.947147 C.3        1 MOL1        -0.1437
       9    H6      20.931031   18.352890   21.826470 H          1 MOL1         0.0947
      10    H7      21.066163   20.105483   21.852615 H          1 MOL1         0.0947
      11    C4      19.735319   19.324558   23.367862 C.3        1 MOL1        -0.1437
      12    H8      19.127614   20.233310   23.476577 H          1 MOL1         0.0947
      13    H9      20.562074   19.408275   24.084234 H          1 MOL1         0.0947
      14    C5      18.888279   18.075927   23.718510 C.3        1 MOL1        -0.1437
      15    H10     18.119725   17.924715   22.950338 H          1 MOL1         0.0947
      16    H11     19.528067   17.183218   23.690183 H          1 MOL1         0.0947
      17    C6      18.170269   18.151212   25.091124 C.3        1 MOL1        -0.1437
      18    H12     17.577579   17.232937   25.204917 H          1 MOL1         0.0947
      19    H13     17.443528   18.975493   25.091872 H          1 MOL1         0.0947
      20    C7      19.110873   18.272110   26.316487 C.3        1 MOL1        -0.1477
      21    H14     18.616312   17.814248   27.183540 H          1 MOL1         0.0947
      22    H15     20.030825   17.697486   26.145080 H          1 MOL1         0.0947
      23    C8      19.448296   19.732415   26.675471 C.3        1 MOL1         0.0145
      24    H16     18.526332   20.277062   26.896129 H          1 MOL1         0.0921
      25    H17     19.942027   20.225342   25.835996 H          1 MOL1         0.0921
      26    N1      20.357889   19.849270   27.881200 N.4        1 MOL1        -0.5969
      27    H18     21.256210   19.378930   27.728926 H          1 MOL1         0.3603
      28    H19     19.937083   19.432571   28.718308 H          1 MOL1         0.3603
      29    H20     20.566920   20.827894   28.107537 H          1 MOL1         0.3603
@<TRIPOS>BOND
    1     1     2    1
    2     1     3    1
    3     1     4    1
    4     1     5    1
    5     5     6    1
    6     5     7    1
    7     5     8    1
    8     8     9    1
    9     8    10    1
   10     8    11    1
   11    11    12    1
   12    11    13    1
   13    11    14    1
   14    14    15    1
   15    14    16    1
   16    14    17    1
   17    17    18    1
   18    17    19    1
   19    17    20    1
   20    20    21    1
   21    20    22    1
   22    20    23    1
   23    23    24    1
   24    23    25    1
   25    23    26    1
   26    26    27    1
   27    26    28    1
   28    26    29    1
@<TRIPOS>SUBSTRUCTURE
       1 MOL1            1 RESIDUE      1      MOL     
@<SCITEGIC>MOL_PROPERTY
VM2 Rank
SciTegic.value.IntegerValue
242

@<SCITEGIC>MOL_PROPERTY
Conf_Id
SciTegic.value.IntegerValue
1320

@<SCITEGIC>MOL_PROPERTY
Probability
SciTegic.value.DoubleValue
0.01

@<SCITEGIC>MOL_PROPERTY
Sum Probability
SciTegic.value.DoubleValue
99.38

@<SCITEGIC>MOL_PROPERTY
Delta G
SciTegic.value.DoubleValue
3.740

@<SCITEGIC>MOL_PROPERTY
G
SciTegic.value.DoubleValue
61.888

@<SCITEGIC>MOL_PROPERTY
E
SciTegic.value.DoubleValue
24.328

@<SCITEGIC>MOL_PROPERTY
-TS
SciTegic.value.DoubleValue
37.560

@<SCITEGIC>MOL_PROPERTY
U+W
SciTegic.value.DoubleValue
0.183

@<SCITEGIC>MOL_PROPERTY
U
SciTegic.value.DoubleValue
52.229

@<SCITEGIC>MOL_PROPERTY
W
SciTegic.value.DoubleValue
-52.046

@<SCITEGIC>MOL_PROPERTY
W(PB)
SciTegic.value.DoubleValue
-54.536

@<SCITEGIC>MOL_PROPERTY
W(SA)
SciTegic.value.DoubleValue
2.490

@<SCITEGIC>MOL_PROPERTY
Valence
SciTegic.value.DoubleValue
5.678

@<SCITEGIC>MOL_PROPERTY
Coulomb
SciTegic.value.DoubleValue
45.657

@<SCITEGIC>MOL_PROPERTY
VdW
SciTegic.value.DoubleValue
0.894

@<SCITEGIC>MOL_PROPERTY
VdW6
SciTegic.value.DoubleValue
-9.187

@<SCITEGIC>MOL_PROPERTY
VdW12
SciTegic.value.DoubleValue
10.082

@<SCITEGIC>MOL_PROPERTY
Bond
SciTegic.value.DoubleValue
0.260

@<SCITEGIC>MOL_PROPERTY
Angle
SciTegic.value.DoubleValue
1.481

@<SCITEGIC>MOL_PROPERTY
Pdih
SciTegic.value.DoubleValue
3.936

@<SCITEGIC>MOL_PROPERTY
Idih
SciTegic.value.DoubleValue
0.000

@<SCITEGIC>MOL_PROPERTY
Tether
SciTegic.value.DoubleValue
0.000

@<TRIPOS>MOLECULE
guest-3_vm2.mol2 : vm2 ligand conformer 243
          29          28           1
SMALL
USER_CHARGES
 
@<TRIPOS>ATOM
       1    C1      21.246066   19.767256   20.587084 C.3        1 MOL1        -0.2427
       2    H1      21.589010   18.790799   20.220793 H          1 MOL1         0.0958
       3    H2      20.772078   20.298798   19.751608 H          1 MOL1         0.0958
       4    H3      22.129780   20.341779   20.893644 H          1 MOL1         0.0958
       5    C2      20.266356   19.603088   21.768214 C.3        1 MOL1        -0.1412
       6    H4      19.961596   20.595075   22.129489 H          1 MOL1         0.0947
       7    H5      20.789045   19.102313   22.593733 H          1 MOL1         0.0947
       8    C3      19.017828   18.786498   21.363994 C.3        1 MOL1        -0.1437
       9    H6      18.578718   19.230563   20.459967 H          1 MOL1         0.0947
      10    H7      19.322703   17.768059   21.086441 H          1 MOL1         0.0947
      11    C4      17.917033   18.715365   22.453768 C.3        1 MOL1        -0.1437
      12    H8      17.072386   18.152328   22.033133 H          1 MOL1         0.0947
      13    H9      17.526774   19.720960   22.662617 H          1 MOL1         0.0947
      14    C5      18.351538   18.021357   23.770936 C.3        1 MOL1        -0.1437
      15    H10     17.498172   17.448621   24.159764 H          1 MOL1         0.0947
      16    H11     19.142087   17.286184   23.566596 H          1 MOL1         0.0947
      17    C6      18.806088   19.014502   24.868371 C.3        1 MOL1        -0.1437
      18    H12     17.977520   19.695385   25.107840 H          1 MOL1         0.0947
      19    H13     19.626344   19.638687   24.496993 H          1 MOL1         0.0947
      20    C7      19.252271   18.279793   26.154399 C.3        1 MOL1        -0.1477
      21    H14     18.435412   17.636611   26.507968 H          1 MOL1         0.0947
      22    H15     20.099962   17.617289   25.934220 H          1 MOL1         0.0947
      23    C8      19.637282   19.247358   27.290017 C.3        1 MOL1         0.0145
      24    H16     19.859859   18.674646   28.194447 H          1 MOL1         0.0921
      25    H17     18.798070   19.913960   27.506234 H          1 MOL1         0.0921
      26    N1      20.849537   20.102781   26.978216 N.4        1 MOL1        -0.5969
      27    H18     21.679113   19.531367   26.786994 H          1 MOL1         0.3603
      28    H19     21.087126   20.724483   27.759035 H          1 MOL1         0.3603
      29    H20     20.693704   20.696848   26.157944 H          1 MOL1         0.3603
@<TRIPOS>BOND
    1     1     2    1
    2     1     3    1
    3     1     4    1
    4     1     5    1
    5     5     6    1
    6     5     7    1
    7     5     8    1
    8     8     9    1
    9     8    10    1
   10     8    11    1
   11    11    12    1
   12    11    13    1
   13    11    14    1
   14    14    15    1
   15    14    16    1
   16    14    17    1
   17    17    18    1
   18    17    19    1
   19    17    20    1
   20    20    21    1
   21    20    22    1
   22    20    23    1
   23    23    24    1
   24    23    25    1
   25    23    26    1
   26    26    27    1
   27    26    28    1
   28    26    29    1
@<TRIPOS>SUBSTRUCTURE
       1 MOL1            1 RESIDUE      1      MOL     
@<SCITEGIC>MOL_PROPERTY
VM2 Rank
SciTegic.value.IntegerValue
243

@<SCITEGIC>MOL_PROPERTY
Conf_Id
SciTegic.value.IntegerValue
1206

@<SCITEGIC>MOL_PROPERTY
Probability
SciTegic.value.DoubleValue
0.01

@<SCITEGIC>MOL_PROPERTY
Sum Probability
SciTegic.value.DoubleValue
99.39

@<SCITEGIC>MOL_PROPERTY
Delta G
SciTegic.value.DoubleValue
3.752

@<SCITEGIC>MOL_PROPERTY
G
SciTegic.value.DoubleValue
61.900

@<SCITEGIC>MOL_PROPERTY
E
SciTegic.value.DoubleValue
24.223

@<SCITEGIC>MOL_PROPERTY
-TS
SciTegic.value.DoubleValue
37.677

@<SCITEGIC>MOL_PROPERTY
U+W
SciTegic.value.DoubleValue
0.078

@<SCITEGIC>MOL_PROPERTY
U
SciTegic.value.DoubleValue
52.545

@<SCITEGIC>MOL_PROPERTY
W
SciTegic.value.DoubleValue
-52.467

@<SCITEGIC>MOL_PROPERTY
W(PB)
SciTegic.value.DoubleValue
-54.915

@<SCITEGIC>MOL_PROPERTY
W(SA)
SciTegic.value.DoubleValue
2.448

@<SCITEGIC>MOL_PROPERTY
Valence
SciTegic.value.DoubleValue
5.714

@<SCITEGIC>MOL_PROPERTY
Coulomb
SciTegic.value.DoubleValue
45.984

@<SCITEGIC>MOL_PROPERTY
VdW
SciTegic.value.DoubleValue
0.847

@<SCITEGIC>MOL_PROPERTY
VdW6
SciTegic.value.DoubleValue
-9.182

@<SCITEGIC>MOL_PROPERTY
VdW12
SciTegic.value.DoubleValue
10.029

@<SCITEGIC>MOL_PROPERTY
Bond
SciTegic.value.DoubleValue
0.253

@<SCITEGIC>MOL_PROPERTY
Angle
SciTegic.value.DoubleValue
1.188

@<SCITEGIC>MOL_PROPERTY
Pdih
SciTegic.value.DoubleValue
4.272

@<SCITEGIC>MOL_PROPERTY
Idih
SciTegic.value.DoubleValue
0.000

@<SCITEGIC>MOL_PROPERTY
Tether
SciTegic.value.DoubleValue
0.000

@<TRIPOS>MOLECULE
guest-3_vm2.mol2 : vm2 ligand conformer 244
          29          28           1
SMALL
USER_CHARGES
 
@<TRIPOS>ATOM
       1    C1      20.281406   17.468728   20.556591 C.3        1 MOL1        -0.2427
       2    H1      21.312411   17.556705   20.923330 H          1 MOL1         0.0958
       3    H2      20.034625   16.400731   20.497428 H          1 MOL1         0.0958
       4    H3      20.243888   17.880172   19.539468 H          1 MOL1         0.0958
       5    C2      19.296836   18.204696   21.489608 C.3        1 MOL1        -0.1412
       6    H4      19.328572   17.740861   22.482681 H          1 MOL1         0.0947
       7    H5      18.272837   18.068879   21.114527 H          1 MOL1         0.0947
       8    C3      19.618704   19.715938   21.579777 C.3        1 MOL1        -0.1437
       9    H6      20.660576   19.868359   21.893400 H          1 MOL1         0.0947
      10    H7      19.541272   20.141687   20.569757 H          1 MOL1         0.0947
      11    C4      18.660068   20.496907   22.516087 C.3        1 MOL1        -0.1437
      12    H8      17.674323   20.012438   22.542900 H          1 MOL1         0.0947
      13    H9      18.489002   21.490195   22.078491 H          1 MOL1         0.0947
      14    C5      19.189918   20.708385   23.957875 C.3        1 MOL1        -0.1437
      15    H10     20.121563   21.289776   23.921734 H          1 MOL1         0.0947
      16    H11     18.464319   21.327505   24.503343 H          1 MOL1         0.0947
      17    C6      19.429989   19.401093   24.747844 C.3        1 MOL1        -0.1437
      18    H12     20.243728   18.831601   24.280045 H          1 MOL1         0.0947
      19    H13     18.526572   18.778701   24.702397 H          1 MOL1         0.0947
      20    C7      19.801016   19.683513   26.222768 C.3        1 MOL1        -0.1477
      21    H14     20.679075   20.342181   26.256813 H          1 MOL1         0.0947
      22    H15     18.984407   20.223464   26.720328 H          1 MOL1         0.0947
      23    C8      20.123352   18.399502   27.010999 C.3        1 MOL1         0.0145
      24    H16     20.458207   18.665866   28.017211 H          1 MOL1         0.0921
      25    H17     20.932019   17.856066   26.514895 H          1 MOL1         0.0921
      26    N1      18.942711   17.459237   27.153451 N.4        1 MOL1        -0.5969
      27    H18     18.599212   17.141018   26.241959 H          1 MOL1         0.3603
      28    H19     18.156046   17.907119   27.634981 H          1 MOL1         0.3603
      29    H20     19.186546   16.621139   27.692649 H          1 MOL1         0.3603
@<TRIPOS>BOND
    1     1     2    1
    2     1     3    1
    3     1     4    1
    4     1     5    1
    5     5     6    1
    6     5     7    1
    7     5     8    1
    8     8     9    1
    9     8    10    1
   10     8    11    1
   11    11    12    1
   12    11    13    1
   13    11    14    1
   14    14    15    1
   15    14    16    1
   16    14    17    1
   17    17    18    1
   18    17    19    1
   19    17    20    1
   20    20    21    1
   21    20    22    1
   22    20    23    1
   23    23    24    1
   24    23    25    1
   25    23    26    1
   26    26    27    1
   27    26    28    1
   28    26    29    1
@<TRIPOS>SUBSTRUCTURE
       1 MOL1            1 RESIDUE      1      MOL     
@<SCITEGIC>MOL_PROPERTY
VM2 Rank
SciTegic.value.IntegerValue
244

@<SCITEGIC>MOL_PROPERTY
Conf_Id
SciTegic.value.IntegerValue
702

@<SCITEGIC>MOL_PROPERTY
Probability
SciTegic.value.DoubleValue
0.01

@<SCITEGIC>MOL_PROPERTY
Sum Probability
SciTegic.value.DoubleValue
99.40

@<SCITEGIC>MOL_PROPERTY
Delta G
SciTegic.value.DoubleValue
3.757

@<SCITEGIC>MOL_PROPERTY
G
SciTegic.value.DoubleValue
61.905

@<SCITEGIC>MOL_PROPERTY
E
SciTegic.value.DoubleValue
24.233

@<SCITEGIC>MOL_PROPERTY
-TS
SciTegic.value.DoubleValue
37.672

@<SCITEGIC>MOL_PROPERTY
U+W
SciTegic.value.DoubleValue
0.088

@<SCITEGIC>MOL_PROPERTY
U
SciTegic.value.DoubleValue
52.242

@<SCITEGIC>MOL_PROPERTY
W
SciTegic.value.DoubleValue
-52.154

@<SCITEGIC>MOL_PROPERTY
W(PB)
SciTegic.value.DoubleValue
-54.645

@<SCITEGIC>MOL_PROPERTY
W(SA)
SciTegic.value.DoubleValue
2.491

@<SCITEGIC>MOL_PROPERTY
Valence
SciTegic.value.DoubleValue
5.714

@<SCITEGIC>MOL_PROPERTY
Coulomb
SciTegic.value.DoubleValue
45.680

@<SCITEGIC>MOL_PROPERTY
VdW
SciTegic.value.DoubleValue
0.848

@<SCITEGIC>MOL_PROPERTY
VdW6
SciTegic.value.DoubleValue
-9.170

@<SCITEGIC>MOL_PROPERTY
VdW12
SciTegic.value.DoubleValue
10.019

@<SCITEGIC>MOL_PROPERTY
Bond
SciTegic.value.DoubleValue
0.251

@<SCITEGIC>MOL_PROPERTY
Angle
SciTegic.value.DoubleValue
1.206

@<SCITEGIC>MOL_PROPERTY
Pdih
SciTegic.value.DoubleValue
4.257

@<SCITEGIC>MOL_PROPERTY
Idih
SciTegic.value.DoubleValue
0.000

@<SCITEGIC>MOL_PROPERTY
Tether
SciTegic.value.DoubleValue
0.000

@<TRIPOS>MOLECULE
guest-3_vm2.mol2 : vm2 ligand conformer 245
          29          28           1
SMALL
USER_CHARGES
 
@<TRIPOS>ATOM
       1    C1      21.431517   19.041964   20.593512 C.3        1 MOL1        -0.2427
       2    H1      22.128405   19.487604   21.315293 H          1 MOL1         0.0958
       3    H2      21.560822   17.952126   20.621256 H          1 MOL1         0.0958
       4    H3      21.715613   19.389744   19.591827 H          1 MOL1         0.0958
       5    C2      19.974043   19.435689   20.913848 C.3        1 MOL1        -0.1412
       6    H4      19.305316   19.004482   20.155745 H          1 MOL1         0.0947
       7    H5      19.867827   20.527519   20.846593 H          1 MOL1         0.0947
       8    C3      19.548665   18.956229   22.319148 C.3        1 MOL1        -0.1437
       9    H6      19.651081   17.864068   22.379999 H          1 MOL1         0.0947
      10    H7      20.229697   19.389680   23.062688 H          1 MOL1         0.0947
      11    C4      18.093018   19.360508   22.648395 C.3        1 MOL1        -0.1437
      12    H8      17.436932   19.030553   21.831102 H          1 MOL1         0.0947
      13    H9      18.016620   20.456193   22.677839 H          1 MOL1         0.0947
      14    C5      17.548494   18.770770   23.975044 C.3        1 MOL1        -0.1437
      15    H10     16.502934   19.093698   24.074747 H          1 MOL1         0.0947
      16    H11     17.514103   17.674291   23.914536 H          1 MOL1         0.0947
      17    C6      18.314808   19.217173   25.247461 C.3        1 MOL1        -0.1437
      18    H12     17.591215   19.329742   26.066826 H          1 MOL1         0.0947
      19    H13     18.750767   20.212332   25.088834 H          1 MOL1         0.0947
      20    C7      19.397834   18.204779   25.700215 C.3        1 MOL1        -0.1477
      21    H14     18.926482   17.229098   25.878073 H          1 MOL1         0.0947
      22    H15     20.143877   18.047034   24.913289 H          1 MOL1         0.0947
      23    C8      20.110362   18.640775   26.994593 C.3        1 MOL1         0.0145
      24    H16     20.789410   17.847971   27.319982 H          1 MOL1         0.0921
      25    H17     19.372206   18.803539   27.784534 H          1 MOL1         0.0921
      26    N1      20.925259   19.910114   26.842784 N.4        1 MOL1        -0.5969
      27    H18     20.339987   20.705570   26.569206 H          1 MOL1         0.3603
      28    H19     21.655687   19.810470   26.130348 H          1 MOL1         0.3603
      29    H20     21.393355   20.168314   27.718462 H          1 MOL1         0.3603
@<TRIPOS>BOND
    1     1     2    1
    2     1     3    1
    3     1     4    1
    4     1     5    1
    5     5     6    1
    6     5     7    1
    7     5     8    1
    8     8     9    1
    9     8    10    1
   10     8    11    1
   11    11    12    1
   12    11    13    1
   13    11    14    1
   14    14    15    1
   15    14    16    1
   16    14    17    1
   17    17    18    1
   18    17    19    1
   19    17    20    1
   20    20    21    1
   21    20    22    1
   22    20    23    1
   23    23    24    1
   24    23    25    1
   25    23    26    1
   26    26    27    1
   27    26    28    1
   28    26    29    1
@<TRIPOS>SUBSTRUCTURE
       1 MOL1            1 RESIDUE      1      MOL     
@<SCITEGIC>MOL_PROPERTY
VM2 Rank
SciTegic.value.IntegerValue
245

@<SCITEGIC>MOL_PROPERTY
Conf_Id
SciTegic.value.IntegerValue
1045

@<SCITEGIC>MOL_PROPERTY
Probability
SciTegic.value.DoubleValue
0.01

@<SCITEGIC>MOL_PROPERTY
Sum Probability
SciTegic.value.DoubleValue
99.41

@<SCITEGIC>MOL_PROPERTY
Delta G
SciTegic.value.DoubleValue
3.760

@<SCITEGIC>MOL_PROPERTY
G
SciTegic.value.DoubleValue
61.908

@<SCITEGIC>MOL_PROPERTY
E
SciTegic.value.DoubleValue
24.245

@<SCITEGIC>MOL_PROPERTY
-TS
SciTegic.value.DoubleValue
37.664

@<SCITEGIC>MOL_PROPERTY
U+W
SciTegic.value.DoubleValue
0.100

@<SCITEGIC>MOL_PROPERTY
U
SciTegic.value.DoubleValue
52.605

@<SCITEGIC>MOL_PROPERTY
W
SciTegic.value.DoubleValue
-52.505

@<SCITEGIC>MOL_PROPERTY
W(PB)
SciTegic.value.DoubleValue
-54.984

@<SCITEGIC>MOL_PROPERTY
W(SA)
SciTegic.value.DoubleValue
2.479

@<SCITEGIC>MOL_PROPERTY
Valence
SciTegic.value.DoubleValue
5.693

@<SCITEGIC>MOL_PROPERTY
Coulomb
SciTegic.value.DoubleValue
46.124

@<SCITEGIC>MOL_PROPERTY
VdW
SciTegic.value.DoubleValue
0.788

@<SCITEGIC>MOL_PROPERTY
VdW6
SciTegic.value.DoubleValue
-9.248

@<SCITEGIC>MOL_PROPERTY
VdW12
SciTegic.value.DoubleValue
10.037

@<SCITEGIC>MOL_PROPERTY
Bond
SciTegic.value.DoubleValue
0.257

@<SCITEGIC>MOL_PROPERTY
Angle
SciTegic.value.DoubleValue
1.229

@<SCITEGIC>MOL_PROPERTY
Pdih
SciTegic.value.DoubleValue
4.207

@<SCITEGIC>MOL_PROPERTY
Idih
SciTegic.value.DoubleValue
0.000

@<SCITEGIC>MOL_PROPERTY
Tether
SciTegic.value.DoubleValue
0.000

@<TRIPOS>MOLECULE
guest-3_vm2.mol2 : vm2 ligand conformer 246
          29          28           1
SMALL
USER_CHARGES
 
@<TRIPOS>ATOM
       1    C1      20.448522   17.529426   20.537080 C.3        1 MOL1        -0.2427
       2    H1      19.757068   17.450919   19.687995 H          1 MOL1         0.0958
       3    H2      21.336691   18.082679   20.204941 H          1 MOL1         0.0958
       4    H3      20.765541   16.514018   20.808102 H          1 MOL1         0.0958
       5    C2      19.776722   18.229036   21.737531 C.3        1 MOL1        -0.1412
       6    H4      20.486584   18.253339   22.574769 H          1 MOL1         0.0947
       7    H5      18.908379   17.639823   22.063482 H          1 MOL1         0.0947
       8    C3      19.331518   19.666266   21.383693 C.3        1 MOL1        -0.1437
       9    H6      20.215507   20.272608   21.142612 H          1 MOL1         0.0947
      10    H7      18.723521   19.636134   20.468977 H          1 MOL1         0.0947
      11    C4      18.508140   20.373956   22.490780 C.3        1 MOL1        -0.1437
      12    H8      17.567154   19.834199   22.664986 H          1 MOL1         0.0947
      13    H9      18.215670   21.360264   22.104730 H          1 MOL1         0.0947
      14    C5      19.264693   20.584153   23.828247 C.3        1 MOL1        -0.1437
      15    H10     20.344775   20.661631   23.642175 H          1 MOL1         0.0947
      16    H11     18.959907   21.551308   24.251523 H          1 MOL1         0.0947
      17    C6      18.973632   19.484661   24.878830 C.3        1 MOL1        -0.1437
      18    H12     19.220010   18.497915   24.471435 H          1 MOL1         0.0947
      19    H13     17.897902   19.471829   25.102689 H          1 MOL1         0.0947
      20    C7      19.765396   19.720265   26.186632 C.3        1 MOL1        -0.1477
      21    H14     20.844053   19.706009   25.981041 H          1 MOL1         0.0947
      22    H15     19.533926   20.720282   26.576941 H          1 MOL1         0.0947
      23    C8      19.436079   18.683022   27.277372 C.3        1 MOL1         0.0145
      24    H16     18.361451   18.688848   27.478673 H          1 MOL1         0.0921
      25    H17     19.957573   18.949759   28.200643 H          1 MOL1         0.0921
      26    N1      19.839298   17.267214   26.914835 N.4        1 MOL1        -0.5969
      27    H18     19.354825   16.938429   26.073864 H          1 MOL1         0.3603
      28    H19     19.619388   16.604904   27.666916 H          1 MOL1         0.3603
      29    H20     20.845951   17.192825   26.734857 H          1 MOL1         0.3603
@<TRIPOS>BOND
    1     1     2    1
    2     1     3    1
    3     1     4    1
    4     1     5    1
    5     5     6    1
    6     5     7    1
    7     5     8    1
    8     8     9    1
    9     8    10    1
   10     8    11    1
   11    11    12    1
   12    11    13    1
   13    11    14    1
   14    14    15    1
   15    14    16    1
   16    14    17    1
   17    17    18    1
   18    17    19    1
   19    17    20    1
   20    20    21    1
   21    20    22    1
   22    20    23    1
   23    23    24    1
   24    23    25    1
   25    23    26    1
   26    26    27    1
   27    26    28    1
   28    26    29    1
@<TRIPOS>SUBSTRUCTURE
       1 MOL1            1 RESIDUE      1      MOL     
@<SCITEGIC>MOL_PROPERTY
VM2 Rank
SciTegic.value.IntegerValue
246

@<SCITEGIC>MOL_PROPERTY
Conf_Id
SciTegic.value.IntegerValue
1207

@<SCITEGIC>MOL_PROPERTY
Probability
SciTegic.value.DoubleValue
0.01

@<SCITEGIC>MOL_PROPERTY
Sum Probability
SciTegic.value.DoubleValue
99.42

@<SCITEGIC>MOL_PROPERTY
Delta G
SciTegic.value.DoubleValue
3.772

@<SCITEGIC>MOL_PROPERTY
G
SciTegic.value.DoubleValue
61.920

@<SCITEGIC>MOL_PROPERTY
E
SciTegic.value.DoubleValue
24.243

@<SCITEGIC>MOL_PROPERTY
-TS
SciTegic.value.DoubleValue
37.677

@<SCITEGIC>MOL_PROPERTY
U+W
SciTegic.value.DoubleValue
0.098

@<SCITEGIC>MOL_PROPERTY
U
SciTegic.value.DoubleValue
52.544

@<SCITEGIC>MOL_PROPERTY
W
SciTegic.value.DoubleValue
-52.446

@<SCITEGIC>MOL_PROPERTY
W(PB)
SciTegic.value.DoubleValue
-54.904

@<SCITEGIC>MOL_PROPERTY
W(SA)
SciTegic.value.DoubleValue
2.458

@<SCITEGIC>MOL_PROPERTY
Valence
SciTegic.value.DoubleValue
5.714

@<SCITEGIC>MOL_PROPERTY
Coulomb
SciTegic.value.DoubleValue
45.984

@<SCITEGIC>MOL_PROPERTY
VdW
SciTegic.value.DoubleValue
0.847

@<SCITEGIC>MOL_PROPERTY
VdW6
SciTegic.value.DoubleValue
-9.182

@<SCITEGIC>MOL_PROPERTY
VdW12
SciTegic.value.DoubleValue
10.029

@<SCITEGIC>MOL_PROPERTY
Bond
SciTegic.value.DoubleValue
0.253

@<SCITEGIC>MOL_PROPERTY
Angle
SciTegic.value.DoubleValue
1.188

@<SCITEGIC>MOL_PROPERTY
Pdih
SciTegic.value.DoubleValue
4.272

@<SCITEGIC>MOL_PROPERTY
Idih
SciTegic.value.DoubleValue
0.000

@<SCITEGIC>MOL_PROPERTY
Tether
SciTegic.value.DoubleValue
0.000

@<TRIPOS>MOLECULE
guest-3_vm2.mol2 : vm2 ligand conformer 247
          29          28           1
SMALL
USER_CHARGES
 
@<TRIPOS>ATOM
       1    C1      20.152232   17.461727   21.355001 C.3        1 MOL1        -0.2427
       2    H1      21.130560   17.639725   21.819802 H          1 MOL1         0.0958
       3    H2      19.424326   17.238412   22.144686 H          1 MOL1         0.0958
       4    H3      20.237135   16.566671   20.725301 H          1 MOL1         0.0958
       5    C2      19.707622   18.675338   20.510004 C.3        1 MOL1        -0.1412
       6    H4      18.699291   18.492787   20.112974 H          1 MOL1         0.0947
       7    H5      20.368555   18.756760   19.635789 H          1 MOL1         0.0947
       8    C3      19.729786   20.026116   21.270041 C.3        1 MOL1        -0.1437
       9    H6      20.755382   20.267411   21.581498 H          1 MOL1         0.0947
      10    H7      19.444911   20.811272   20.556089 H          1 MOL1         0.0947
      11    C4      18.766123   20.103760   22.482781 C.3        1 MOL1        -0.1437
      12    H8      17.900918   19.446880   22.318377 H          1 MOL1         0.0947
      13    H9      18.365174   21.125005   22.543139 H          1 MOL1         0.0947
      14    C5      19.447698   19.772362   23.832811 C.3        1 MOL1        -0.1437
      15    H10     19.899971   18.775409   23.790730 H          1 MOL1         0.0947
      16    H11     20.268203   20.481554   24.008749 H          1 MOL1         0.0947
      17    C6      18.446724   19.842926   25.010704 C.3        1 MOL1        -0.1437
      18    H12     17.638247   19.115364   24.853877 H          1 MOL1         0.0947
      19    H13     17.973969   20.834729   25.024441 H          1 MOL1         0.0947
      20    C7      19.108339   19.589423   26.385581 C.3        1 MOL1        -0.1477
      21    H14     19.902148   20.329070   26.555226 H          1 MOL1         0.0947
      22    H15     18.360431   19.744059   27.174665 H          1 MOL1         0.0947
      23    C8      19.688270   18.168368   26.513776 C.3        1 MOL1         0.0145
      24    H16     20.467085   18.016719   25.762050 H          1 MOL1         0.0921
      25    H17     18.897984   17.431873   26.345267 H          1 MOL1         0.0921
      26    N1      20.297206   17.897981   27.874302 N.4        1 MOL1        -0.5969
      27    H18     21.066766   18.542695   28.083093 H          1 MOL1         0.3603
      28    H19     20.677370   16.947262   27.939554 H          1 MOL1         0.3603
      29    H20     19.608133   17.996449   28.627277 H          1 MOL1         0.3603
@<TRIPOS>BOND
    1     1     2    1
    2     1     3    1
    3     1     4    1
    4     1     5    1
    5     5     6    1
    6     5     7    1
    7     5     8    1
    8     8     9    1
    9     8    10    1
   10     8    11    1
   11    11    12    1
   12    11    13    1
   13    11    14    1
   14    14    15    1
   15    14    16    1
   16    14    17    1
   17    17    18    1
   18    17    19    1
   19    17    20    1
   20    20    21    1
   21    20    22    1
   22    20    23    1
   23    23    24    1
   24    23    25    1
   25    23    26    1
   26    26    27    1
   27    26    28    1
   28    26    29    1
@<TRIPOS>SUBSTRUCTURE
       1 MOL1            1 RESIDUE      1      MOL     
@<SCITEGIC>MOL_PROPERTY
VM2 Rank
SciTegic.value.IntegerValue
247

@<SCITEGIC>MOL_PROPERTY
Conf_Id
SciTegic.value.IntegerValue
1965

@<SCITEGIC>MOL_PROPERTY
Probability
SciTegic.value.DoubleValue
0.01

@<SCITEGIC>MOL_PROPERTY
Sum Probability
SciTegic.value.DoubleValue
99.43

@<SCITEGIC>MOL_PROPERTY
Delta G
SciTegic.value.DoubleValue
3.780

@<SCITEGIC>MOL_PROPERTY
G
SciTegic.value.DoubleValue
61.928

@<SCITEGIC>MOL_PROPERTY
E
SciTegic.value.DoubleValue
24.281

@<SCITEGIC>MOL_PROPERTY
-TS
SciTegic.value.DoubleValue
37.647

@<SCITEGIC>MOL_PROPERTY
U+W
SciTegic.value.DoubleValue
0.136

@<SCITEGIC>MOL_PROPERTY
U
SciTegic.value.DoubleValue
52.045

@<SCITEGIC>MOL_PROPERTY
W
SciTegic.value.DoubleValue
-51.908

@<SCITEGIC>MOL_PROPERTY
W(PB)
SciTegic.value.DoubleValue
-54.363

@<SCITEGIC>MOL_PROPERTY
W(SA)
SciTegic.value.DoubleValue
2.455

@<SCITEGIC>MOL_PROPERTY
Valence
SciTegic.value.DoubleValue
5.850

@<SCITEGIC>MOL_PROPERTY
Coulomb
SciTegic.value.DoubleValue
45.356

@<SCITEGIC>MOL_PROPERTY
VdW
SciTegic.value.DoubleValue
0.838

@<SCITEGIC>MOL_PROPERTY
VdW6
SciTegic.value.DoubleValue
-9.170

@<SCITEGIC>MOL_PROPERTY
VdW12
SciTegic.value.DoubleValue
10.009

@<SCITEGIC>MOL_PROPERTY
Bond
SciTegic.value.DoubleValue
0.253

@<SCITEGIC>MOL_PROPERTY
Angle
SciTegic.value.DoubleValue
1.262

@<SCITEGIC>MOL_PROPERTY
Pdih
SciTegic.value.DoubleValue
4.334

@<SCITEGIC>MOL_PROPERTY
Idih
SciTegic.value.DoubleValue
0.000

@<SCITEGIC>MOL_PROPERTY
Tether
SciTegic.value.DoubleValue
0.000

@<TRIPOS>MOLECULE
guest-3_vm2.mol2 : vm2 ligand conformer 248
          29          28           1
SMALL
USER_CHARGES
 
@<TRIPOS>ATOM
       1    C1      19.781799   19.969500   19.601046 C.3        1 MOL1        -0.2427
       2    H1      19.473271   19.051972   19.083162 H          1 MOL1         0.0958
       3    H2      19.406192   20.824684   19.024314 H          1 MOL1         0.0958
       4    H3      20.878722   20.013784   19.594064 H          1 MOL1         0.0958
       5    C2      19.234672   20.002664   21.043727 C.3        1 MOL1        -0.1412
       6    H4      18.136016   19.991199   21.017291 H          1 MOL1         0.0947
       7    H5      19.530647   20.945808   21.524108 H          1 MOL1         0.0947
       8    C3      19.748801   18.808445   21.877761 C.3        1 MOL1        -0.1437
       9    H6      19.453297   17.868422   21.391531 H          1 MOL1         0.0947
      10    H7      20.847302   18.823260   21.899951 H          1 MOL1         0.0947
      11    C4      19.202866   18.837945   23.323094 C.3        1 MOL1        -0.1437
      12    H8      18.104750   18.817730   23.296405 H          1 MOL1         0.0947
      13    H9      19.492717   19.784978   23.790873 H          1 MOL1         0.0947
      14    C5      19.721349   17.638930   24.154373 C.3        1 MOL1        -0.1437
      15    H10     19.447241   16.715550   23.625440 H          1 MOL1         0.0947
      16    H11     20.819223   17.649578   24.195385 H          1 MOL1         0.0947
      17    C6      19.136866   17.561277   25.589118 C.3        1 MOL1        -0.1437
      18    H12     19.129547   16.504631   25.890557 H          1 MOL1         0.0947
      19    H13     18.083429   17.871244   25.590955 H          1 MOL1         0.0947
      20    C7      19.940289   18.338964   26.665541 C.3        1 MOL1        -0.1477
      21    H14     19.518198   18.114802   27.654182 H          1 MOL1         0.0947
      22    H15     20.972290   17.964460   26.686643 H          1 MOL1         0.0947
      23    C8      19.974769   19.868149   26.482500 C.3        1 MOL1         0.0145
      24    H16     20.463159   20.117718   25.538022 H          1 MOL1         0.0921
      25    H17     20.559501   20.315366   27.290911 H          1 MOL1         0.0921
      26    N1      18.602588   20.512126   26.497841 N.4        1 MOL1        -0.5969
      27    H18     18.008193   20.147236   25.747245 H          1 MOL1         0.3603
      28    H19     18.657058   21.529391   26.377011 H          1 MOL1         0.3603
      29    H20     18.113912   20.340722   27.382746 H          1 MOL1         0.3603
@<TRIPOS>BOND
    1     1     2    1
    2     1     3    1
    3     1     4    1
    4     1     5    1
    5     5     6    1
    6     5     7    1
    7     5     8    1
    8     8     9    1
    9     8    10    1
   10     8    11    1
   11    11    12    1
   12    11    13    1
   13    11    14    1
   14    14    15    1
   15    14    16    1
   16    14    17    1
   17    17    18    1
   18    17    19    1
   19    17    20    1
   20    20    21    1
   21    20    22    1
   22    20    23    1
   23    23    24    1
   24    23    25    1
   25    23    26    1
   26    26    27    1
   27    26    28    1
   28    26    29    1
@<TRIPOS>SUBSTRUCTURE
       1 MOL1            1 RESIDUE      1      MOL     
@<SCITEGIC>MOL_PROPERTY
VM2 Rank
SciTegic.value.IntegerValue
248

@<SCITEGIC>MOL_PROPERTY
Conf_Id
SciTegic.value.IntegerValue
2523

@<SCITEGIC>MOL_PROPERTY
Probability
SciTegic.value.DoubleValue
0.01

@<SCITEGIC>MOL_PROPERTY
Sum Probability
SciTegic.value.DoubleValue
99.44

@<SCITEGIC>MOL_PROPERTY
Delta G
SciTegic.value.DoubleValue
3.796

@<SCITEGIC>MOL_PROPERTY
G
SciTegic.value.DoubleValue
61.944

@<SCITEGIC>MOL_PROPERTY
E
SciTegic.value.DoubleValue
24.237

@<SCITEGIC>MOL_PROPERTY
-TS
SciTegic.value.DoubleValue
37.707

@<SCITEGIC>MOL_PROPERTY
U+W
SciTegic.value.DoubleValue
0.092

@<SCITEGIC>MOL_PROPERTY
U
SciTegic.value.DoubleValue
52.436

@<SCITEGIC>MOL_PROPERTY
W
SciTegic.value.DoubleValue
-52.344

@<SCITEGIC>MOL_PROPERTY
W(PB)
SciTegic.value.DoubleValue
-54.823

@<SCITEGIC>MOL_PROPERTY
W(SA)
SciTegic.value.DoubleValue
2.479

@<SCITEGIC>MOL_PROPERTY
Valence
SciTegic.value.DoubleValue
5.286

@<SCITEGIC>MOL_PROPERTY
Coulomb
SciTegic.value.DoubleValue
46.570

@<SCITEGIC>MOL_PROPERTY
VdW
SciTegic.value.DoubleValue
0.581

@<SCITEGIC>MOL_PROPERTY
VdW6
SciTegic.value.DoubleValue
-9.434

@<SCITEGIC>MOL_PROPERTY
VdW12
SciTegic.value.DoubleValue
10.015

@<SCITEGIC>MOL_PROPERTY
Bond
SciTegic.value.DoubleValue
0.255

@<SCITEGIC>MOL_PROPERTY
Angle
SciTegic.value.DoubleValue
1.437

@<SCITEGIC>MOL_PROPERTY
Pdih
SciTegic.value.DoubleValue
3.594

@<SCITEGIC>MOL_PROPERTY
Idih
SciTegic.value.DoubleValue
0.000

@<SCITEGIC>MOL_PROPERTY
Tether
SciTegic.value.DoubleValue
0.000

@<TRIPOS>MOLECULE
guest-3_vm2.mol2 : vm2 ligand conformer 249
          29          28           1
SMALL
USER_CHARGES
 
@<TRIPOS>ATOM
       1    C1      20.934543   19.848131   20.070165 C.3        1 MOL1        -0.2427
       2    H1      21.665195   20.322149   20.738507 H          1 MOL1         0.0958
       3    H2      21.345957   18.884721   19.741801 H          1 MOL1         0.0958
       4    H3      20.823985   20.486930   19.184302 H          1 MOL1         0.0958
       5    C2      19.576334   19.658696   20.778141 C.3        1 MOL1        -0.1412
       6    H4      18.857388   19.215023   20.075181 H          1 MOL1         0.0947
       7    H5      19.174817   20.640734   21.064909 H          1 MOL1         0.0947
       8    C3      19.703802   18.762326   22.029498 C.3        1 MOL1        -0.1437
       9    H6      20.106003   17.782949   21.735727 H          1 MOL1         0.0947
      10    H7      20.433374   19.204756   22.717993 H          1 MOL1         0.0947
      11    C4      18.340220   18.565297   22.736150 C.3        1 MOL1        -0.1437
      12    H8      17.655381   18.079485   22.027332 H          1 MOL1         0.0947
      13    H9      17.887627   19.537124   22.976588 H          1 MOL1         0.0947
      14    C5      18.429230   17.688322   24.012242 C.3        1 MOL1        -0.1437
      15    H10     17.522504   17.069933   24.065884 H          1 MOL1         0.0947
      16    H11     19.265081   16.979858   23.930773 H          1 MOL1         0.0947
      17    C6      18.531170   18.481954   25.340475 C.3        1 MOL1        -0.1437
      18    H12     18.515332   17.759879   26.167346 H          1 MOL1         0.0947
      19    H13     17.634582   19.105479   25.461920 H          1 MOL1         0.0947
      20    C7      19.793024   19.371242   25.457064 C.3        1 MOL1        -0.1477
      21    H14     20.695291   18.774496   25.268778 H          1 MOL1         0.0947
      22    H15     19.760315   20.154326   24.689517 H          1 MOL1         0.0947
      23    C8      19.909317   20.061742   26.829626 C.3        1 MOL1         0.0145
      24    H16     19.000547   20.635024   27.031794 H          1 MOL1         0.0921
      25    H17     20.754194   20.755647   26.815256 H          1 MOL1         0.0921
      26    N1      20.126359   19.100291   27.981639 N.4        1 MOL1        -0.5969
      27    H18     19.348531   18.439921   28.076595 H          1 MOL1         0.3603
      28    H19     20.213394   19.592929   28.877352 H          1 MOL1         0.3603
      29    H20     20.980852   18.546967   27.859482 H          1 MOL1         0.3603
@<TRIPOS>BOND
    1     1     2    1
    2     1     3    1
    3     1     4    1
    4     1     5    1
    5     5     6    1
    6     5     7    1
    7     5     8    1
    8     8     9    1
    9     8    10    1
   10     8    11    1
   11    11    12    1
   12    11    13    1
   13    11    14    1
   14    14    15    1
   15    14    16    1
   16    14    17    1
   17    17    18    1
   18    17    19    1
   19    17    20    1
   20    20    21    1
   21    20    22    1
   22    20    23    1
   23    23    24    1
   24    23    25    1
   25    23    26    1
   26    26    27    1
   27    26    28    1
   28    26    29    1
@<TRIPOS>SUBSTRUCTURE
       1 MOL1            1 RESIDUE      1      MOL     
@<SCITEGIC>MOL_PROPERTY
VM2 Rank
SciTegic.value.IntegerValue
249

@<SCITEGIC>MOL_PROPERTY
Conf_Id
SciTegic.value.IntegerValue
1648

@<SCITEGIC>MOL_PROPERTY
Probability
SciTegic.value.DoubleValue
0.01

@<SCITEGIC>MOL_PROPERTY
Sum Probability
SciTegic.value.DoubleValue
99.45

@<SCITEGIC>MOL_PROPERTY
Delta G
SciTegic.value.DoubleValue
3.806

@<SCITEGIC>MOL_PROPERTY
G
SciTegic.value.DoubleValue
61.954

@<SCITEGIC>MOL_PROPERTY
E
SciTegic.value.DoubleValue
24.286

@<SCITEGIC>MOL_PROPERTY
-TS
SciTegic.value.DoubleValue
37.668

@<SCITEGIC>MOL_PROPERTY
U+W
SciTegic.value.DoubleValue
0.141

@<SCITEGIC>MOL_PROPERTY
U
SciTegic.value.DoubleValue
51.913

@<SCITEGIC>MOL_PROPERTY
W
SciTegic.value.DoubleValue
-51.772

@<SCITEGIC>MOL_PROPERTY
W(PB)
SciTegic.value.DoubleValue
-54.285

@<SCITEGIC>MOL_PROPERTY
W(SA)
SciTegic.value.DoubleValue
2.513

@<SCITEGIC>MOL_PROPERTY
Valence
SciTegic.value.DoubleValue
5.756

@<SCITEGIC>MOL_PROPERTY
Coulomb
SciTegic.value.DoubleValue
45.246

@<SCITEGIC>MOL_PROPERTY
VdW
SciTegic.value.DoubleValue
0.911

@<SCITEGIC>MOL_PROPERTY
VdW6
SciTegic.value.DoubleValue
-9.117

@<SCITEGIC>MOL_PROPERTY
VdW12
SciTegic.value.DoubleValue
10.028

@<SCITEGIC>MOL_PROPERTY
Bond
SciTegic.value.DoubleValue
0.256

@<SCITEGIC>MOL_PROPERTY
Angle
SciTegic.value.DoubleValue
1.222

@<SCITEGIC>MOL_PROPERTY
Pdih
SciTegic.value.DoubleValue
4.278

@<SCITEGIC>MOL_PROPERTY
Idih
SciTegic.value.DoubleValue
0.000

@<SCITEGIC>MOL_PROPERTY
Tether
SciTegic.value.DoubleValue
0.000

@<TRIPOS>MOLECULE
guest-3_vm2.mol2 : vm2 ligand conformer 250
          29          28           1
SMALL
USER_CHARGES
 
@<TRIPOS>ATOM
       1    C1      21.104122   19.104579   20.938868 C.3        1 MOL1        -0.2427
       2    H1      21.454463   18.208270   21.466836 H          1 MOL1         0.0958
       3    H2      21.822317   19.325776   20.138791 H          1 MOL1         0.0958
       4    H3      21.120351   19.951037   21.636374 H          1 MOL1         0.0958
       5    C2      19.692211   18.889453   20.351876 C.3        1 MOL1        -0.1412
       6    H4      19.757567   18.153501   19.538354 H          1 MOL1         0.0947
       7    H5      19.343713   19.823591   19.889682 H          1 MOL1         0.0947
       8    C3      18.641849   18.394493   21.378682 C.3        1 MOL1        -0.1437
       9    H6      17.700740   18.231539   20.835440 H          1 MOL1         0.0947
      10    H7      18.931602   17.409752   21.770311 H          1 MOL1         0.0947
      11    C4      18.361506   19.377314   22.545312 C.3        1 MOL1        -0.1437
      12    H8      17.296078   19.311912   22.805990 H          1 MOL1         0.0947
      13    H9      18.530384   20.411335   22.214629 H          1 MOL1         0.0947
      14    C5      19.188177   19.074176   23.818862 C.3        1 MOL1        -0.1437
      15    H10     18.962932   18.053814   24.156355 H          1 MOL1         0.0947
      16    H11     20.260701   19.099744   23.593224 H          1 MOL1         0.0947
      17    C6      18.881178   20.081932   24.952272 C.3        1 MOL1        -0.1437
      18    H12     17.815938   20.029671   25.217037 H          1 MOL1         0.0947
      19    H13     19.060837   21.102282   24.586248 H          1 MOL1         0.0947
      20    C7      19.739263   19.851478   26.218309 C.3        1 MOL1        -0.1477
      21    H14     20.804151   19.929814   25.961635 H          1 MOL1         0.0947
      22    H15     19.530195   20.651516   26.940913 H          1 MOL1         0.0947
      23    C8      19.465546   18.489238   26.882590 C.3        1 MOL1         0.0145
      24    H16     19.712479   17.682174   26.188088 H          1 MOL1         0.0921
      25    H17     18.405610   18.411368   27.139180 H          1 MOL1         0.0921
      26    N1      20.270148   18.275337   28.148230 N.4        1 MOL1        -0.5969
      27    H18     20.063708   18.987351   28.856688 H          1 MOL1         0.3603
      28    H19     21.279277   18.310653   27.969681 H          1 MOL1         0.3603
      29    H20     20.073631   17.363281   28.575081 H          1 MOL1         0.3603
@<TRIPOS>BOND
    1     1     2    1
    2     1     3    1
    3     1     4    1
    4     1     5    1
    5     5     6    1
    6     5     7    1
    7     5     8    1
    8     8     9    1
    9     8    10    1
   10     8    11    1
   11    11    12    1
   12    11    13    1
   13    11    14    1
   14    14    15    1
   15    14    16    1
   16    14    17    1
   17    17    18    1
   18    17    19    1
   19    17    20    1
   20    20    21    1
   21    20    22    1
   22    20    23    1
   23    23    24    1
   24    23    25    1
   25    23    26    1
   26    26    27    1
   27    26    28    1
   28    26    29    1
@<TRIPOS>SUBSTRUCTURE
       1 MOL1            1 RESIDUE      1      MOL     
@<SCITEGIC>MOL_PROPERTY
VM2 Rank
SciTegic.value.IntegerValue
250

@<SCITEGIC>MOL_PROPERTY
Conf_Id
SciTegic.value.IntegerValue
1019

@<SCITEGIC>MOL_PROPERTY
Probability
SciTegic.value.DoubleValue
0.01

@<SCITEGIC>MOL_PROPERTY
Sum Probability
SciTegic.value.DoubleValue
99.46

@<SCITEGIC>MOL_PROPERTY
Delta G
SciTegic.value.DoubleValue
3.823

@<SCITEGIC>MOL_PROPERTY
G
SciTegic.value.DoubleValue
61.971

@<SCITEGIC>MOL_PROPERTY
E
SciTegic.value.DoubleValue
24.335

@<SCITEGIC>MOL_PROPERTY
-TS
SciTegic.value.DoubleValue
37.636

@<SCITEGIC>MOL_PROPERTY
U+W
SciTegic.value.DoubleValue
0.191

@<SCITEGIC>MOL_PROPERTY
U
SciTegic.value.DoubleValue
51.875

@<SCITEGIC>MOL_PROPERTY
W
SciTegic.value.DoubleValue
-51.684

@<SCITEGIC>MOL_PROPERTY
W(PB)
SciTegic.value.DoubleValue
-54.171

@<SCITEGIC>MOL_PROPERTY
W(SA)
SciTegic.value.DoubleValue
2.486

@<SCITEGIC>MOL_PROPERTY
Valence
SciTegic.value.DoubleValue
5.853

@<SCITEGIC>MOL_PROPERTY
Coulomb
SciTegic.value.DoubleValue
45.145

@<SCITEGIC>MOL_PROPERTY
VdW
SciTegic.value.DoubleValue
0.877

@<SCITEGIC>MOL_PROPERTY
VdW6
SciTegic.value.DoubleValue
-9.103

@<SCITEGIC>MOL_PROPERTY
VdW12
SciTegic.value.DoubleValue
9.980

@<SCITEGIC>MOL_PROPERTY
Bond
SciTegic.value.DoubleValue
0.252

@<SCITEGIC>MOL_PROPERTY
Angle
SciTegic.value.DoubleValue
1.282

@<SCITEGIC>MOL_PROPERTY
Pdih
SciTegic.value.DoubleValue
4.319

@<SCITEGIC>MOL_PROPERTY
Idih
SciTegic.value.DoubleValue
0.000

@<SCITEGIC>MOL_PROPERTY
Tether
SciTegic.value.DoubleValue
0.000

@<TRIPOS>MOLECULE
guest-3_vm2.mol2 : vm2 ligand conformer 251
          29          28           1
SMALL
USER_CHARGES
 
@<TRIPOS>ATOM
       1    C1      20.509009   17.928002   20.173933 C.3        1 MOL1        -0.2427
       2    H1      20.187258   16.975259   19.733723 H          1 MOL1         0.0958
       3    H2      20.745475   18.616239   19.351955 H          1 MOL1         0.0958
       4    H3      21.430602   17.743154   20.741127 H          1 MOL1         0.0958
       5    C2      19.405599   18.508216   21.083575 C.3        1 MOL1        -0.1412
       6    H4      19.164484   17.778131   21.865332 H          1 MOL1         0.0947
       7    H5      18.488478   18.649377   20.494795 H          1 MOL1         0.0947
       8    C3      19.833166   19.858505   21.707538 C.3        1 MOL1        -0.1437
       9    H6      20.781245   19.746501   22.251306 H          1 MOL1         0.0947
      10    H7      20.035055   20.563214   20.888988 H          1 MOL1         0.0947
      11    C4      18.756519   20.480186   22.634911 C.3        1 MOL1        -0.1437
      12    H8      17.751585   20.177232   22.310179 H          1 MOL1         0.0947
      13    H9      18.789753   21.571659   22.512577 H          1 MOL1         0.0947
      14    C5      18.945350   20.175136   24.143275 C.3        1 MOL1        -0.1437
      15    H10     19.913291   20.577109   24.471545 H          1 MOL1         0.0947
      16    H11     18.178082   20.726550   24.704078 H          1 MOL1         0.0947
      17    C6      18.850893   18.672877   24.505488 C.3        1 MOL1        -0.1437
      18    H12     19.700926   18.130570   24.070956 H          1 MOL1         0.0947
      19    H13     17.940398   18.248643   24.060500 H          1 MOL1         0.0947
      20    C7      18.822650   18.420576   26.031076 C.3        1 MOL1        -0.1477
      21    H14     17.956256   18.929886   26.473730 H          1 MOL1         0.0947
      22    H15     18.682624   17.346633   26.212605 H          1 MOL1         0.0947
      23    C8      20.111638   18.886813   26.733124 C.3        1 MOL1         0.0145
      24    H16     20.240107   19.963326   26.593827 H          1 MOL1         0.0921
      25    H17     20.974107   18.377024   26.295380 H          1 MOL1         0.0921
      26    N1      20.109176   18.607690   28.222079 N.4        1 MOL1        -0.5969
      27    H18     19.334582   19.081955   28.698049 H          1 MOL1         0.3603
      28    H19     20.975400   18.925460   28.670776 H          1 MOL1         0.3603
      29    H20     20.018886   17.606130   28.422572 H          1 MOL1         0.3603
@<TRIPOS>BOND
    1     1     2    1
    2     1     3    1
    3     1     4    1
    4     1     5    1
    5     5     6    1
    6     5     7    1
    7     5     8    1
    8     8     9    1
    9     8    10    1
   10     8    11    1
   11    11    12    1
   12    11    13    1
   13    11    14    1
   14    14    15    1
   15    14    16    1
   16    14    17    1
   17    17    18    1
   18    17    19    1
   19    17    20    1
   20    20    21    1
   21    20    22    1
   22    20    23    1
   23    23    24    1
   24    23    25    1
   25    23    26    1
   26    26    27    1
   27    26    28    1
   28    26    29    1
@<TRIPOS>SUBSTRUCTURE
       1 MOL1            1 RESIDUE      1      MOL     
@<SCITEGIC>MOL_PROPERTY
VM2 Rank
SciTegic.value.IntegerValue
251

@<SCITEGIC>MOL_PROPERTY
Conf_Id
SciTegic.value.IntegerValue
1963

@<SCITEGIC>MOL_PROPERTY
Probability
SciTegic.value.DoubleValue
0.01

@<SCITEGIC>MOL_PROPERTY
Sum Probability
SciTegic.value.DoubleValue
99.46

@<SCITEGIC>MOL_PROPERTY
Delta G
SciTegic.value.DoubleValue
3.826

@<SCITEGIC>MOL_PROPERTY
G
SciTegic.value.DoubleValue
61.974

@<SCITEGIC>MOL_PROPERTY
E
SciTegic.value.DoubleValue
24.308

@<SCITEGIC>MOL_PROPERTY
-TS
SciTegic.value.DoubleValue
37.667

@<SCITEGIC>MOL_PROPERTY
U+W
SciTegic.value.DoubleValue
0.163

@<SCITEGIC>MOL_PROPERTY
U
SciTegic.value.DoubleValue
51.913

@<SCITEGIC>MOL_PROPERTY
W
SciTegic.value.DoubleValue
-51.750

@<SCITEGIC>MOL_PROPERTY
W(PB)
SciTegic.value.DoubleValue
-54.232

@<SCITEGIC>MOL_PROPERTY
W(SA)
SciTegic.value.DoubleValue
2.482

@<SCITEGIC>MOL_PROPERTY
Valence
SciTegic.value.DoubleValue
5.891

@<SCITEGIC>MOL_PROPERTY
Coulomb
SciTegic.value.DoubleValue
45.203

@<SCITEGIC>MOL_PROPERTY
VdW
SciTegic.value.DoubleValue
0.819

@<SCITEGIC>MOL_PROPERTY
VdW6
SciTegic.value.DoubleValue
-9.200

@<SCITEGIC>MOL_PROPERTY
VdW12
SciTegic.value.DoubleValue
10.020

@<SCITEGIC>MOL_PROPERTY
Bond
SciTegic.value.DoubleValue
0.252

@<SCITEGIC>MOL_PROPERTY
Angle
SciTegic.value.DoubleValue
1.265

@<SCITEGIC>MOL_PROPERTY
Pdih
SciTegic.value.DoubleValue
4.374

@<SCITEGIC>MOL_PROPERTY
Idih
SciTegic.value.DoubleValue
0.000

@<SCITEGIC>MOL_PROPERTY
Tether
SciTegic.value.DoubleValue
0.000

@<TRIPOS>MOLECULE
guest-3_vm2.mol2 : vm2 ligand conformer 252
          29          28           1
SMALL
USER_CHARGES
 
@<TRIPOS>ATOM
       1    C1      21.045974   19.435154   20.207473 C.3        1 MOL1        -0.2427
       2    H1      21.868939   18.973394   20.768467 H          1 MOL1         0.0958
       3    H2      20.805765   18.785482   19.355734 H          1 MOL1         0.0958
       4    H3      21.404964   20.393268   19.809768 H          1 MOL1         0.0958
       5    C2      19.811548   19.647514   21.108978 C.3        1 MOL1        -0.1412
       6    H4      19.019985   20.141162   20.528084 H          1 MOL1         0.0947
       7    H5      20.075169   20.334046   21.922298 H          1 MOL1         0.0947
       8    C3      19.280683   18.307563   21.673007 C.3        1 MOL1        -0.1437
       9    H6      19.003355   17.666859   20.824485 H          1 MOL1         0.0947
      10    H7      20.078405   17.773625   22.207455 H          1 MOL1         0.0947
      11    C4      18.040410   18.470188   22.590043 C.3        1 MOL1        -0.1437
      12    H8      17.378050   17.609304   22.424086 H          1 MOL1         0.0947
      13    H9      17.457853   19.352663   22.291733 H          1 MOL1         0.0947
      14    C5      18.358142   18.527208   24.106506 C.3        1 MOL1        -0.1437
      15    H10     17.407195   18.563138   24.655747 H          1 MOL1         0.0947
      16    H11     18.849452   17.591359   24.404927 H          1 MOL1         0.0947
      17    C6      19.229235   19.735250   24.529274 C.3        1 MOL1        -0.1437
      18    H12     18.798079   20.656655   24.114417 H          1 MOL1         0.0947
      19    H13     20.236727   19.635038   24.104555 H          1 MOL1         0.0947
      20    C7      19.345354   19.887824   26.063912 C.3        1 MOL1        -0.1477
      21    H14     19.913026   20.800300   26.289845 H          1 MOL1         0.0947
      22    H15     18.345927   20.023621   26.498288 H          1 MOL1         0.0947
      23    C8      20.039599   18.684473   26.728524 C.3        1 MOL1         0.0145
      24    H16     21.036250   18.551406   26.299181 H          1 MOL1         0.0921
      25    H17     19.460801   17.775625   26.544744 H          1 MOL1         0.0921
      26    N1      20.193057   18.842828   28.227284 N.4        1 MOL1        -0.5969
      27    H18     20.753175   19.667118   28.468704 H          1 MOL1         0.3603
      28    H19     20.657152   18.031625   28.650624 H          1 MOL1         0.3603
      29    H20     19.286403   18.946281   28.694990 H          1 MOL1         0.3603
@<TRIPOS>BOND
    1     1     2    1
    2     1     3    1
    3     1     4    1
    4     1     5    1
    5     5     6    1
    6     5     7    1
    7     5     8    1
    8     8     9    1
    9     8    10    1
   10     8    11    1
   11    11    12    1
   12    11    13    1
   13    11    14    1
   14    14    15    1
   15    14    16    1
   16    14    17    1
   17    17    18    1
   18    17    19    1
   19    17    20    1
   20    20    21    1
   21    20    22    1
   22    20    23    1
   23    23    24    1
   24    23    25    1
   25    23    26    1
   26    26    27    1
   27    26    28    1
   28    26    29    1
@<TRIPOS>SUBSTRUCTURE
       1 MOL1            1 RESIDUE      1      MOL     
@<SCITEGIC>MOL_PROPERTY
VM2 Rank
SciTegic.value.IntegerValue
252

@<SCITEGIC>MOL_PROPERTY
Conf_Id
SciTegic.value.IntegerValue
1296

@<SCITEGIC>MOL_PROPERTY
Probability
SciTegic.value.DoubleValue
0.01

@<SCITEGIC>MOL_PROPERTY
Sum Probability
SciTegic.value.DoubleValue
99.47

@<SCITEGIC>MOL_PROPERTY
Delta G
SciTegic.value.DoubleValue
3.832

@<SCITEGIC>MOL_PROPERTY
G
SciTegic.value.DoubleValue
61.980

@<SCITEGIC>MOL_PROPERTY
E
SciTegic.value.DoubleValue
24.313

@<SCITEGIC>MOL_PROPERTY
-TS
SciTegic.value.DoubleValue
37.666

@<SCITEGIC>MOL_PROPERTY
U+W
SciTegic.value.DoubleValue
0.169

@<SCITEGIC>MOL_PROPERTY
U
SciTegic.value.DoubleValue
51.913

@<SCITEGIC>MOL_PROPERTY
W
SciTegic.value.DoubleValue
-51.744

@<SCITEGIC>MOL_PROPERTY
W(PB)
SciTegic.value.DoubleValue
-54.214

@<SCITEGIC>MOL_PROPERTY
W(SA)
SciTegic.value.DoubleValue
2.470

@<SCITEGIC>MOL_PROPERTY
Valence
SciTegic.value.DoubleValue
5.891

@<SCITEGIC>MOL_PROPERTY
Coulomb
SciTegic.value.DoubleValue
45.203

@<SCITEGIC>MOL_PROPERTY
VdW
SciTegic.value.DoubleValue
0.819

@<SCITEGIC>MOL_PROPERTY
VdW6
SciTegic.value.DoubleValue
-9.200

@<SCITEGIC>MOL_PROPERTY
VdW12
SciTegic.value.DoubleValue
10.020

@<SCITEGIC>MOL_PROPERTY
Bond
SciTegic.value.DoubleValue
0.252

@<SCITEGIC>MOL_PROPERTY
Angle
SciTegic.value.DoubleValue
1.264

@<SCITEGIC>MOL_PROPERTY
Pdih
SciTegic.value.DoubleValue
4.374

@<SCITEGIC>MOL_PROPERTY
Idih
SciTegic.value.DoubleValue
0.000

@<SCITEGIC>MOL_PROPERTY
Tether
SciTegic.value.DoubleValue
0.000

@<TRIPOS>MOLECULE
guest-3_vm2.mol2 : vm2 ligand conformer 253
          29          28           1
SMALL
USER_CHARGES
 
@<TRIPOS>ATOM
       1    C1      20.127397   17.277168   20.732971 C.3        1 MOL1        -0.2427
       2    H1      21.070596   17.107401   21.268458 H          1 MOL1         0.0958
       3    H2      19.625992   16.307487   20.617508 H          1 MOL1         0.0958
       4    H3      20.366597   17.654431   19.730129 H          1 MOL1         0.0958
       5    C2      19.226317   18.268893   21.498493 C.3        1 MOL1        -0.1412
       6    H4      18.971589   17.842135   22.475918 H          1 MOL1         0.0947
       7    H5      18.278751   18.390338   20.955269 H          1 MOL1         0.0947
       8    C3      19.908357   19.648498   21.663202 C.3        1 MOL1        -0.1437
       9    H6      20.890587   19.536534   22.142542 H          1 MOL1         0.0947
      10    H7      20.105284   20.053215   20.660794 H          1 MOL1         0.0947
      11    C4      19.046495   20.673195   22.446006 C.3        1 MOL1        -0.1437
      12    H8      17.978148   20.455400   22.310549 H          1 MOL1         0.0947
      13    H9      19.204599   21.664795   21.999793 H          1 MOL1         0.0947
      14    C5      19.380824   20.783132   23.956113 C.3        1 MOL1        -0.1437
      15    H10     20.422878   21.110513   24.075460 H          1 MOL1         0.0947
      16    H11     18.759006   21.579155   24.388515 H          1 MOL1         0.0947
      17    C6      19.157930   19.478436   24.755503 C.3        1 MOL1        -0.1437
      18    H12     19.859864   18.712491   24.403333 H          1 MOL1         0.0947
      19    H13     18.142449   19.102032   24.570090 H          1 MOL1         0.0947
      20    C7      19.357552   19.695447   26.274060 C.3        1 MOL1        -0.1477
      21    H14     20.377827   20.049817   26.472695 H          1 MOL1         0.0947
      22    H15     18.678113   20.485073   26.621580 H          1 MOL1         0.0947
      23    C8      19.085379   18.421996   27.097665 C.3        1 MOL1         0.0145
      24    H16     18.073234   18.061670   26.894910 H          1 MOL1         0.0921
      25    H17     19.156813   18.657064   28.163112 H          1 MOL1         0.0921
      26    N1      20.053750   17.291234   26.810987 N.4        1 MOL1        -0.5969
      27    H18     21.023220   17.562637   27.005387 H          1 MOL1         0.3603
      28    H19     20.011810   16.995151   25.830875 H          1 MOL1         0.3603
      29    H20     19.853203   16.464261   27.384164 H          1 MOL1         0.3603
@<TRIPOS>BOND
    1     1     2    1
    2     1     3    1
    3     1     4    1
    4     1     5    1
    5     5     6    1
    6     5     7    1
    7     5     8    1
    8     8     9    1
    9     8    10    1
   10     8    11    1
   11    11    12    1
   12    11    13    1
   13    11    14    1
   14    14    15    1
   15    14    16    1
   16    14    17    1
   17    17    18    1
   18    17    19    1
   19    17    20    1
   20    20    21    1
   21    20    22    1
   22    20    23    1
   23    23    24    1
   24    23    25    1
   25    23    26    1
   26    26    27    1
   27    26    28    1
   28    26    29    1
@<TRIPOS>SUBSTRUCTURE
       1 MOL1            1 RESIDUE      1      MOL     
@<SCITEGIC>MOL_PROPERTY
VM2 Rank
SciTegic.value.IntegerValue
253

@<SCITEGIC>MOL_PROPERTY
Conf_Id
SciTegic.value.IntegerValue
2259

@<SCITEGIC>MOL_PROPERTY
Probability
SciTegic.value.DoubleValue
0.01

@<SCITEGIC>MOL_PROPERTY
Sum Probability
SciTegic.value.DoubleValue
99.48

@<SCITEGIC>MOL_PROPERTY
Delta G
SciTegic.value.DoubleValue
3.844

@<SCITEGIC>MOL_PROPERTY
G
SciTegic.value.DoubleValue
61.992

@<SCITEGIC>MOL_PROPERTY
E
SciTegic.value.DoubleValue
24.307

@<SCITEGIC>MOL_PROPERTY
-TS
SciTegic.value.DoubleValue
37.684

@<SCITEGIC>MOL_PROPERTY
U+W
SciTegic.value.DoubleValue
0.163

@<SCITEGIC>MOL_PROPERTY
U
SciTegic.value.DoubleValue
52.464

@<SCITEGIC>MOL_PROPERTY
W
SciTegic.value.DoubleValue
-52.301

@<SCITEGIC>MOL_PROPERTY
W(PB)
SciTegic.value.DoubleValue
-54.765

@<SCITEGIC>MOL_PROPERTY
W(SA)
SciTegic.value.DoubleValue
2.464

@<SCITEGIC>MOL_PROPERTY
Valence
SciTegic.value.DoubleValue
5.708

@<SCITEGIC>MOL_PROPERTY
Coulomb
SciTegic.value.DoubleValue
45.915

@<SCITEGIC>MOL_PROPERTY
VdW
SciTegic.value.DoubleValue
0.842

@<SCITEGIC>MOL_PROPERTY
VdW6
SciTegic.value.DoubleValue
-9.210

@<SCITEGIC>MOL_PROPERTY
VdW12
SciTegic.value.DoubleValue
10.052

@<SCITEGIC>MOL_PROPERTY
Bond
SciTegic.value.DoubleValue
0.252

@<SCITEGIC>MOL_PROPERTY
Angle
SciTegic.value.DoubleValue
1.191

@<SCITEGIC>MOL_PROPERTY
Pdih
SciTegic.value.DoubleValue
4.265

@<SCITEGIC>MOL_PROPERTY
Idih
SciTegic.value.DoubleValue
0.000

@<SCITEGIC>MOL_PROPERTY
Tether
SciTegic.value.DoubleValue
0.000

@<TRIPOS>MOLECULE
guest-3_vm2.mol2 : vm2 ligand conformer 254
          29          28           1
SMALL
USER_CHARGES
 
@<TRIPOS>ATOM
       1    C1      20.330490   17.586846   20.453823 C.3        1 MOL1        -0.2427
       2    H1      21.407825   17.796690   20.477420 H          1 MOL1         0.0958
       3    H2      20.196791   16.500090   20.531905 H          1 MOL1         0.0958
       4    H3      19.941350   17.904674   19.477721 H          1 MOL1         0.0958
       5    C2      19.599797   18.309696   21.605095 C.3        1 MOL1        -0.1412
       6    H4      19.990949   17.936955   22.560858 H          1 MOL1         0.0947
       7    H5      18.530139   18.060316   21.571583 H          1 MOL1         0.0947
       8    C3      19.783253   19.842229   21.523501 C.3        1 MOL1        -0.1437
       9    H6      20.846923   20.088746   21.646112 H          1 MOL1         0.0947
      10    H7      19.505596   20.181597   20.516025 H          1 MOL1         0.0947
      11    C4      18.946748   20.644312   22.553711 C.3        1 MOL1        -0.1437
      12    H8      17.874377   20.493541   22.368338 H          1 MOL1         0.0947
      13    H9      19.131058   21.711659   22.368853 H          1 MOL1         0.0947
      14    C5      19.285416   20.345754   24.037473 C.3        1 MOL1        -0.1437
      15    H10     20.334688   20.033690   24.122101 H          1 MOL1         0.0947
      16    H11     19.200285   21.281089   24.607786 H          1 MOL1         0.0947
      17    C6      18.340618   19.300121   24.684297 C.3        1 MOL1        -0.1437
      18    H12     18.375681   18.352087   24.134492 H          1 MOL1         0.0947
      19    H13     17.305007   19.659170   24.608202 H          1 MOL1         0.0947
      20    C7      18.662187   19.035447   26.173609 C.3        1 MOL1        -0.1477
      21    H14     18.607033   19.976421   26.737089 H          1 MOL1         0.0947
      22    H15     17.892898   18.372702   26.591821 H          1 MOL1         0.0947
      23    C8      20.045688   18.389638   26.375639 C.3        1 MOL1         0.0145
      24    H16     20.825369   19.059316   26.003932 H          1 MOL1         0.0921
      25    H17     20.099717   17.452569   25.814983 H          1 MOL1         0.0921
      26    N1      20.349803   18.083957   27.827853 N.4        1 MOL1        -0.5969
      27    H18     20.340272   18.930661   28.406190 H          1 MOL1         0.3603
      28    H19     21.274678   17.654590   27.941372 H          1 MOL1         0.3603
      29    H20     19.667181   17.434408   28.232303 H          1 MOL1         0.3603
@<TRIPOS>BOND
    1     1     2    1
    2     1     3    1
    3     1     4    1
    4     1     5    1
    5     5     6    1
    6     5     7    1
    7     5     8    1
    8     8     9    1
    9     8    10    1
   10     8    11    1
   11    11    12    1
   12    11    13    1
   13    11    14    1
   14    14    15    1
   15    14    16    1
   16    14    17    1
   17    17    18    1
   18    17    19    1
   19    17    20    1
   20    20    21    1
   21    20    22    1
   22    20    23    1
   23    23    24    1
   24    23    25    1
   25    23    26    1
   26    26    27    1
   27    26    28    1
   28    26    29    1
@<TRIPOS>SUBSTRUCTURE
       1 MOL1            1 RESIDUE      1      MOL     
@<SCITEGIC>MOL_PROPERTY
VM2 Rank
SciTegic.value.IntegerValue
254

@<SCITEGIC>MOL_PROPERTY
Conf_Id
SciTegic.value.IntegerValue
2622

@<SCITEGIC>MOL_PROPERTY
Probability
SciTegic.value.DoubleValue
0.01

@<SCITEGIC>MOL_PROPERTY
Sum Probability
SciTegic.value.DoubleValue
99.49

@<SCITEGIC>MOL_PROPERTY
Delta G
SciTegic.value.DoubleValue
3.849

@<SCITEGIC>MOL_PROPERTY
G
SciTegic.value.DoubleValue
61.997

@<SCITEGIC>MOL_PROPERTY
E
SciTegic.value.DoubleValue
24.346

@<SCITEGIC>MOL_PROPERTY
-TS
SciTegic.value.DoubleValue
37.651

@<SCITEGIC>MOL_PROPERTY
U+W
SciTegic.value.DoubleValue
0.201

@<SCITEGIC>MOL_PROPERTY
U
SciTegic.value.DoubleValue
52.223

@<SCITEGIC>MOL_PROPERTY
W
SciTegic.value.DoubleValue
-52.022

@<SCITEGIC>MOL_PROPERTY
W(PB)
SciTegic.value.DoubleValue
-54.494

@<SCITEGIC>MOL_PROPERTY
W(SA)
SciTegic.value.DoubleValue
2.472

@<SCITEGIC>MOL_PROPERTY
Valence
SciTegic.value.DoubleValue
5.910

@<SCITEGIC>MOL_PROPERTY
Coulomb
SciTegic.value.DoubleValue
45.541

@<SCITEGIC>MOL_PROPERTY
VdW
SciTegic.value.DoubleValue
0.772

@<SCITEGIC>MOL_PROPERTY
VdW6
SciTegic.value.DoubleValue
-9.291

@<SCITEGIC>MOL_PROPERTY
VdW12
SciTegic.value.DoubleValue
10.063

@<SCITEGIC>MOL_PROPERTY
Bond
SciTegic.value.DoubleValue
0.258

@<SCITEGIC>MOL_PROPERTY
Angle
SciTegic.value.DoubleValue
1.297

@<SCITEGIC>MOL_PROPERTY
Pdih
SciTegic.value.DoubleValue
4.355

@<SCITEGIC>MOL_PROPERTY
Idih
SciTegic.value.DoubleValue
0.000

@<SCITEGIC>MOL_PROPERTY
Tether
SciTegic.value.DoubleValue
0.000

@<TRIPOS>MOLECULE
guest-3_vm2.mol2 : vm2 ligand conformer 255
          29          28           1
SMALL
USER_CHARGES
 
@<TRIPOS>ATOM
       1    C1      19.967131   17.431664   20.821168 C.3        1 MOL1        -0.2427
       2    H1      20.991892   17.757635   20.600646 H          1 MOL1         0.0958
       3    H2      19.961499   16.958620   21.810927 H          1 MOL1         0.0958
       4    H3      19.694048   16.662736   20.086937 H          1 MOL1         0.0958
       5    C2      18.979695   18.618714   20.753226 C.3        1 MOL1        -0.1412
       6    H4      17.968664   18.273404   21.010698 H          1 MOL1         0.0947
       7    H5      18.927411   18.976551   19.715458 H          1 MOL1         0.0947
       8    C3      19.376465   19.803326   21.666972 C.3        1 MOL1        -0.1437
       9    H6      20.378379   20.160225   21.391241 H          1 MOL1         0.0947
      10    H7      18.687146   20.636930   21.474233 H          1 MOL1         0.0947
      11    C4      19.343067   19.456148   23.174606 C.3        1 MOL1        -0.1437
      12    H8      20.080732   18.671317   23.378081 H          1 MOL1         0.0947
      13    H9      18.354192   19.056130   23.436973 H          1 MOL1         0.0947
      14    C5      19.657004   20.688893   24.053968 C.3        1 MOL1        -0.1437
      15    H10     20.694126   21.006575   23.878810 H          1 MOL1         0.0947
      16    H11     19.023355   21.527228   23.733099 H          1 MOL1         0.0947
      17    C6      19.432180   20.472197   25.572928 C.3        1 MOL1        -0.1437
      18    H12     18.372051   20.265989   25.768804 H          1 MOL1         0.0947
      19    H13     19.642297   21.426756   26.074920 H          1 MOL1         0.0947
      20    C7      20.330389   19.384899   26.221480 C.3        1 MOL1        -0.1477
      21    H14     21.335430   19.425705   25.781095 H          1 MOL1         0.0947
      22    H15     20.459286   19.619415   27.286507 H          1 MOL1         0.0947
      23    C8      19.779910   17.947151   26.111599 C.3        1 MOL1         0.0145
      24    H16     20.513059   17.249272   26.525046 H          1 MOL1         0.0921
      25    H17     19.613644   17.681441   25.066371 H          1 MOL1         0.0921
      26    N1      18.478161   17.735009   26.859053 N.4        1 MOL1        -0.5969
      27    H18     18.576611   17.939341   27.858936 H          1 MOL1         0.3603
      28    H19     18.148038   16.766764   26.781972 H          1 MOL1         0.3603
      29    H20     17.731613   18.337301   26.498805 H          1 MOL1         0.3603
@<TRIPOS>BOND
    1     1     2    1
    2     1     3    1
    3     1     4    1
    4     1     5    1
    5     5     6    1
    6     5     7    1
    7     5     8    1
    8     8     9    1
    9     8    10    1
   10     8    11    1
   11    11    12    1
   12    11    13    1
   13    11    14    1
   14    14    15    1
   15    14    16    1
   16    14    17    1
   17    17    18    1
   18    17    19    1
   19    17    20    1
   20    20    21    1
   21    20    22    1
   22    20    23    1
   23    23    24    1
   24    23    25    1
   25    23    26    1
   26    26    27    1
   27    26    28    1
   28    26    29    1
@<TRIPOS>SUBSTRUCTURE
       1 MOL1            1 RESIDUE      1      MOL     
@<SCITEGIC>MOL_PROPERTY
VM2 Rank
SciTegic.value.IntegerValue
255

@<SCITEGIC>MOL_PROPERTY
Conf_Id
SciTegic.value.IntegerValue
833

@<SCITEGIC>MOL_PROPERTY
Probability
SciTegic.value.DoubleValue
0.01

@<SCITEGIC>MOL_PROPERTY
Sum Probability
SciTegic.value.DoubleValue
99.50

@<SCITEGIC>MOL_PROPERTY
Delta G
SciTegic.value.DoubleValue
3.871

@<SCITEGIC>MOL_PROPERTY
G
SciTegic.value.DoubleValue
62.019

@<SCITEGIC>MOL_PROPERTY
E
SciTegic.value.DoubleValue
24.311

@<SCITEGIC>MOL_PROPERTY
-TS
SciTegic.value.DoubleValue
37.708

@<SCITEGIC>MOL_PROPERTY
U+W
SciTegic.value.DoubleValue
0.166

@<SCITEGIC>MOL_PROPERTY
U
SciTegic.value.DoubleValue
52.635

@<SCITEGIC>MOL_PROPERTY
W
SciTegic.value.DoubleValue
-52.469

@<SCITEGIC>MOL_PROPERTY
W(PB)
SciTegic.value.DoubleValue
-54.906

@<SCITEGIC>MOL_PROPERTY
W(SA)
SciTegic.value.DoubleValue
2.437

@<SCITEGIC>MOL_PROPERTY
Valence
SciTegic.value.DoubleValue
5.624

@<SCITEGIC>MOL_PROPERTY
Coulomb
SciTegic.value.DoubleValue
46.167

@<SCITEGIC>MOL_PROPERTY
VdW
SciTegic.value.DoubleValue
0.844

@<SCITEGIC>MOL_PROPERTY
VdW6
SciTegic.value.DoubleValue
-9.932

@<SCITEGIC>MOL_PROPERTY
VdW12
SciTegic.value.DoubleValue
10.776

@<SCITEGIC>MOL_PROPERTY
Bond
SciTegic.value.DoubleValue
0.284

@<SCITEGIC>MOL_PROPERTY
Angle
SciTegic.value.DoubleValue
1.571

@<SCITEGIC>MOL_PROPERTY
Pdih
SciTegic.value.DoubleValue
3.769

@<SCITEGIC>MOL_PROPERTY
Idih
SciTegic.value.DoubleValue
0.000

@<SCITEGIC>MOL_PROPERTY
Tether
SciTegic.value.DoubleValue
0.000

@<TRIPOS>MOLECULE
guest-3_vm2.mol2 : vm2 ligand conformer 256
          29          28           1
SMALL
USER_CHARGES
 
@<TRIPOS>ATOM
       1    C1      21.047538   19.974905   21.411216 C.3        1 MOL1        -0.2427
       2    H1      21.686551   19.200467   21.854791 H          1 MOL1         0.0958
       3    H2      21.687885   20.638956   20.816367 H          1 MOL1         0.0958
       4    H3      20.613434   20.576472   22.219293 H          1 MOL1         0.0958
       5    C2      19.948046   19.350020   20.525108 C.3        1 MOL1        -0.1412
       6    H4      20.421118   18.903922   19.639155 H          1 MOL1         0.0947
       7    H5      19.287713   20.144260   20.149832 H          1 MOL1         0.0947
       8    C3      19.100800   18.260452   21.230630 C.3        1 MOL1        -0.1437
       9    H6      18.393960   17.861072   20.490207 H          1 MOL1         0.0947
      10    H7      19.738589   17.413204   21.517812 H          1 MOL1         0.0947
      11    C4      18.287883   18.761359   22.452788 C.3        1 MOL1        -0.1437
      12    H8      17.330938   18.221961   22.478273 H          1 MOL1         0.0947
      13    H9      18.034952   19.823075   22.326741 H          1 MOL1         0.0947
      14    C5      19.006353   18.533634   23.805153 C.3        1 MOL1        -0.1437
      15    H10     19.191444   17.459226   23.941269 H          1 MOL1         0.0947
      16    H11     19.987449   19.021083   23.796241 H          1 MOL1         0.0947
      17    C6      18.169513   19.064954   24.993326 C.3        1 MOL1        -0.1437
      18    H12     17.176209   18.595539   24.974434 H          1 MOL1         0.0947
      19    H13     18.005066   20.145217   24.876863 H          1 MOL1         0.0947
      20    C7      18.822987   18.788571   26.367690 C.3        1 MOL1        -0.1477
      21    H14     18.134600   19.110251   27.160519 H          1 MOL1         0.0947
      22    H15     18.968272   17.707714   26.496658 H          1 MOL1         0.0947
      23    C8      20.168600   19.516886   26.543879 C.3        1 MOL1         0.0145
      24    H16     20.024000   20.593048   26.416049 H          1 MOL1         0.0921
      25    H17     20.878463   19.172014   25.787704 H          1 MOL1         0.0921
      26    N1      20.792279   19.287220   27.905210 N.4        1 MOL1        -0.5969
      27    H18     20.978252   18.293591   28.077222 H          1 MOL1         0.3603
      28    H19     20.185564   19.616501   28.663472 H          1 MOL1         0.3603
      29    H20     21.686756   19.780231   28.002682 H          1 MOL1         0.3603
@<TRIPOS>BOND
    1     1     2    1
    2     1     3    1
    3     1     4    1
    4     1     5    1
    5     5     6    1
    6     5     7    1
    7     5     8    1
    8     8     9    1
    9     8    10    1
   10     8    11    1
   11    11    12    1
   12    11    13    1
   13    11    14    1
   14    14    15    1
   15    14    16    1
   16    14    17    1
   17    17    18    1
   18    17    19    1
   19    17    20    1
   20    20    21    1
   21    20    22    1
   22    20    23    1
   23    23    24    1
   24    23    25    1
   25    23    26    1
   26    26    27    1
   27    26    28    1
   28    26    29    1
@<TRIPOS>SUBSTRUCTURE
       1 MOL1            1 RESIDUE      1      MOL     
@<SCITEGIC>MOL_PROPERTY
VM2 Rank
SciTegic.value.IntegerValue
256

@<SCITEGIC>MOL_PROPERTY
Conf_Id
SciTegic.value.IntegerValue
2582

@<SCITEGIC>MOL_PROPERTY
Probability
SciTegic.value.DoubleValue
0.01

@<SCITEGIC>MOL_PROPERTY
Sum Probability
SciTegic.value.DoubleValue
99.51

@<SCITEGIC>MOL_PROPERTY
Delta G
SciTegic.value.DoubleValue
3.891

@<SCITEGIC>MOL_PROPERTY
G
SciTegic.value.DoubleValue
62.039

@<SCITEGIC>MOL_PROPERTY
E
SciTegic.value.DoubleValue
24.391

@<SCITEGIC>MOL_PROPERTY
-TS
SciTegic.value.DoubleValue
37.647

@<SCITEGIC>MOL_PROPERTY
U+W
SciTegic.value.DoubleValue
0.247

@<SCITEGIC>MOL_PROPERTY
U
SciTegic.value.DoubleValue
52.045

@<SCITEGIC>MOL_PROPERTY
W
SciTegic.value.DoubleValue
-51.798

@<SCITEGIC>MOL_PROPERTY
W(PB)
SciTegic.value.DoubleValue
-54.288

@<SCITEGIC>MOL_PROPERTY
W(SA)
SciTegic.value.DoubleValue
2.491

@<SCITEGIC>MOL_PROPERTY
Valence
SciTegic.value.DoubleValue
5.849

@<SCITEGIC>MOL_PROPERTY
Coulomb
SciTegic.value.DoubleValue
45.357

@<SCITEGIC>MOL_PROPERTY
VdW
SciTegic.value.DoubleValue
0.839

@<SCITEGIC>MOL_PROPERTY
VdW6
SciTegic.value.DoubleValue
-9.171

@<SCITEGIC>MOL_PROPERTY
VdW12
SciTegic.value.DoubleValue
10.009

@<SCITEGIC>MOL_PROPERTY
Bond
SciTegic.value.DoubleValue
0.253

@<SCITEGIC>MOL_PROPERTY
Angle
SciTegic.value.DoubleValue
1.262

@<SCITEGIC>MOL_PROPERTY
Pdih
SciTegic.value.DoubleValue
4.334

@<SCITEGIC>MOL_PROPERTY
Idih
SciTegic.value.DoubleValue
0.000

@<SCITEGIC>MOL_PROPERTY
Tether
SciTegic.value.DoubleValue
0.000

@<TRIPOS>MOLECULE
guest-3_vm2.mol2 : vm2 ligand conformer 257
          29          28           1
SMALL
USER_CHARGES
 
@<TRIPOS>ATOM
       1    C1      20.301780   17.455388   21.039049 C.3        1 MOL1        -0.2427
       2    H1      20.921243   17.130990   21.885215 H          1 MOL1         0.0958
       3    H2      19.274112   17.114233   21.214240 H          1 MOL1         0.0958
       4    H3      20.669302   16.945539   20.139110 H          1 MOL1         0.0958
       5    C2      20.368954   18.988687   20.856838 C.3        1 MOL1        -0.1412
       6    H4      19.718888   19.292128   20.024348 H          1 MOL1         0.0947
       7    H5      21.391769   19.265043   20.564910 H          1 MOL1         0.0947
       8    C3      19.988132   19.774887   22.134140 C.3        1 MOL1        -0.1437
       9    H6      20.649390   19.471331   22.954087 H          1 MOL1         0.0947
      10    H7      20.191067   20.840276   21.958522 H          1 MOL1         0.0947
      11    C4      18.499905   19.609327   22.537216 C.3        1 MOL1        -0.1437
      12    H8      18.254248   18.553397   22.708237 H          1 MOL1         0.0947
      13    H9      17.879458   19.932197   21.689901 H          1 MOL1         0.0947
      14    C5      18.103847   20.445345   23.782198 C.3        1 MOL1        -0.1437
      15    H10     18.727286   21.347379   23.851028 H          1 MOL1         0.0947
      16    H11     17.076269   20.807092   23.638583 H          1 MOL1         0.0947
      17    C6      18.141079   19.668191   25.123515 C.3        1 MOL1        -0.1437
      18    H12     17.424575   18.836029   25.082900 H          1 MOL1         0.0947
      19    H13     17.786820   20.337578   25.919805 H          1 MOL1         0.0947
      20    C7      19.535566   19.124731   25.508549 C.3        1 MOL1        -0.1477
      21    H14     19.847552   18.357185   24.789223 H          1 MOL1         0.0947
      22    H15     20.274220   19.936182   25.467808 H          1 MOL1         0.0947
      23    C8      19.527559   18.510097   26.919037 C.3        1 MOL1         0.0145
      24    H16     18.803377   17.691979   26.960050 H          1 MOL1         0.0921
      25    H17     19.232385   19.268227   27.649475 H          1 MOL1         0.0921
      26    N1      20.877178   17.961346   27.334457 N.4        1 MOL1        -0.5969
      27    H18     21.200160   17.222031   26.701620 H          1 MOL1         0.3603
      28    H19     20.849771   17.557123   28.277091 H          1 MOL1         0.3603
      29    H20     21.599180   18.689425   27.342650 H          1 MOL1         0.3603
@<TRIPOS>BOND
    1     1     2    1
    2     1     3    1
    3     1     4    1
    4     1     5    1
    5     5     6    1
    6     5     7    1
    7     5     8    1
    8     8     9    1
    9     8    10    1
   10     8    11    1
   11    11    12    1
   12    11    13    1
   13    11    14    1
   14    14    15    1
   15    14    16    1
   16    14    17    1
   17    17    18    1
   18    17    19    1
   19    17    20    1
   20    20    21    1
   21    20    22    1
   22    20    23    1
   23    23    24    1
   24    23    25    1
   25    23    26    1
   26    26    27    1
   27    26    28    1
   28    26    29    1
@<TRIPOS>SUBSTRUCTURE
       1 MOL1            1 RESIDUE      1      MOL     
@<SCITEGIC>MOL_PROPERTY
VM2 Rank
SciTegic.value.IntegerValue
257

@<SCITEGIC>MOL_PROPERTY
Conf_Id
SciTegic.value.IntegerValue
571

@<SCITEGIC>MOL_PROPERTY
Probability
SciTegic.value.DoubleValue
0.01

@<SCITEGIC>MOL_PROPERTY
Sum Probability
SciTegic.value.DoubleValue
99.51

@<SCITEGIC>MOL_PROPERTY
Delta G
SciTegic.value.DoubleValue
3.899

@<SCITEGIC>MOL_PROPERTY
G
SciTegic.value.DoubleValue
62.047

@<SCITEGIC>MOL_PROPERTY
E
SciTegic.value.DoubleValue
24.401

@<SCITEGIC>MOL_PROPERTY
-TS
SciTegic.value.DoubleValue
37.646

@<SCITEGIC>MOL_PROPERTY
U+W
SciTegic.value.DoubleValue
0.257

@<SCITEGIC>MOL_PROPERTY
U
SciTegic.value.DoubleValue
52.527

@<SCITEGIC>MOL_PROPERTY
W
SciTegic.value.DoubleValue
-52.270

@<SCITEGIC>MOL_PROPERTY
W(PB)
SciTegic.value.DoubleValue
-54.753

@<SCITEGIC>MOL_PROPERTY
W(SA)
SciTegic.value.DoubleValue
2.483

@<SCITEGIC>MOL_PROPERTY
Valence
SciTegic.value.DoubleValue
6.102

@<SCITEGIC>MOL_PROPERTY
Coulomb
SciTegic.value.DoubleValue
45.609

@<SCITEGIC>MOL_PROPERTY
VdW
SciTegic.value.DoubleValue
0.817

@<SCITEGIC>MOL_PROPERTY
VdW6
SciTegic.value.DoubleValue
-9.371

@<SCITEGIC>MOL_PROPERTY
VdW12
SciTegic.value.DoubleValue
10.188

@<SCITEGIC>MOL_PROPERTY
Bond
SciTegic.value.DoubleValue
0.273

@<SCITEGIC>MOL_PROPERTY
Angle
SciTegic.value.DoubleValue
1.408

@<SCITEGIC>MOL_PROPERTY
Pdih
SciTegic.value.DoubleValue
4.421

@<SCITEGIC>MOL_PROPERTY
Idih
SciTegic.value.DoubleValue
0.000

@<SCITEGIC>MOL_PROPERTY
Tether
SciTegic.value.DoubleValue
0.000

@<TRIPOS>MOLECULE
guest-3_vm2.mol2 : vm2 ligand conformer 258
          29          28           1
SMALL
USER_CHARGES
 
@<TRIPOS>ATOM
       1    C1      21.172296   19.897230   21.093930 C.3        1 MOL1        -0.2427
       2    H1      20.589514   20.804029   21.297057 H          1 MOL1         0.0958
       3    H2      21.845171   19.722856   21.943517 H          1 MOL1         0.0958
       4    H3      21.792190   20.095081   20.209906 H          1 MOL1         0.0958
       5    C2      20.257382   18.675721   20.849882 C.3        1 MOL1        -0.1412
       6    H4      20.879035   17.826778   20.532728 H          1 MOL1         0.0947
       7    H5      19.573821   18.885126   20.015260 H          1 MOL1         0.0947
       8    C3      19.447124   18.257431   22.100140 C.3        1 MOL1        -0.1437
       9    H6      18.933148   17.311820   21.879400 H          1 MOL1         0.0947
      10    H7      20.139612   18.041546   22.922076 H          1 MOL1         0.0947
      11    C4      18.393324   19.310507   22.530524 C.3        1 MOL1        -0.1437
      12    H8      17.720523   19.486613   21.679956 H          1 MOL1         0.0947
      13    H9      18.868260   20.276044   22.746756 H          1 MOL1         0.0947
      14    C5      17.540399   18.864663   23.746873 C.3        1 MOL1        -0.1437
      15    H10     16.517696   19.240097   23.603590 H          1 MOL1         0.0947
      16    H11     17.452099   17.769815   23.771077 H          1 MOL1         0.0947
      17    C6      18.041669   19.389298   25.117265 C.3        1 MOL1        -0.1437
      18    H12     17.332804   19.063772   25.891344 H          1 MOL1         0.0947
      19    H13     18.013328   20.487802   25.119780 H          1 MOL1         0.0947
      20    C7      19.460072   18.912901   25.503765 C.3        1 MOL1        -0.1477
      21    H14     19.519782   17.819635   25.420545 H          1 MOL1         0.0947
      22    H15     20.197164   19.337985   24.811023 H          1 MOL1         0.0947
      23    C8      19.822614   19.337750   26.937427 C.3        1 MOL1         0.0145
      24    H16     19.104287   18.908959   27.641395 H          1 MOL1         0.0921
      25    H17     19.778415   20.427020   27.020947 H          1 MOL1         0.0921
      26    N1      21.209120   18.892498   27.355194 N.4        1 MOL1        -0.5969
      27    H18     21.935722   19.285371   26.747671 H          1 MOL1         0.3603
      28    H19     21.307901   17.872330   27.324330 H          1 MOL1         0.3603
      29    H20     21.430142   19.185226   28.313405 H          1 MOL1         0.3603
@<TRIPOS>BOND
    1     1     2    1
    2     1     3    1
    3     1     4    1
    4     1     5    1
    5     5     6    1
    6     5     7    1
    7     5     8    1
    8     8     9    1
    9     8    10    1
   10     8    11    1
   11    11    12    1
   12    11    13    1
   13    11    14    1
   14    14    15    1
   15    14    16    1
   16    14    17    1
   17    17    18    1
   18    17    19    1
   19    17    20    1
   20    20    21    1
   21    20    22    1
   22    20    23    1
   23    23    24    1
   24    23    25    1
   25    23    26    1
   26    26    27    1
   27    26    28    1
   28    26    29    1
@<TRIPOS>SUBSTRUCTURE
       1 MOL1            1 RESIDUE      1      MOL     
@<SCITEGIC>MOL_PROPERTY
VM2 Rank
SciTegic.value.IntegerValue
258

@<SCITEGIC>MOL_PROPERTY
Conf_Id
SciTegic.value.IntegerValue
543

@<SCITEGIC>MOL_PROPERTY
Probability
SciTegic.value.DoubleValue
0.01

@<SCITEGIC>MOL_PROPERTY
Sum Probability
SciTegic.value.DoubleValue
99.52

@<SCITEGIC>MOL_PROPERTY
Delta G
SciTegic.value.DoubleValue
3.903

@<SCITEGIC>MOL_PROPERTY
G
SciTegic.value.DoubleValue
62.051

@<SCITEGIC>MOL_PROPERTY
E
SciTegic.value.DoubleValue
24.405

@<SCITEGIC>MOL_PROPERTY
-TS
SciTegic.value.DoubleValue
37.646

@<SCITEGIC>MOL_PROPERTY
U+W
SciTegic.value.DoubleValue
0.260

@<SCITEGIC>MOL_PROPERTY
U
SciTegic.value.DoubleValue
52.527

@<SCITEGIC>MOL_PROPERTY
W
SciTegic.value.DoubleValue
-52.267

@<SCITEGIC>MOL_PROPERTY
W(PB)
SciTegic.value.DoubleValue
-54.744

@<SCITEGIC>MOL_PROPERTY
W(SA)
SciTegic.value.DoubleValue
2.477

@<SCITEGIC>MOL_PROPERTY
Valence
SciTegic.value.DoubleValue
6.102

@<SCITEGIC>MOL_PROPERTY
Coulomb
SciTegic.value.DoubleValue
45.609

@<SCITEGIC>MOL_PROPERTY
VdW
SciTegic.value.DoubleValue
0.817

@<SCITEGIC>MOL_PROPERTY
VdW6
SciTegic.value.DoubleValue
-9.371

@<SCITEGIC>MOL_PROPERTY
VdW12
SciTegic.value.DoubleValue
10.188

@<SCITEGIC>MOL_PROPERTY
Bond
SciTegic.value.DoubleValue
0.273

@<SCITEGIC>MOL_PROPERTY
Angle
SciTegic.value.DoubleValue
1.407

@<SCITEGIC>MOL_PROPERTY
Pdih
SciTegic.value.DoubleValue
4.421

@<SCITEGIC>MOL_PROPERTY
Idih
SciTegic.value.DoubleValue
0.000

@<SCITEGIC>MOL_PROPERTY
Tether
SciTegic.value.DoubleValue
0.000

@<TRIPOS>MOLECULE
guest-3_vm2.mol2 : vm2 ligand conformer 259
          29          28           1
SMALL
USER_CHARGES
 
@<TRIPOS>ATOM
       1    C1      19.909544   19.575062   19.789428 C.3        1 MOL1        -0.2427
       2    H1      20.945754   19.414467   20.111991 H          1 MOL1         0.0958
       3    H2      19.874776   19.423914   18.702755 H          1 MOL1         0.0958
       4    H3      19.644037   20.620788   19.991859 H          1 MOL1         0.0958
       5    C2      18.937587   18.607315   20.501562 C.3        1 MOL1        -0.1412
       6    H4      19.239997   17.569145   20.305474 H          1 MOL1         0.0947
       7    H5      17.936505   18.724006   20.063442 H          1 MOL1         0.0947
       8    C3      18.843251   18.845954   22.027727 C.3        1 MOL1        -0.1437
       9    H6      18.512448   19.876928   22.210169 H          1 MOL1         0.0947
      10    H7      18.061163   18.191162   22.435938 H          1 MOL1         0.0947
      11    C4      20.173274   18.573735   22.774736 C.3        1 MOL1        -0.1437
      12    H8      20.936455   19.298078   22.460952 H          1 MOL1         0.0947
      13    H9      20.549904   17.582443   22.487438 H          1 MOL1         0.0947
      14    C5      20.031675   18.619571   24.315733 C.3        1 MOL1        -0.1437
      15    H10     19.295660   17.867145   24.625051 H          1 MOL1         0.0947
      16    H11     20.992926   18.330042   24.762233 H          1 MOL1         0.0947
      17    C6      19.620080   20.013974   24.850272 C.3        1 MOL1        -0.1437
      18    H12     18.586770   20.237145   24.552731 H          1 MOL1         0.0947
      19    H13     20.249914   20.777393   24.373051 H          1 MOL1         0.0947
      20    C7      19.749882   20.172763   26.386651 C.3        1 MOL1        -0.1477
      21    H14     20.788053   20.004837   26.702646 H          1 MOL1         0.0947
      22    H15     19.523874   21.217721   26.637281 H          1 MOL1         0.0947
      23    C8      18.796476   19.277232   27.204582 C.3        1 MOL1         0.0145
      24    H16     17.812214   19.251786   26.729345 H          1 MOL1         0.0921
      25    H17     18.679322   19.702419   28.205061 H          1 MOL1         0.0921
      26    N1      19.282230   17.852394   27.384310 N.4        1 MOL1        -0.5969
      27    H18     18.620066   17.291020   27.931143 H          1 MOL1         0.3603
      28    H19     20.181225   17.817808   27.876157 H          1 MOL1         0.3603
      29    H20     19.410416   17.379530   26.485231 H          1 MOL1         0.3603
@<TRIPOS>BOND
    1     1     2    1
    2     1     3    1
    3     1     4    1
    4     1     5    1
    5     5     6    1
    6     5     7    1
    7     5     8    1
    8     8     9    1
    9     8    10    1
   10     8    11    1
   11    11    12    1
   12    11    13    1
   13    11    14    1
   14    14    15    1
   15    14    16    1
   16    14    17    1
   17    17    18    1
   18    17    19    1
   19    17    20    1
   20    20    21    1
   21    20    22    1
   22    20    23    1
   23    23    24    1
   24    23    25    1
   25    23    26    1
   26    26    27    1
   27    26    28    1
   28    26    29    1
@<TRIPOS>SUBSTRUCTURE
       1 MOL1            1 RESIDUE      1      MOL     
@<SCITEGIC>MOL_PROPERTY
VM2 Rank
SciTegic.value.IntegerValue
259

@<SCITEGIC>MOL_PROPERTY
Conf_Id
SciTegic.value.IntegerValue
304

@<SCITEGIC>MOL_PROPERTY
Probability
SciTegic.value.DoubleValue
0.01

@<SCITEGIC>MOL_PROPERTY
Sum Probability
SciTegic.value.DoubleValue
99.53

@<SCITEGIC>MOL_PROPERTY
Delta G
SciTegic.value.DoubleValue
3.907

@<SCITEGIC>MOL_PROPERTY
G
SciTegic.value.DoubleValue
62.055

@<SCITEGIC>MOL_PROPERTY
E
SciTegic.value.DoubleValue
24.442

@<SCITEGIC>MOL_PROPERTY
-TS
SciTegic.value.DoubleValue
37.613

@<SCITEGIC>MOL_PROPERTY
U+W
SciTegic.value.DoubleValue
0.297

@<SCITEGIC>MOL_PROPERTY
U
SciTegic.value.DoubleValue
52.339

@<SCITEGIC>MOL_PROPERTY
W
SciTegic.value.DoubleValue
-52.042

@<SCITEGIC>MOL_PROPERTY
W(PB)
SciTegic.value.DoubleValue
-54.497

@<SCITEGIC>MOL_PROPERTY
W(SA)
SciTegic.value.DoubleValue
2.455

@<SCITEGIC>MOL_PROPERTY
Valence
SciTegic.value.DoubleValue
5.123

@<SCITEGIC>MOL_PROPERTY
Coulomb
SciTegic.value.DoubleValue
46.319

@<SCITEGIC>MOL_PROPERTY
VdW
SciTegic.value.DoubleValue
0.897

@<SCITEGIC>MOL_PROPERTY
VdW6
SciTegic.value.DoubleValue
-9.793

@<SCITEGIC>MOL_PROPERTY
VdW12
SciTegic.value.DoubleValue
10.690

@<SCITEGIC>MOL_PROPERTY
Bond
SciTegic.value.DoubleValue
0.276

@<SCITEGIC>MOL_PROPERTY
Angle
SciTegic.value.DoubleValue
1.342

@<SCITEGIC>MOL_PROPERTY
Pdih
SciTegic.value.DoubleValue
3.505

@<SCITEGIC>MOL_PROPERTY
Idih
SciTegic.value.DoubleValue
0.000

@<SCITEGIC>MOL_PROPERTY
Tether
SciTegic.value.DoubleValue
0.000

@<TRIPOS>MOLECULE
guest-3_vm2.mol2 : vm2 ligand conformer 260
          29          28           1
SMALL
USER_CHARGES
 
@<TRIPOS>ATOM
       1    C1      19.319156   18.756806   19.508091 C.3        1 MOL1        -0.2427
       2    H1      20.320876   19.077936   19.193964 H          1 MOL1         0.0958
       3    H2      19.233625   17.677350   19.327317 H          1 MOL1         0.0958
       4    H3      18.586065   19.264663   18.868023 H          1 MOL1         0.0958
       5    C2      19.070261   19.092321   20.993810 C.3        1 MOL1        -0.1412
       6    H4      18.051514   18.786992   21.270548 H          1 MOL1         0.0947
       7    H5      19.124169   20.180977   21.127742 H          1 MOL1         0.0947
       8    C3      20.094619   18.390297   21.916093 C.3        1 MOL1        -0.1437
       9    H6      20.075185   17.310112   21.715868 H          1 MOL1         0.0947
      10    H7      21.109561   18.731069   21.669172 H          1 MOL1         0.0947
      11    C4      19.823423   18.616014   23.423604 C.3        1 MOL1        -0.1437
      12    H8      20.533835   18.008621   24.000824 H          1 MOL1         0.0947
      13    H9      18.818913   18.243732   23.661148 H          1 MOL1         0.0947
      14    C5      19.950054   20.097829   23.854622 C.3        1 MOL1        -0.1437
      15    H10     20.867314   20.517301   23.418867 H          1 MOL1         0.0947
      16    H11     19.117970   20.678766   23.435098 H          1 MOL1         0.0947
      17    C6      20.001581   20.320162   25.388357 C.3        1 MOL1        -0.1437
      18    H12     20.161457   21.393865   25.558449 H          1 MOL1         0.0947
      19    H13     20.884371   19.823042   25.810624 H          1 MOL1         0.0947
      20    C7      18.717968   19.904000   26.155708 C.3        1 MOL1        -0.1477
      21    H14     18.657949   20.483407   27.086605 H          1 MOL1         0.0947
      22    H15     17.831848   20.183085   25.570403 H          1 MOL1         0.0947
      23    C8      18.640310   18.406232   26.519372 C.3        1 MOL1         0.0145
      24    H16     18.707252   17.791896   25.620174 H          1 MOL1         0.0921
      25    H17     17.677814   18.202066   26.996225 H          1 MOL1         0.0921
      26    N1      19.726628   17.954338   27.475344 N.4        1 MOL1        -0.5969
      27    H18     19.636976   16.959993   27.711300 H          1 MOL1         0.3603
      28    H19     19.697019   18.475599   28.357738 H          1 MOL1         0.3603
      29    H20     20.661240   18.086244   27.076661 H          1 MOL1         0.3603
@<TRIPOS>BOND
    1     1     2    1
    2     1     3    1
    3     1     4    1
    4     1     5    1
    5     5     6    1
    6     5     7    1
    7     5     8    1
    8     8     9    1
    9     8    10    1
   10     8    11    1
   11    11    12    1
   12    11    13    1
   13    11    14    1
   14    14    15    1
   15    14    16    1
   16    14    17    1
   17    17    18    1
   18    17    19    1
   19    17    20    1
   20    20    21    1
   21    20    22    1
   22    20    23    1
   23    23    24    1
   24    23    25    1
   25    23    26    1
   26    26    27    1
   27    26    28    1
   28    26    29    1
@<TRIPOS>SUBSTRUCTURE
       1 MOL1            1 RESIDUE      1      MOL     
@<SCITEGIC>MOL_PROPERTY
VM2 Rank
SciTegic.value.IntegerValue
260

@<SCITEGIC>MOL_PROPERTY
Conf_Id
SciTegic.value.IntegerValue
2149

@<SCITEGIC>MOL_PROPERTY
Probability
SciTegic.value.DoubleValue
0.01

@<SCITEGIC>MOL_PROPERTY
Sum Probability
SciTegic.value.DoubleValue
99.54

@<SCITEGIC>MOL_PROPERTY
Delta G
SciTegic.value.DoubleValue
3.908

@<SCITEGIC>MOL_PROPERTY
G
SciTegic.value.DoubleValue
62.056

@<SCITEGIC>MOL_PROPERTY
E
SciTegic.value.DoubleValue
24.353

@<SCITEGIC>MOL_PROPERTY
-TS
SciTegic.value.DoubleValue
37.702

@<SCITEGIC>MOL_PROPERTY
U+W
SciTegic.value.DoubleValue
0.209

@<SCITEGIC>MOL_PROPERTY
U
SciTegic.value.DoubleValue
52.451

@<SCITEGIC>MOL_PROPERTY
W
SciTegic.value.DoubleValue
-52.243

@<SCITEGIC>MOL_PROPERTY
W(PB)
SciTegic.value.DoubleValue
-54.688

@<SCITEGIC>MOL_PROPERTY
W(SA)
SciTegic.value.DoubleValue
2.445

@<SCITEGIC>MOL_PROPERTY
Valence
SciTegic.value.DoubleValue
5.609

@<SCITEGIC>MOL_PROPERTY
Coulomb
SciTegic.value.DoubleValue
46.006

@<SCITEGIC>MOL_PROPERTY
VdW
SciTegic.value.DoubleValue
0.837

@<SCITEGIC>MOL_PROPERTY
VdW6
SciTegic.value.DoubleValue
-9.912

@<SCITEGIC>MOL_PROPERTY
VdW12
SciTegic.value.DoubleValue
10.749

@<SCITEGIC>MOL_PROPERTY
Bond
SciTegic.value.DoubleValue
0.284

@<SCITEGIC>MOL_PROPERTY
Angle
SciTegic.value.DoubleValue
1.564

@<SCITEGIC>MOL_PROPERTY
Pdih
SciTegic.value.DoubleValue
3.761

@<SCITEGIC>MOL_PROPERTY
Idih
SciTegic.value.DoubleValue
0.000

@<SCITEGIC>MOL_PROPERTY
Tether
SciTegic.value.DoubleValue
0.000

@<TRIPOS>MOLECULE
guest-3_vm2.mol2 : vm2 ligand conformer 261
          29          28           1
SMALL
USER_CHARGES
 
@<TRIPOS>ATOM
       1    C1      19.545834   18.554613   19.766703 C.3        1 MOL1        -0.2427
       2    H1      20.445819   18.011435   20.080635 H          1 MOL1         0.0958
       3    H2      18.676503   17.904878   19.931399 H          1 MOL1         0.0958
       4    H3      19.629596   18.736595   18.687453 H          1 MOL1         0.0958
       5    C2      19.394102   19.889666   20.530233 C.3        1 MOL1        -0.1412
       6    H4      18.550686   20.449197   20.102091 H          1 MOL1         0.0947
       7    H5      20.287159   20.509993   20.371045 H          1 MOL1         0.0947
       8    C3      19.148874   19.704134   22.046962 C.3        1 MOL1        -0.1437
       9    H6      18.950752   20.688989   22.491773 H          1 MOL1         0.0947
      10    H7      18.238571   19.107824   22.193194 H          1 MOL1         0.0947
      11    C4      20.341180   19.044990   22.785218 C.3        1 MOL1        -0.1437
      12    H8      21.263368   19.585868   22.532099 H          1 MOL1         0.0947
      13    H9      20.479488   18.014545   22.432189 H          1 MOL1         0.0947
      14    C5      20.180829   19.037837   24.325043 C.3        1 MOL1        -0.1437
      15    H10     21.102517   18.637102   24.768997 H          1 MOL1         0.0947
      16    H11     20.081282   20.073035   24.674318 H          1 MOL1         0.0947
      17    C6      18.973483   18.197045   24.809699 C.3        1 MOL1        -0.1437
      18    H12     18.986208   17.227035   24.293791 H          1 MOL1         0.0947
      19    H13     18.035762   18.688720   24.518154 H          1 MOL1         0.0947
      20    C7      18.952133   17.931277   26.336602 C.3        1 MOL1        -0.1477
      21    H14     18.113510   17.254872   26.548777 H          1 MOL1         0.0947
      22    H15     19.858563   17.393223   26.644386 H          1 MOL1         0.0947
      23    C8      18.766903   19.194426   27.202694 C.3        1 MOL1         0.0145
      24    H16     18.393483   18.899521   28.187102 H          1 MOL1         0.0921
      25    H17     18.026574   19.854443   26.742739 H          1 MOL1         0.0921
      26    N1      20.040661   19.984012   27.431846 N.4        1 MOL1        -0.5969
      27    H18     20.752574   19.423661   27.911936 H          1 MOL1         0.3603
      28    H19     19.874046   20.815186   28.009788 H          1 MOL1         0.3603
      29    H20     20.451278   20.304905   26.550485 H          1 MOL1         0.3603
@<TRIPOS>BOND
    1     1     2    1
    2     1     3    1
    3     1     4    1
    4     1     5    1
    5     5     6    1
    6     5     7    1
    7     5     8    1
    8     8     9    1
    9     8    10    1
   10     8    11    1
   11    11    12    1
   12    11    13    1
   13    11    14    1
   14    14    15    1
   15    14    16    1
   16    14    17    1
   17    17    18    1
   18    17    19    1
   19    17    20    1
   20    20    21    1
   21    20    22    1
   22    20    23    1
   23    23    24    1
   24    23    25    1
   25    23    26    1
   26    26    27    1
   27    26    28    1
   28    26    29    1
@<TRIPOS>SUBSTRUCTURE
       1 MOL1            1 RESIDUE      1      MOL     
@<SCITEGIC>MOL_PROPERTY
VM2 Rank
SciTegic.value.IntegerValue
261

@<SCITEGIC>MOL_PROPERTY
Conf_Id
SciTegic.value.IntegerValue
335

@<SCITEGIC>MOL_PROPERTY
Probability
SciTegic.value.DoubleValue
0.01

@<SCITEGIC>MOL_PROPERTY
Sum Probability
SciTegic.value.DoubleValue
99.54

@<SCITEGIC>MOL_PROPERTY
Delta G
SciTegic.value.DoubleValue
3.924

@<SCITEGIC>MOL_PROPERTY
G
SciTegic.value.DoubleValue
62.072

@<SCITEGIC>MOL_PROPERTY
E
SciTegic.value.DoubleValue
24.460

@<SCITEGIC>MOL_PROPERTY
-TS
SciTegic.value.DoubleValue
37.612

@<SCITEGIC>MOL_PROPERTY
U+W
SciTegic.value.DoubleValue
0.315

@<SCITEGIC>MOL_PROPERTY
U
SciTegic.value.DoubleValue
52.339

@<SCITEGIC>MOL_PROPERTY
W
SciTegic.value.DoubleValue
-52.024

@<SCITEGIC>MOL_PROPERTY
W(PB)
SciTegic.value.DoubleValue
-54.480

@<SCITEGIC>MOL_PROPERTY
W(SA)
SciTegic.value.DoubleValue
2.456

@<SCITEGIC>MOL_PROPERTY
Valence
SciTegic.value.DoubleValue
5.123

@<SCITEGIC>MOL_PROPERTY
Coulomb
SciTegic.value.DoubleValue
46.319

@<SCITEGIC>MOL_PROPERTY
VdW
SciTegic.value.DoubleValue
0.897

@<SCITEGIC>MOL_PROPERTY
VdW6
SciTegic.value.DoubleValue
-9.793

@<SCITEGIC>MOL_PROPERTY
VdW12
SciTegic.value.DoubleValue
10.690

@<SCITEGIC>MOL_PROPERTY
Bond
SciTegic.value.DoubleValue
0.276

@<SCITEGIC>MOL_PROPERTY
Angle
SciTegic.value.DoubleValue
1.343

@<SCITEGIC>MOL_PROPERTY
Pdih
SciTegic.value.DoubleValue
3.505

@<SCITEGIC>MOL_PROPERTY
Idih
SciTegic.value.DoubleValue
0.000

@<SCITEGIC>MOL_PROPERTY
Tether
SciTegic.value.DoubleValue
0.000

@<TRIPOS>MOLECULE
guest-3_vm2.mol2 : vm2 ligand conformer 262
          29          28           1
SMALL
USER_CHARGES
 
@<TRIPOS>ATOM
       1    C1      19.562110   17.810828   20.259482 C.3        1 MOL1        -0.2427
       2    H1      18.589800   18.291527   20.094556 H          1 MOL1         0.0958
       3    H2      19.942103   17.489665   19.281031 H          1 MOL1         0.0958
       4    H3      19.402855   16.912249   20.869567 H          1 MOL1         0.0958
       5    C2      20.562145   18.773486   20.938875 C.3        1 MOL1        -0.1412
       6    H4      20.685300   19.674290   20.321550 H          1 MOL1         0.0947
       7    H5      21.548556   18.290642   20.978446 H          1 MOL1         0.0947
       8    C3      20.147010   19.175226   22.374578 C.3        1 MOL1        -0.1437
       9    H6      20.056068   18.267902   22.985724 H          1 MOL1         0.0947
      10    H7      20.953081   19.777024   22.816099 H          1 MOL1         0.0947
      11    C4      18.824987   19.979040   22.428008 C.3        1 MOL1        -0.1437
      12    H8      17.987156   19.335541   22.128546 H          1 MOL1         0.0947
      13    H9      18.870125   20.789221   21.687323 H          1 MOL1         0.0947
      14    C5      18.512693   20.603112   23.812600 C.3        1 MOL1        -0.1437
      15    H10     19.292695   21.326824   24.086424 H          1 MOL1         0.0947
      16    H11     17.589296   21.189580   23.708622 H          1 MOL1         0.0947
      17    C6      18.304305   19.575509   24.955559 C.3        1 MOL1        -0.1437
      18    H12     17.912466   18.632749   24.549167 H          1 MOL1         0.0947
      19    H13     17.527536   19.960378   25.631020 H          1 MOL1         0.0947
      20    C7      19.579884   19.313793   25.791670 C.3        1 MOL1        -0.1477
      21    H14     20.391662   18.945890   25.154388 H          1 MOL1         0.0947
      22    H15     19.926796   20.256248   26.235893 H          1 MOL1         0.0947
      23    C8      19.314548   18.292297   26.911260 C.3        1 MOL1         0.0145
      24    H16     18.985006   17.345405   26.475101 H          1 MOL1         0.0921
      25    H17     18.522773   18.662997   27.567853 H          1 MOL1         0.0921
      26    N1      20.536318   18.014709   27.762968 N.4        1 MOL1        -0.5969
      27    H18     20.880918   18.863273   28.224162 H          1 MOL1         0.3603
      28    H19     21.311086   17.636333   27.208013 H          1 MOL1         0.3603
      29    H20     20.337430   17.332336   28.502916 H          1 MOL1         0.3603
@<TRIPOS>BOND
    1     1     2    1
    2     1     3    1
    3     1     4    1
    4     1     5    1
    5     5     6    1
    6     5     7    1
    7     5     8    1
    8     8     9    1
    9     8    10    1
   10     8    11    1
   11    11    12    1
   12    11    13    1
   13    11    14    1
   14    14    15    1
   15    14    16    1
   16    14    17    1
   17    17    18    1
   18    17    19    1
   19    17    20    1
   20    20    21    1
   21    20    22    1
   22    20    23    1
   23    23    24    1
   24    23    25    1
   25    23    26    1
   26    26    27    1
   27    26    28    1
   28    26    29    1
@<TRIPOS>SUBSTRUCTURE
       1 MOL1            1 RESIDUE      1      MOL     
@<SCITEGIC>MOL_PROPERTY
VM2 Rank
SciTegic.value.IntegerValue
262

@<SCITEGIC>MOL_PROPERTY
Conf_Id
SciTegic.value.IntegerValue
1312

@<SCITEGIC>MOL_PROPERTY
Probability
SciTegic.value.DoubleValue
0.01

@<SCITEGIC>MOL_PROPERTY
Sum Probability
SciTegic.value.DoubleValue
99.55

@<SCITEGIC>MOL_PROPERTY
Delta G
SciTegic.value.DoubleValue
3.935

@<SCITEGIC>MOL_PROPERTY
G
SciTegic.value.DoubleValue
62.083

@<SCITEGIC>MOL_PROPERTY
E
SciTegic.value.DoubleValue
24.396

@<SCITEGIC>MOL_PROPERTY
-TS
SciTegic.value.DoubleValue
37.688

@<SCITEGIC>MOL_PROPERTY
U+W
SciTegic.value.DoubleValue
0.251

@<SCITEGIC>MOL_PROPERTY
U
SciTegic.value.DoubleValue
52.336

@<SCITEGIC>MOL_PROPERTY
W
SciTegic.value.DoubleValue
-52.085

@<SCITEGIC>MOL_PROPERTY
W(PB)
SciTegic.value.DoubleValue
-54.562

@<SCITEGIC>MOL_PROPERTY
W(SA)
SciTegic.value.DoubleValue
2.476

@<SCITEGIC>MOL_PROPERTY
Valence
SciTegic.value.DoubleValue
6.070

@<SCITEGIC>MOL_PROPERTY
Coulomb
SciTegic.value.DoubleValue
45.396

@<SCITEGIC>MOL_PROPERTY
VdW
SciTegic.value.DoubleValue
0.870

@<SCITEGIC>MOL_PROPERTY
VdW6
SciTegic.value.DoubleValue
-9.253

@<SCITEGIC>MOL_PROPERTY
VdW12
SciTegic.value.DoubleValue
10.123

@<SCITEGIC>MOL_PROPERTY
Bond
SciTegic.value.DoubleValue
0.266

@<SCITEGIC>MOL_PROPERTY
Angle
SciTegic.value.DoubleValue
1.373

@<SCITEGIC>MOL_PROPERTY
Pdih
SciTegic.value.DoubleValue
4.431

@<SCITEGIC>MOL_PROPERTY
Idih
SciTegic.value.DoubleValue
0.000

@<SCITEGIC>MOL_PROPERTY
Tether
SciTegic.value.DoubleValue
0.000

@<TRIPOS>MOLECULE
guest-3_vm2.mol2 : vm2 ligand conformer 263
          29          28           1
SMALL
USER_CHARGES
 
@<TRIPOS>ATOM
       1    C1      21.043413   19.519723   20.424923 C.3        1 MOL1        -0.2427
       2    H1      20.566884   19.306552   19.459166 H          1 MOL1         0.0958
       3    H2      21.002223   20.603519   20.594932 H          1 MOL1         0.0958
       4    H3      22.099580   19.229897   20.350658 H          1 MOL1         0.0958
       5    C2      20.347144   18.752666   21.568822 C.3        1 MOL1        -0.1412
       6    H4      20.875310   18.959626   22.509046 H          1 MOL1         0.0947
       7    H5      20.429912   17.672100   21.386876 H          1 MOL1         0.0947
       8    C3      18.857151   19.148094   21.695954 C.3        1 MOL1        -0.1437
       9    H6      18.775576   20.219870   21.920294 H          1 MOL1         0.0947
      10    H7      18.366396   19.005802   20.723292 H          1 MOL1         0.0947
      11    C4      18.083474   18.323396   22.757067 C.3        1 MOL1        -0.1437
      12    H8      18.079493   17.267271   22.454209 H          1 MOL1         0.0947
      13    H9      17.031592   18.640679   22.751591 H          1 MOL1         0.0947
      14    C5      18.631622   18.425675   24.203699 C.3        1 MOL1        -0.1437
      15    H10     18.001116   17.806318   24.856350 H          1 MOL1         0.0947
      16    H11     19.637810   17.992287   24.238863 H          1 MOL1         0.0947
      17    C6      18.657000   19.875540   24.747932 C.3        1 MOL1        -0.1437
      18    H12     17.687577   20.349212   24.540530 H          1 MOL1         0.0947
      19    H13     19.409602   20.463631   24.205812 H          1 MOL1         0.0947
      20    C7      18.931712   19.982204   26.269532 C.3        1 MOL1        -0.1477
      21    H14     18.834728   21.037922   26.555662 H          1 MOL1         0.0947
      22    H15     18.160622   19.444135   26.836752 H          1 MOL1         0.0947
      23    C8      20.334587   19.506254   26.700041 C.3        1 MOL1         0.0145
      24    H16     20.582050   19.955323   27.665737 H          1 MOL1         0.0921
      25    H17     21.078889   19.837655   25.971033 H          1 MOL1         0.0921
      26    N1      20.457899   18.004447   26.867030 N.4        1 MOL1        -0.5969
      27    H18     19.816203   17.649310   27.583569 H          1 MOL1         0.3603
      28    H19     21.404825   17.729971   27.150962 H          1 MOL1         0.3603
      29    H20     20.245751   17.507476   25.997402 H          1 MOL1         0.3603
@<TRIPOS>BOND
    1     1     2    1
    2     1     3    1
    3     1     4    1
    4     1     5    1
    5     5     6    1
    6     5     7    1
    7     5     8    1
    8     8     9    1
    9     8    10    1
   10     8    11    1
   11    11    12    1
   12    11    13    1
   13    11    14    1
   14    14    15    1
   15    14    16    1
   16    14    17    1
   17    17    18    1
   18    17    19    1
   19    17    20    1
   20    20    21    1
   21    20    22    1
   22    20    23    1
   23    23    24    1
   24    23    25    1
   25    23    26    1
   26    26    27    1
   27    26    28    1
   28    26    29    1
@<TRIPOS>SUBSTRUCTURE
       1 MOL1            1 RESIDUE      1      MOL     
@<SCITEGIC>MOL_PROPERTY
VM2 Rank
SciTegic.value.IntegerValue
263

@<SCITEGIC>MOL_PROPERTY
Conf_Id
SciTegic.value.IntegerValue
206

@<SCITEGIC>MOL_PROPERTY
Probability
SciTegic.value.DoubleValue
0.01

@<SCITEGIC>MOL_PROPERTY
Sum Probability
SciTegic.value.DoubleValue
99.56

@<SCITEGIC>MOL_PROPERTY
Delta G
SciTegic.value.DoubleValue
3.943

@<SCITEGIC>MOL_PROPERTY
G
SciTegic.value.DoubleValue
62.091

@<SCITEGIC>MOL_PROPERTY
E
SciTegic.value.DoubleValue
24.284

@<SCITEGIC>MOL_PROPERTY
-TS
SciTegic.value.DoubleValue
37.807

@<SCITEGIC>MOL_PROPERTY
U+W
SciTegic.value.DoubleValue
0.140

@<SCITEGIC>MOL_PROPERTY
U
SciTegic.value.DoubleValue
52.645

@<SCITEGIC>MOL_PROPERTY
W
SciTegic.value.DoubleValue
-52.505

@<SCITEGIC>MOL_PROPERTY
W(PB)
SciTegic.value.DoubleValue
-54.938

@<SCITEGIC>MOL_PROPERTY
W(SA)
SciTegic.value.DoubleValue
2.433

@<SCITEGIC>MOL_PROPERTY
Valence
SciTegic.value.DoubleValue
5.097

@<SCITEGIC>MOL_PROPERTY
Coulomb
SciTegic.value.DoubleValue
46.891

@<SCITEGIC>MOL_PROPERTY
VdW
SciTegic.value.DoubleValue
0.656

@<SCITEGIC>MOL_PROPERTY
VdW6
SciTegic.value.DoubleValue
-10.250

@<SCITEGIC>MOL_PROPERTY
VdW12
SciTegic.value.DoubleValue
10.906

@<SCITEGIC>MOL_PROPERTY
Bond
SciTegic.value.DoubleValue
0.285

@<SCITEGIC>MOL_PROPERTY
Angle
SciTegic.value.DoubleValue
1.535

@<SCITEGIC>MOL_PROPERTY
Pdih
SciTegic.value.DoubleValue
3.276

@<SCITEGIC>MOL_PROPERTY
Idih
SciTegic.value.DoubleValue
0.000

@<SCITEGIC>MOL_PROPERTY
Tether
SciTegic.value.DoubleValue
0.000

@<TRIPOS>MOLECULE
guest-3_vm2.mol2 : vm2 ligand conformer 264
          29          28           1
SMALL
USER_CHARGES
 
@<TRIPOS>ATOM
       1    C1      19.609056   19.572417   19.526309 C.3        1 MOL1        -0.2427
       2    H1      18.728958   19.667553   18.877150 H          1 MOL1         0.0958
       3    H2      20.226984   20.469477   19.389674 H          1 MOL1         0.0958
       4    H3      20.187200   18.703620   19.185452 H          1 MOL1         0.0958
       5    C2      19.183462   19.410800   21.000972 C.3        1 MOL1        -0.1412
       6    H4      18.535874   18.528441   21.090912 H          1 MOL1         0.0947
       7    H5      18.582652   20.279600   21.304071 H          1 MOL1         0.0947
       8    C3      20.408029   19.270916   21.935646 C.3        1 MOL1        -0.1437
       9    H6      20.983102   18.375887   21.661018 H          1 MOL1         0.0947
      10    H7      21.077913   20.127577   21.778637 H          1 MOL1         0.0947
      11    C4      20.034151   19.207607   23.436743 C.3        1 MOL1        -0.1437
      12    H8      19.487067   20.120756   23.703042 H          1 MOL1         0.0947
      13    H9      20.960383   19.206573   24.027410 H          1 MOL1         0.0947
      14    C5      19.190674   17.962994   23.806976 C.3        1 MOL1        -0.1437
      15    H10     18.184635   18.055023   23.376548 H          1 MOL1         0.0947
      16    H11     19.643163   17.076225   23.342110 H          1 MOL1         0.0947
      17    C6      19.068666   17.697622   25.329844 C.3        1 MOL1        -0.1437
      18    H12     20.061079   17.508689   25.759005 H          1 MOL1         0.0947
      19    H13     18.512434   16.758339   25.455078 H          1 MOL1         0.0947
      20    C7      18.325217   18.799945   26.131000 C.3        1 MOL1        -0.1477
      21    H14     17.470208   19.166363   25.547582 H          1 MOL1         0.0947
      22    H15     17.899724   18.352244   27.038965 H          1 MOL1         0.0947
      23    C8      19.205406   19.994638   26.554755 C.3        1 MOL1         0.0145
      24    H16     18.581197   20.741621   27.052601 H          1 MOL1         0.0921
      25    H17     19.658021   20.463650   25.679762 H          1 MOL1         0.0921
      26    N1      20.319338   19.621062   27.512755 N.4        1 MOL1        -0.5969
      27    H18     19.954662   19.201291   28.374156 H          1 MOL1         0.3603
      28    H19     20.874251   20.438461   27.789097 H          1 MOL1         0.3603
      29    H20     20.966406   18.944519   27.096289 H          1 MOL1         0.3603
@<TRIPOS>BOND
    1     1     2    1
    2     1     3    1
    3     1     4    1
    4     1     5    1
    5     5     6    1
    6     5     7    1
    7     5     8    1
    8     8     9    1
    9     8    10    1
   10     8    11    1
   11    11    12    1
   12    11    13    1
   13    11    14    1
   14    14    15    1
   15    14    16    1
   16    14    17    1
   17    17    18    1
   18    17    19    1
   19    17    20    1
   20    20    21    1
   21    20    22    1
   22    20    23    1
   23    23    24    1
   24    23    25    1
   25    23    26    1
   26    26    27    1
   27    26    28    1
   28    26    29    1
@<TRIPOS>SUBSTRUCTURE
       1 MOL1            1 RESIDUE      1      MOL     
@<SCITEGIC>MOL_PROPERTY
VM2 Rank
SciTegic.value.IntegerValue
264

@<SCITEGIC>MOL_PROPERTY
Conf_Id
SciTegic.value.IntegerValue
1831

@<SCITEGIC>MOL_PROPERTY
Probability
SciTegic.value.DoubleValue
0.01

@<SCITEGIC>MOL_PROPERTY
Sum Probability
SciTegic.value.DoubleValue
99.57

@<SCITEGIC>MOL_PROPERTY
Delta G
SciTegic.value.DoubleValue
3.943

@<SCITEGIC>MOL_PROPERTY
G
SciTegic.value.DoubleValue
62.091

@<SCITEGIC>MOL_PROPERTY
E
SciTegic.value.DoubleValue
24.390

@<SCITEGIC>MOL_PROPERTY
-TS
SciTegic.value.DoubleValue
37.702

@<SCITEGIC>MOL_PROPERTY
U+W
SciTegic.value.DoubleValue
0.245

@<SCITEGIC>MOL_PROPERTY
U
SciTegic.value.DoubleValue
52.451

@<SCITEGIC>MOL_PROPERTY
W
SciTegic.value.DoubleValue
-52.206

@<SCITEGIC>MOL_PROPERTY
W(PB)
SciTegic.value.DoubleValue
-54.694

@<SCITEGIC>MOL_PROPERTY
W(SA)
SciTegic.value.DoubleValue
2.488

@<SCITEGIC>MOL_PROPERTY
Valence
SciTegic.value.DoubleValue
5.609

@<SCITEGIC>MOL_PROPERTY
Coulomb
SciTegic.value.DoubleValue
46.005

@<SCITEGIC>MOL_PROPERTY
VdW
SciTegic.value.DoubleValue
0.837

@<SCITEGIC>MOL_PROPERTY
VdW6
SciTegic.value.DoubleValue
-9.912

@<SCITEGIC>MOL_PROPERTY
VdW12
SciTegic.value.DoubleValue
10.748

@<SCITEGIC>MOL_PROPERTY
Bond
SciTegic.value.DoubleValue
0.283

@<SCITEGIC>MOL_PROPERTY
Angle
SciTegic.value.DoubleValue
1.564

@<SCITEGIC>MOL_PROPERTY
Pdih
SciTegic.value.DoubleValue
3.761

@<SCITEGIC>MOL_PROPERTY
Idih
SciTegic.value.DoubleValue
0.000

@<SCITEGIC>MOL_PROPERTY
Tether
SciTegic.value.DoubleValue
0.000

@<TRIPOS>MOLECULE
guest-3_vm2.mol2 : vm2 ligand conformer 265
          29          28           1
SMALL
USER_CHARGES
 
@<TRIPOS>ATOM
       1    C1      21.280476   18.627736   20.429884 C.3        1 MOL1        -0.2427
       2    H1      21.930994   19.424068   20.814475 H          1 MOL1         0.0958
       3    H2      21.616540   17.674582   20.858593 H          1 MOL1         0.0958
       4    H3      21.418681   18.575509   19.342130 H          1 MOL1         0.0958
       5    C2      19.802313   18.902033   20.778685 C.3        1 MOL1        -0.1412
       6    H4      19.174022   18.107970   20.351406 H          1 MOL1         0.0947
       7    H5      19.485485   19.844227   20.309860 H          1 MOL1         0.0947
       8    C3      19.580540   18.979175   22.305338 C.3        1 MOL1        -0.1437
       9    H6      19.893552   18.033709   22.769205 H          1 MOL1         0.0947
      10    H7      20.219032   19.771566   22.716480 H          1 MOL1         0.0947
      11    C4      18.102847   19.266736   22.657823 C.3        1 MOL1        -0.1437
      12    H8      17.463060   18.546905   22.128843 H          1 MOL1         0.0947
      13    H9      17.823482   20.259476   22.278803 H          1 MOL1         0.0947
      14    C5      17.777467   19.181899   24.171359 C.3        1 MOL1        -0.1437
      15    H10     16.698611   19.356552   24.285034 H          1 MOL1         0.0947
      16    H11     17.947771   18.159432   24.532010 H          1 MOL1         0.0947
      17    C6      18.526313   20.215205   25.056751 C.3        1 MOL1        -0.1437
      18    H12     17.855591   20.536403   25.865838 H          1 MOL1         0.0947
      19    H13     18.736403   21.120647   24.470993 H          1 MOL1         0.0947
      20    C7      19.836194   19.692019   25.698913 C.3        1 MOL1        -0.1477
      21    H14     20.526816   19.328322   24.929992 H          1 MOL1         0.0947
      22    H15     20.341330   20.528991   26.199026 H          1 MOL1         0.0947
      23    C8      19.584423   18.576928   26.731348 C.3        1 MOL1         0.0145
      24    H16     19.117824   17.717004   26.244558 H          1 MOL1         0.0921
      25    H17     18.907610   18.941660   27.508674 H          1 MOL1         0.0921
      26    N1      20.853428   18.096269   27.404898 N.4        1 MOL1        -0.5969
      27    H18     21.523606   17.714738   26.729148 H          1 MOL1         0.3603
      28    H19     20.664165   17.355708   28.089295 H          1 MOL1         0.3603
      29    H20     21.328718   18.853046   27.907737 H          1 MOL1         0.3603
@<TRIPOS>BOND
    1     1     2    1
    2     1     3    1
    3     1     4    1
    4     1     5    1
    5     5     6    1
    6     5     7    1
    7     5     8    1
    8     8     9    1
    9     8    10    1
   10     8    11    1
   11    11    12    1
   12    11    13    1
   13    11    14    1
   14    14    15    1
   15    14    16    1
   16    14    17    1
   17    17    18    1
   18    17    19    1
   19    17    20    1
   20    20    21    1
   21    20    22    1
   22    20    23    1
   23    23    24    1
   24    23    25    1
   25    23    26    1
   26    26    27    1
   27    26    28    1
   28    26    29    1
@<TRIPOS>SUBSTRUCTURE
       1 MOL1            1 RESIDUE      1      MOL     
@<SCITEGIC>MOL_PROPERTY
VM2 Rank
SciTegic.value.IntegerValue
265

@<SCITEGIC>MOL_PROPERTY
Conf_Id
SciTegic.value.IntegerValue
998

@<SCITEGIC>MOL_PROPERTY
Probability
SciTegic.value.DoubleValue
0.01

@<SCITEGIC>MOL_PROPERTY
Sum Probability
SciTegic.value.DoubleValue
99.57

@<SCITEGIC>MOL_PROPERTY
Delta G
SciTegic.value.DoubleValue
3.956

@<SCITEGIC>MOL_PROPERTY
G
SciTegic.value.DoubleValue
62.104

@<SCITEGIC>MOL_PROPERTY
E
SciTegic.value.DoubleValue
24.480

@<SCITEGIC>MOL_PROPERTY
-TS
SciTegic.value.DoubleValue
37.624

@<SCITEGIC>MOL_PROPERTY
U+W
SciTegic.value.DoubleValue
0.335

@<SCITEGIC>MOL_PROPERTY
U
SciTegic.value.DoubleValue
52.594

@<SCITEGIC>MOL_PROPERTY
W
SciTegic.value.DoubleValue
-52.259

@<SCITEGIC>MOL_PROPERTY
W(PB)
SciTegic.value.DoubleValue
-54.742

@<SCITEGIC>MOL_PROPERTY
W(SA)
SciTegic.value.DoubleValue
2.483

@<SCITEGIC>MOL_PROPERTY
Valence
SciTegic.value.DoubleValue
6.024

@<SCITEGIC>MOL_PROPERTY
Coulomb
SciTegic.value.DoubleValue
45.774

@<SCITEGIC>MOL_PROPERTY
VdW
SciTegic.value.DoubleValue
0.796

@<SCITEGIC>MOL_PROPERTY
VdW6
SciTegic.value.DoubleValue
-9.191

@<SCITEGIC>MOL_PROPERTY
VdW12
SciTegic.value.DoubleValue
9.987

@<SCITEGIC>MOL_PROPERTY
Bond
SciTegic.value.DoubleValue
0.266

@<SCITEGIC>MOL_PROPERTY
Angle
SciTegic.value.DoubleValue
1.394

@<SCITEGIC>MOL_PROPERTY
Pdih
SciTegic.value.DoubleValue
4.365

@<SCITEGIC>MOL_PROPERTY
Idih
SciTegic.value.DoubleValue
0.000

@<SCITEGIC>MOL_PROPERTY
Tether
SciTegic.value.DoubleValue
0.000

@<TRIPOS>MOLECULE
guest-3_vm2.mol2 : vm2 ligand conformer 266
          29          28           1
SMALL
USER_CHARGES
 
@<TRIPOS>ATOM
       1    C1      20.386334   20.120358   20.311217 C.3        1 MOL1        -0.2427
       2    H1      19.331768   20.370702   20.141281 H          1 MOL1         0.0958
       3    H2      20.823256   20.891618   20.958725 H          1 MOL1         0.0958
       4    H3      20.897516   20.167091   19.340951 H          1 MOL1         0.0958
       5    C2      20.541521   18.716050   20.937464 C.3        1 MOL1        -0.1412
       6    H4      21.610120   18.463422   20.982047 H          1 MOL1         0.0947
       7    H5      20.075342   17.966192   20.283173 H          1 MOL1         0.0947
       8    C3      19.945713   18.611120   22.361882 C.3        1 MOL1        -0.1437
       9    H6      20.182681   17.618135   22.767690 H          1 MOL1         0.0947
      10    H7      20.440897   19.346027   23.009729 H          1 MOL1         0.0947
      11    C4      18.412827   18.824064   22.402214 C.3        1 MOL1        -0.1437
      12    H8      17.945502   18.198489   21.629357 H          1 MOL1         0.0947
      13    H9      18.175668   19.863783   22.140543 H          1 MOL1         0.0947
      14    C5      17.756603   18.484004   23.765231 C.3        1 MOL1        -0.1437
      15    H10     16.672060   18.618809   23.651160 H          1 MOL1         0.0947
      16    H11     17.898760   17.419917   23.999005 H          1 MOL1         0.0947
      17    C6      18.229228   19.365182   24.950939 C.3        1 MOL1        -0.1437
      18    H12     17.374765   19.531980   25.621619 H          1 MOL1         0.0947
      19    H13     18.527870   20.358422   24.587930 H          1 MOL1         0.0947
      20    C7      19.370806   18.727490   25.778486 C.3        1 MOL1        -0.1477
      21    H14     19.037114   17.761315   26.179809 H          1 MOL1         0.0947
      22    H15     20.241187   18.524080   25.144831 H          1 MOL1         0.0947
      23    C8      19.795564   19.640823   26.941564 C.3        1 MOL1         0.0145
      24    H16     18.938660   19.828543   27.594189 H          1 MOL1         0.0921
      25    H17     20.145286   20.599173   26.548244 H          1 MOL1         0.0921
      26    N1      20.905405   19.048908   27.786002 N.4        1 MOL1        -0.5969
      27    H18     21.752585   18.873885   27.235491 H          1 MOL1         0.3603
      28    H19     20.629201   18.156072   28.207977 H          1 MOL1         0.3603
      29    H20     21.172449   19.672997   28.555362 H          1 MOL1         0.3603
@<TRIPOS>BOND
    1     1     2    1
    2     1     3    1
    3     1     4    1
    4     1     5    1
    5     5     6    1
    6     5     7    1
    7     5     8    1
    8     8     9    1
    9     8    10    1
   10     8    11    1
   11    11    12    1
   12    11    13    1
   13    11    14    1
   14    14    15    1
   15    14    16    1
   16    14    17    1
   17    17    18    1
   18    17    19    1
   19    17    20    1
   20    20    21    1
   21    20    22    1
   22    20    23    1
   23    23    24    1
   24    23    25    1
   25    23    26    1
   26    26    27    1
   27    26    28    1
   28    26    29    1
@<TRIPOS>SUBSTRUCTURE
       1 MOL1            1 RESIDUE      1      MOL     
@<SCITEGIC>MOL_PROPERTY
VM2 Rank
SciTegic.value.IntegerValue
266

@<SCITEGIC>MOL_PROPERTY
Conf_Id
SciTegic.value.IntegerValue
559

@<SCITEGIC>MOL_PROPERTY
Probability
SciTegic.value.DoubleValue
0.01

@<SCITEGIC>MOL_PROPERTY
Sum Probability
SciTegic.value.DoubleValue
99.58

@<SCITEGIC>MOL_PROPERTY
Delta G
SciTegic.value.DoubleValue
3.966

@<SCITEGIC>MOL_PROPERTY
G
SciTegic.value.DoubleValue
62.114

@<SCITEGIC>MOL_PROPERTY
E
SciTegic.value.DoubleValue
24.426

@<SCITEGIC>MOL_PROPERTY
-TS
SciTegic.value.DoubleValue
37.688

@<SCITEGIC>MOL_PROPERTY
U+W
SciTegic.value.DoubleValue
0.281

@<SCITEGIC>MOL_PROPERTY
U
SciTegic.value.DoubleValue
52.336

@<SCITEGIC>MOL_PROPERTY
W
SciTegic.value.DoubleValue
-52.055

@<SCITEGIC>MOL_PROPERTY
W(PB)
SciTegic.value.DoubleValue
-54.553

@<SCITEGIC>MOL_PROPERTY
W(SA)
SciTegic.value.DoubleValue
2.498

@<SCITEGIC>MOL_PROPERTY
Valence
SciTegic.value.DoubleValue
6.070

@<SCITEGIC>MOL_PROPERTY
Coulomb
SciTegic.value.DoubleValue
45.396

@<SCITEGIC>MOL_PROPERTY
VdW
SciTegic.value.DoubleValue
0.870

@<SCITEGIC>MOL_PROPERTY
VdW6
SciTegic.value.DoubleValue
-9.252

@<SCITEGIC>MOL_PROPERTY
VdW12
SciTegic.value.DoubleValue
10.122

@<SCITEGIC>MOL_PROPERTY
Bond
SciTegic.value.DoubleValue
0.266

@<SCITEGIC>MOL_PROPERTY
Angle
SciTegic.value.DoubleValue
1.373

@<SCITEGIC>MOL_PROPERTY
Pdih
SciTegic.value.DoubleValue
4.431

@<SCITEGIC>MOL_PROPERTY
Idih
SciTegic.value.DoubleValue
0.000

@<SCITEGIC>MOL_PROPERTY
Tether
SciTegic.value.DoubleValue
0.000

@<TRIPOS>MOLECULE
guest-3_vm2.mol2 : vm2 ligand conformer 267
          29          28           1
SMALL
USER_CHARGES
 
@<TRIPOS>ATOM
       1    C1      21.077514   18.540173   21.092159 C.3        1 MOL1        -0.2427
       2    H1      22.024903   18.598432   20.540884 H          1 MOL1         0.0958
       3    H2      21.315472   18.614175   22.160390 H          1 MOL1         0.0958
       4    H3      20.635887   17.554096   20.898587 H          1 MOL1         0.0958
       5    C2      20.126035   19.673315   20.650595 C.3        1 MOL1        -0.1412
       6    H4      20.054987   19.666414   19.553958 H          1 MOL1         0.0947
       7    H5      20.565569   20.643606   20.920808 H          1 MOL1         0.0947
       8    C3      18.694534   19.570336   21.236185 C.3        1 MOL1        -0.1437
       9    H6      18.106607   20.399092   20.818046 H          1 MOL1         0.0947
      10    H7      18.206518   18.652724   20.880119 H          1 MOL1         0.0947
      11    C4      18.618697   19.657014   22.782980 C.3        1 MOL1        -0.1437
      12    H8      17.697984   20.190875   23.055744 H          1 MOL1         0.0947
      13    H9      19.448634   20.269710   23.157390 H          1 MOL1         0.0947
      14    C5      18.594730   18.269947   23.475960 C.3        1 MOL1        -0.1437
      15    H10     17.755644   17.687248   23.071654 H          1 MOL1         0.0947
      16    H11     19.501134   17.701381   23.237093 H          1 MOL1         0.0947
      17    C6      18.434136   18.351705   25.013700 C.3        1 MOL1        -0.1437
      18    H12     18.285517   17.334699   25.402645 H          1 MOL1         0.0947
      19    H13     17.522095   18.912574   25.260900 H          1 MOL1         0.0947
      20    C7      19.649423   18.988125   25.728132 C.3        1 MOL1        -0.1477
      21    H14     20.566871   18.457688   25.440362 H          1 MOL1         0.0947
      22    H15     19.767901   20.033192   25.416004 H          1 MOL1         0.0947
      23    C8      19.488507   18.937942   27.257554 C.3        1 MOL1         0.0145
      24    H16     19.388733   17.899070   27.583472 H          1 MOL1         0.0921
      25    H17     18.584747   19.479058   27.550571 H          1 MOL1         0.0921
      26    N1      20.660424   19.549442   27.997735 N.4        1 MOL1        -0.5969
      27    H18     21.539896   19.066770   27.785499 H          1 MOL1         0.3603
      28    H19     20.533175   19.505301   29.014878 H          1 MOL1         0.3603
      29    H20     20.791639   20.537194   27.755680 H          1 MOL1         0.3603
@<TRIPOS>BOND
    1     1     2    1
    2     1     3    1
    3     1     4    1
    4     1     5    1
    5     5     6    1
    6     5     7    1
    7     5     8    1
    8     8     9    1
    9     8    10    1
   10     8    11    1
   11    11    12    1
   12    11    13    1
   13    11    14    1
   14    14    15    1
   15    14    16    1
   16    14    17    1
   17    17    18    1
   18    17    19    1
   19    17    20    1
   20    20    21    1
   21    20    22    1
   22    20    23    1
   23    23    24    1
   24    23    25    1
   25    23    26    1
   26    26    27    1
   27    26    28    1
   28    26    29    1
@<TRIPOS>SUBSTRUCTURE
       1 MOL1            1 RESIDUE      1      MOL     
@<SCITEGIC>MOL_PROPERTY
VM2 Rank
SciTegic.value.IntegerValue
267

@<SCITEGIC>MOL_PROPERTY
Conf_Id
SciTegic.value.IntegerValue
2636

@<SCITEGIC>MOL_PROPERTY
Probability
SciTegic.value.DoubleValue
0.01

@<SCITEGIC>MOL_PROPERTY
Sum Probability
SciTegic.value.DoubleValue
99.59

@<SCITEGIC>MOL_PROPERTY
Delta G
SciTegic.value.DoubleValue
3.970

@<SCITEGIC>MOL_PROPERTY
G
SciTegic.value.DoubleValue
62.118

@<SCITEGIC>MOL_PROPERTY
E
SciTegic.value.DoubleValue
24.520

@<SCITEGIC>MOL_PROPERTY
-TS
SciTegic.value.DoubleValue
37.598

@<SCITEGIC>MOL_PROPERTY
U+W
SciTegic.value.DoubleValue
0.376

@<SCITEGIC>MOL_PROPERTY
U
SciTegic.value.DoubleValue
52.143

@<SCITEGIC>MOL_PROPERTY
W
SciTegic.value.DoubleValue
-51.768

@<SCITEGIC>MOL_PROPERTY
W(PB)
SciTegic.value.DoubleValue
-54.231

@<SCITEGIC>MOL_PROPERTY
W(SA)
SciTegic.value.DoubleValue
2.463

@<SCITEGIC>MOL_PROPERTY
Valence
SciTegic.value.DoubleValue
6.080

@<SCITEGIC>MOL_PROPERTY
Coulomb
SciTegic.value.DoubleValue
45.180

@<SCITEGIC>MOL_PROPERTY
VdW
SciTegic.value.DoubleValue
0.883

@<SCITEGIC>MOL_PROPERTY
VdW6
SciTegic.value.DoubleValue
-9.250

@<SCITEGIC>MOL_PROPERTY
VdW12
SciTegic.value.DoubleValue
10.134

@<SCITEGIC>MOL_PROPERTY
Bond
SciTegic.value.DoubleValue
0.274

@<SCITEGIC>MOL_PROPERTY
Angle
SciTegic.value.DoubleValue
1.425

@<SCITEGIC>MOL_PROPERTY
Pdih
SciTegic.value.DoubleValue
4.380

@<SCITEGIC>MOL_PROPERTY
Idih
SciTegic.value.DoubleValue
0.000

@<SCITEGIC>MOL_PROPERTY
Tether
SciTegic.value.DoubleValue
0.000

@<TRIPOS>MOLECULE
guest-3_vm2.mol2 : vm2 ligand conformer 268
          29          28           1
SMALL
USER_CHARGES
 
@<TRIPOS>ATOM
       1    C1      20.447631   17.854098   20.387259 C.3        1 MOL1        -0.2427
       2    H1      19.726516   17.036185   20.514631 H          1 MOL1         0.0958
       3    H2      20.227796   18.359244   19.437676 H          1 MOL1         0.0958
       4    H3      21.449199   17.411602   20.309421 H          1 MOL1         0.0958
       5    C2      20.379126   18.842357   21.570612 C.3        1 MOL1        -0.1412
       6    H4      21.130514   19.631905   21.430585 H          1 MOL1         0.0947
       7    H5      20.643193   18.310308   22.494195 H          1 MOL1         0.0947
       8    C3      18.974354   19.476087   21.703286 C.3        1 MOL1        -0.1437
       9    H6      18.698689   19.935745   20.744181 H          1 MOL1         0.0947
      10    H7      18.228869   18.690881   21.886018 H          1 MOL1         0.0947
      11    C4      18.883672   20.561246   22.807310 C.3        1 MOL1        -0.1437
      12    H8      17.869144   20.983000   22.804288 H          1 MOL1         0.0947
      13    H9      19.554207   21.391692   22.546762 H          1 MOL1         0.0947
      14    C5      19.222334   20.077234   24.240737 C.3        1 MOL1        -0.1437
      15    H10     20.274719   19.773044   24.278722 H          1 MOL1         0.0947
      16    H11     19.117886   20.929264   24.926471 H          1 MOL1         0.0947
      17    C6      18.315508   18.919331   24.726413 C.3        1 MOL1        -0.1437
      18    H12     18.532825   18.009644   24.150738 H          1 MOL1         0.0947
      19    H13     17.268485   19.175825   24.514013 H          1 MOL1         0.0947
      20    C7      18.438618   18.602375   26.238531 C.3        1 MOL1        -0.1477
      21    H14     18.174594   19.484019   26.837559 H          1 MOL1         0.0947
      22    H15     17.690848   17.836496   26.483656 H          1 MOL1         0.0947
      23    C8      19.819341   18.064635   26.667899 C.3        1 MOL1         0.0145
      24    H16     20.195890   17.366166   25.915822 H          1 MOL1         0.0921
      25    H17     19.712530   17.522392   27.611315 H          1 MOL1         0.0921
      26    N1      20.863415   19.140636   26.892953 N.4        1 MOL1        -0.5969
      27    H18     21.026475   19.693714   26.046928 H          1 MOL1         0.3603
      28    H19     21.765878   18.741815   27.174245 H          1 MOL1         0.3603
      29    H20     20.581454   19.792972   27.632062 H          1 MOL1         0.3603
@<TRIPOS>BOND
    1     1     2    1
    2     1     3    1
    3     1     4    1
    4     1     5    1
    5     5     6    1
    6     5     7    1
    7     5     8    1
    8     8     9    1
    9     8    10    1
   10     8    11    1
   11    11    12    1
   12    11    13    1
   13    11    14    1
   14    14    15    1
   15    14    16    1
   16    14    17    1
   17    17    18    1
   18    17    19    1
   19    17    20    1
   20    20    21    1
   21    20    22    1
   22    20    23    1
   23    23    24    1
   24    23    25    1
   25    23    26    1
   26    26    27    1
   27    26    28    1
   28    26    29    1
@<TRIPOS>SUBSTRUCTURE
       1 MOL1            1 RESIDUE      1      MOL     
@<SCITEGIC>MOL_PROPERTY
VM2 Rank
SciTegic.value.IntegerValue
268

@<SCITEGIC>MOL_PROPERTY
Conf_Id
SciTegic.value.IntegerValue
528

@<SCITEGIC>MOL_PROPERTY
Probability
SciTegic.value.DoubleValue
0.01

@<SCITEGIC>MOL_PROPERTY
Sum Probability
SciTegic.value.DoubleValue
99.59

@<SCITEGIC>MOL_PROPERTY
Delta G
SciTegic.value.DoubleValue
3.972

@<SCITEGIC>MOL_PROPERTY
G
SciTegic.value.DoubleValue
62.120

@<SCITEGIC>MOL_PROPERTY
E
SciTegic.value.DoubleValue
24.311

@<SCITEGIC>MOL_PROPERTY
-TS
SciTegic.value.DoubleValue
37.808

@<SCITEGIC>MOL_PROPERTY
U+W
SciTegic.value.DoubleValue
0.167

@<SCITEGIC>MOL_PROPERTY
U
SciTegic.value.DoubleValue
52.644

@<SCITEGIC>MOL_PROPERTY
W
SciTegic.value.DoubleValue
-52.477

@<SCITEGIC>MOL_PROPERTY
W(PB)
SciTegic.value.DoubleValue
-54.890

@<SCITEGIC>MOL_PROPERTY
W(SA)
SciTegic.value.DoubleValue
2.412

@<SCITEGIC>MOL_PROPERTY
Valence
SciTegic.value.DoubleValue
5.097

@<SCITEGIC>MOL_PROPERTY
Coulomb
SciTegic.value.DoubleValue
46.891

@<SCITEGIC>MOL_PROPERTY
VdW
SciTegic.value.DoubleValue
0.657

@<SCITEGIC>MOL_PROPERTY
VdW6
SciTegic.value.DoubleValue
-10.250

@<SCITEGIC>MOL_PROPERTY
VdW12
SciTegic.value.DoubleValue
10.907

@<SCITEGIC>MOL_PROPERTY
Bond
SciTegic.value.DoubleValue
0.285

@<SCITEGIC>MOL_PROPERTY
Angle
SciTegic.value.DoubleValue
1.535

@<SCITEGIC>MOL_PROPERTY
Pdih
SciTegic.value.DoubleValue
3.277

@<SCITEGIC>MOL_PROPERTY
Idih
SciTegic.value.DoubleValue
0.000

@<SCITEGIC>MOL_PROPERTY
Tether
SciTegic.value.DoubleValue
0.000

@<TRIPOS>MOLECULE
guest-3_vm2.mol2 : vm2 ligand conformer 269
          29          28           1
SMALL
USER_CHARGES
 
@<TRIPOS>ATOM
       1    C1      20.930423   20.136846   20.881820 C.3        1 MOL1        -0.2427
       2    H1      21.522048   19.245955   20.634199 H          1 MOL1         0.0958
       3    H2      21.214869   20.933802   20.182628 H          1 MOL1         0.0958
       4    H3      21.210705   20.467426   21.889582 H          1 MOL1         0.0958
       5    C2      19.416230   19.844100   20.780571 C.3        1 MOL1        -0.1412
       6    H4      19.164513   19.641111   19.730248 H          1 MOL1         0.0947
       7    H5      18.846942   20.739860   21.065598 H          1 MOL1         0.0947
       8    C3      18.962529   18.640146   21.640985 C.3        1 MOL1        -0.1437
       9    H6      17.904419   18.437765   21.424995 H          1 MOL1         0.0947
      10    H7      19.517636   17.741871   21.337352 H          1 MOL1         0.0947
      11    C4      19.134506   18.870411   23.161513 C.3        1 MOL1        -0.1437
      12    H8      18.617202   19.794528   23.453283 H          1 MOL1         0.0947
      13    H9      20.199166   19.003772   23.385615 H          1 MOL1         0.0947
      14    C5      18.586330   17.683084   23.986888 C.3        1 MOL1        -0.1437
      15    H10     17.570113   17.447274   23.641967 H          1 MOL1         0.0947
      16    H11     19.191753   16.788739   23.784808 H          1 MOL1         0.0947
      17    C6      18.527474   17.932871   25.516229 C.3        1 MOL1        -0.1437
      18    H12     18.079828   17.041469   25.977036 H          1 MOL1         0.0947
      19    H13     17.833606   18.754754   25.734904 H          1 MOL1         0.0947
      20    C7      19.901393   18.181039   26.194742 C.3        1 MOL1        -0.1477
      21    H14     19.837865   17.876029   27.247750 H          1 MOL1         0.0947
      22    H15     20.660578   17.531601   25.739130 H          1 MOL1         0.0947
      23    C8      20.385190   19.646003   26.149556 C.3        1 MOL1         0.0145
      24    H16     20.439366   19.997952   25.118081 H          1 MOL1         0.0921
      25    H17     21.388371   19.706398   26.580210 H          1 MOL1         0.0921
      26    N1      19.499925   20.603499   26.922696 N.4        1 MOL1        -0.5969
      27    H18     18.546035   20.623509   26.549114 H          1 MOL1         0.3603
      28    H19     19.857281   21.564519   26.888690 H          1 MOL1         0.3603
      29    H20     19.432588   20.343663   27.912220 H          1 MOL1         0.3603
@<TRIPOS>BOND
    1     1     2    1
    2     1     3    1
    3     1     4    1
    4     1     5    1
    5     5     6    1
    6     5     7    1
    7     5     8    1
    8     8     9    1
    9     8    10    1
   10     8    11    1
   11    11    12    1
   12    11    13    1
   13    11    14    1
   14    14    15    1
   15    14    16    1
   16    14    17    1
   17    17    18    1
   18    17    19    1
   19    17    20    1
   20    20    21    1
   21    20    22    1
   22    20    23    1
   23    23    24    1
   24    23    25    1
   25    23    26    1
   26    26    27    1
   27    26    28    1
   28    26    29    1
@<TRIPOS>SUBSTRUCTURE
       1 MOL1            1 RESIDUE      1      MOL     
@<SCITEGIC>MOL_PROPERTY
VM2 Rank
SciTegic.value.IntegerValue
269

@<SCITEGIC>MOL_PROPERTY
Conf_Id
SciTegic.value.IntegerValue
113

@<SCITEGIC>MOL_PROPERTY
Probability
SciTegic.value.DoubleValue
0.01

@<SCITEGIC>MOL_PROPERTY
Sum Probability
SciTegic.value.DoubleValue
99.60

@<SCITEGIC>MOL_PROPERTY
Delta G
SciTegic.value.DoubleValue
3.983

@<SCITEGIC>MOL_PROPERTY
G
SciTegic.value.DoubleValue
62.131

@<SCITEGIC>MOL_PROPERTY
E
SciTegic.value.DoubleValue
24.424

@<SCITEGIC>MOL_PROPERTY
-TS
SciTegic.value.DoubleValue
37.707

@<SCITEGIC>MOL_PROPERTY
U+W
SciTegic.value.DoubleValue
0.279

@<SCITEGIC>MOL_PROPERTY
U
SciTegic.value.DoubleValue
52.636

@<SCITEGIC>MOL_PROPERTY
W
SciTegic.value.DoubleValue
-52.357

@<SCITEGIC>MOL_PROPERTY
W(PB)
SciTegic.value.DoubleValue
-54.801

@<SCITEGIC>MOL_PROPERTY
W(SA)
SciTegic.value.DoubleValue
2.445

@<SCITEGIC>MOL_PROPERTY
Valence
SciTegic.value.DoubleValue
5.624

@<SCITEGIC>MOL_PROPERTY
Coulomb
SciTegic.value.DoubleValue
46.167

@<SCITEGIC>MOL_PROPERTY
VdW
SciTegic.value.DoubleValue
0.845

@<SCITEGIC>MOL_PROPERTY
VdW6
SciTegic.value.DoubleValue
-9.932

@<SCITEGIC>MOL_PROPERTY
VdW12
SciTegic.value.DoubleValue
10.777

@<SCITEGIC>MOL_PROPERTY
Bond
SciTegic.value.DoubleValue
0.284

@<SCITEGIC>MOL_PROPERTY
Angle
SciTegic.value.DoubleValue
1.571

@<SCITEGIC>MOL_PROPERTY
Pdih
SciTegic.value.DoubleValue
3.768

@<SCITEGIC>MOL_PROPERTY
Idih
SciTegic.value.DoubleValue
0.000

@<SCITEGIC>MOL_PROPERTY
Tether
SciTegic.value.DoubleValue
0.000

@<TRIPOS>MOLECULE
guest-3_vm2.mol2 : vm2 ligand conformer 270
          29          28           1
SMALL
USER_CHARGES
 
@<TRIPOS>ATOM
       1    C1      20.788066   19.359785   20.286511 C.3        1 MOL1        -0.2427
       2    H1      21.120846   19.973996   21.130211 H          1 MOL1         0.0958
       3    H2      21.681238   18.921850   19.822466 H          1 MOL1         0.0958
       4    H3      20.321131   20.024170   19.547874 H          1 MOL1         0.0958
       5    C2      19.807503   18.247723   20.726156 C.3        1 MOL1        -0.1412
       6    H4      20.303217   17.553596   21.418978 H          1 MOL1         0.0947
       7    H5      19.549125   17.654858   19.837557 H          1 MOL1         0.0947
       8    C3      18.497795   18.791210   21.353281 C.3        1 MOL1        -0.1437
       9    H6      18.241983   19.765867   20.915444 H          1 MOL1         0.0947
      10    H7      17.678602   18.115912   21.070003 H          1 MOL1         0.0947
      11    C4      18.507572   18.886345   22.900818 C.3        1 MOL1        -0.1437
      12    H8      18.670039   17.884159   23.318894 H          1 MOL1         0.0947
      13    H9      17.508147   19.200112   23.232116 H          1 MOL1         0.0947
      14    C5      19.558340   19.869751   23.471255 C.3        1 MOL1        -0.1437
      15    H10     20.568317   19.476277   23.297725 H          1 MOL1         0.0947
      16    H11     19.491649   20.822224   22.927810 H          1 MOL1         0.0947
      17    C6      19.380228   20.152100   24.983146 C.3        1 MOL1        -0.1437
      18    H12     18.381395   20.572818   25.164395 H          1 MOL1         0.0947
      19    H13     20.099838   20.927559   25.280571 H          1 MOL1         0.0947
      20    C7      19.589355   18.904112   25.872427 C.3        1 MOL1        -0.1477
      21    H14     18.829866   18.145844   25.643573 H          1 MOL1         0.0947
      22    H15     20.569166   18.457127   25.657780 H          1 MOL1         0.0947
      23    C8      19.506735   19.261447   27.366756 C.3        1 MOL1         0.0145
      24    H16     18.526578   19.692161   27.588625 H          1 MOL1         0.0921
      25    H17     20.272047   20.003148   27.610913 H          1 MOL1         0.0921
      26    N1      19.708407   18.065528   28.274651 N.4        1 MOL1        -0.5969
      27    H18     19.001461   17.340382   28.113821 H          1 MOL1         0.3603
      28    H19     19.649891   18.325514   29.265462 H          1 MOL1         0.3603
      29    H20     20.625875   17.629709   28.133869 H          1 MOL1         0.3603
@<TRIPOS>BOND
    1     1     2    1
    2     1     3    1
    3     1     4    1
    4     1     5    1
    5     5     6    1
    6     5     7    1
    7     5     8    1
    8     8     9    1
    9     8    10    1
   10     8    11    1
   11    11    12    1
   12    11    13    1
   13    11    14    1
   14    14    15    1
   15    14    16    1
   16    14    17    1
   17    17    18    1
   18    17    19    1
   19    17    20    1
   20    20    21    1
   21    20    22    1
   22    20    23    1
   23    23    24    1
   24    23    25    1
   25    23    26    1
   26    26    27    1
   27    26    28    1
   28    26    29    1
@<TRIPOS>SUBSTRUCTURE
       1 MOL1            1 RESIDUE      1      MOL     
@<SCITEGIC>MOL_PROPERTY
VM2 Rank
SciTegic.value.IntegerValue
270

@<SCITEGIC>MOL_PROPERTY
Conf_Id
SciTegic.value.IntegerValue
1954

@<SCITEGIC>MOL_PROPERTY
Probability
SciTegic.value.DoubleValue
0.01

@<SCITEGIC>MOL_PROPERTY
Sum Probability
SciTegic.value.DoubleValue
99.61

@<SCITEGIC>MOL_PROPERTY
Delta G
SciTegic.value.DoubleValue
4.006

@<SCITEGIC>MOL_PROPERTY
G
SciTegic.value.DoubleValue
62.154

@<SCITEGIC>MOL_PROPERTY
E
SciTegic.value.DoubleValue
24.509

@<SCITEGIC>MOL_PROPERTY
-TS
SciTegic.value.DoubleValue
37.645

@<SCITEGIC>MOL_PROPERTY
U+W
SciTegic.value.DoubleValue
0.365

@<SCITEGIC>MOL_PROPERTY
U
SciTegic.value.DoubleValue
51.963

@<SCITEGIC>MOL_PROPERTY
W
SciTegic.value.DoubleValue
-51.598

@<SCITEGIC>MOL_PROPERTY
W(PB)
SciTegic.value.DoubleValue
-54.096

@<SCITEGIC>MOL_PROPERTY
W(SA)
SciTegic.value.DoubleValue
2.497

@<SCITEGIC>MOL_PROPERTY
Valence
SciTegic.value.DoubleValue
6.066

@<SCITEGIC>MOL_PROPERTY
Coulomb
SciTegic.value.DoubleValue
44.963

@<SCITEGIC>MOL_PROPERTY
VdW
SciTegic.value.DoubleValue
0.934

@<SCITEGIC>MOL_PROPERTY
VdW6
SciTegic.value.DoubleValue
-9.161

@<SCITEGIC>MOL_PROPERTY
VdW12
SciTegic.value.DoubleValue
10.095

@<SCITEGIC>MOL_PROPERTY
Bond
SciTegic.value.DoubleValue
0.266

@<SCITEGIC>MOL_PROPERTY
Angle
SciTegic.value.DoubleValue
1.416

@<SCITEGIC>MOL_PROPERTY
Pdih
SciTegic.value.DoubleValue
4.384

@<SCITEGIC>MOL_PROPERTY
Idih
SciTegic.value.DoubleValue
0.000

@<SCITEGIC>MOL_PROPERTY
Tether
SciTegic.value.DoubleValue
0.000

@<TRIPOS>MOLECULE
guest-3_vm2.mol2 : vm2 ligand conformer 271
          29          28           1
SMALL
USER_CHARGES
 
@<TRIPOS>ATOM
       1    C1      20.355165   18.146035   20.259239 C.3        1 MOL1        -0.2427
       2    H1      21.330465   17.938360   19.800387 H          1 MOL1         0.0958
       3    H2      20.212466   17.426932   21.073091 H          1 MOL1         0.0958
       4    H3      19.583838   17.956704   19.501460 H          1 MOL1         0.0958
       5    C2      20.292807   19.609012   20.756516 C.3        1 MOL1        -0.1412
       6    H4      20.480134   20.266334   19.895881 H          1 MOL1         0.0947
       7    H5      21.105962   19.805006   21.469196 H          1 MOL1         0.0947
       8    C3      18.925900   19.991943   21.380159 C.3        1 MOL1        -0.1437
       9    H6      18.722478   21.043668   21.135530 H          1 MOL1         0.0947
      10    H7      18.117549   19.417079   20.907720 H          1 MOL1         0.0947
      11    C4      18.851534   19.850769   22.922417 C.3        1 MOL1        -0.1437
      12    H8      17.874361   20.226880   23.255182 H          1 MOL1         0.0947
      13    H9      19.605242   20.506788   23.377527 H          1 MOL1         0.0947
      14    C5      19.035501   18.402858   23.438466 C.3        1 MOL1        -0.1437
      15    H10     18.389234   17.729688   22.858666 H          1 MOL1         0.0947
      16    H11     20.069050   18.075512   23.266394 H          1 MOL1         0.0947
      17    C6      18.697625   18.237043   24.940334 C.3        1 MOL1        -0.1437
      18    H12     18.760631   17.170269   25.196577 H          1 MOL1         0.0947
      19    H13     17.655308   18.535770   25.118827 H          1 MOL1         0.0947
      20    C7      19.636004   19.035252   25.875396 C.3        1 MOL1        -0.1477
      21    H14     20.680671   18.770271   25.664795 H          1 MOL1         0.0947
      22    H15     19.530191   20.111220   25.687607 H          1 MOL1         0.0947
      23    C8      19.325005   18.751620   27.355385 C.3        1 MOL1         0.0145
      24    H16     19.445559   17.684177   27.559017 H          1 MOL1         0.0921
      25    H17     18.290263   19.029143   27.573870 H          1 MOL1         0.0921
      26    N1      20.224459   19.513468   28.307089 N.4        1 MOL1        -0.5969
      27    H18     21.212724   19.276350   28.170659 H          1 MOL1         0.3603
      28    H19     20.000835   19.309860   29.287528 H          1 MOL1         0.3603
      29    H20     20.137430   20.527896   28.185278 H          1 MOL1         0.3603
@<TRIPOS>BOND
    1     1     2    1
    2     1     3    1
    3     1     4    1
    4     1     5    1
    5     5     6    1
    6     5     7    1
    7     5     8    1
    8     8     9    1
    9     8    10    1
   10     8    11    1
   11    11    12    1
   12    11    13    1
   13    11    14    1
   14    14    15    1
   15    14    16    1
   16    14    17    1
   17    17    18    1
   18    17    19    1
   19    17    20    1
   20    20    21    1
   21    20    22    1
   22    20    23    1
   23    23    24    1
   24    23    25    1
   25    23    26    1
   26    26    27    1
   27    26    28    1
   28    26    29    1
@<TRIPOS>SUBSTRUCTURE
       1 MOL1            1 RESIDUE      1      MOL     
@<SCITEGIC>MOL_PROPERTY
VM2 Rank
SciTegic.value.IntegerValue
271

@<SCITEGIC>MOL_PROPERTY
Conf_Id
SciTegic.value.IntegerValue
2324

@<SCITEGIC>MOL_PROPERTY
Probability
SciTegic.value.DoubleValue
0.01

@<SCITEGIC>MOL_PROPERTY
Sum Probability
SciTegic.value.DoubleValue
99.61

@<SCITEGIC>MOL_PROPERTY
Delta G
SciTegic.value.DoubleValue
4.015

@<SCITEGIC>MOL_PROPERTY
G
SciTegic.value.DoubleValue
62.163

@<SCITEGIC>MOL_PROPERTY
E
SciTegic.value.DoubleValue
24.518

@<SCITEGIC>MOL_PROPERTY
-TS
SciTegic.value.DoubleValue
37.645

@<SCITEGIC>MOL_PROPERTY
U+W
SciTegic.value.DoubleValue
0.373

@<SCITEGIC>MOL_PROPERTY
U
SciTegic.value.DoubleValue
51.963

@<SCITEGIC>MOL_PROPERTY
W
SciTegic.value.DoubleValue
-51.590

@<SCITEGIC>MOL_PROPERTY
W(PB)
SciTegic.value.DoubleValue
-54.078

@<SCITEGIC>MOL_PROPERTY
W(SA)
SciTegic.value.DoubleValue
2.488

@<SCITEGIC>MOL_PROPERTY
Valence
SciTegic.value.DoubleValue
6.067

@<SCITEGIC>MOL_PROPERTY
Coulomb
SciTegic.value.DoubleValue
44.963

@<SCITEGIC>MOL_PROPERTY
VdW
SciTegic.value.DoubleValue
0.933

@<SCITEGIC>MOL_PROPERTY
VdW6
SciTegic.value.DoubleValue
-9.161

@<SCITEGIC>MOL_PROPERTY
VdW12
SciTegic.value.DoubleValue
10.094

@<SCITEGIC>MOL_PROPERTY
Bond
SciTegic.value.DoubleValue
0.266

@<SCITEGIC>MOL_PROPERTY
Angle
SciTegic.value.DoubleValue
1.416

@<SCITEGIC>MOL_PROPERTY
Pdih
SciTegic.value.DoubleValue
4.384

@<SCITEGIC>MOL_PROPERTY
Idih
SciTegic.value.DoubleValue
0.000

@<SCITEGIC>MOL_PROPERTY
Tether
SciTegic.value.DoubleValue
0.000

@<TRIPOS>MOLECULE
guest-3_vm2.mol2 : vm2 ligand conformer 272
          29          28           1
SMALL
USER_CHARGES
 
@<TRIPOS>ATOM
       1    C1      21.206380   18.672466   21.191994 C.3        1 MOL1        -0.2427
       2    H1      21.279564   18.242947   22.198889 H          1 MOL1         0.0958
       3    H2      21.642427   17.948613   20.491479 H          1 MOL1         0.0958
       4    H3      21.819317   19.582532   21.160212 H          1 MOL1         0.0958
       5    C2      19.739779   18.977423   20.812026 C.3        1 MOL1        -0.1412
       6    H4      19.142697   18.057610   20.872258 H          1 MOL1         0.0947
       7    H5      19.704957   19.290318   19.759180 H          1 MOL1         0.0947
       8    C3      19.097235   20.090248   21.678734 C.3        1 MOL1        -0.1437
       9    H6      19.644427   21.028844   21.515382 H          1 MOL1         0.0947
      10    H7      18.074793   20.272229   21.320134 H          1 MOL1         0.0947
      11    C4      19.053274   19.797611   23.200517 C.3        1 MOL1        -0.1437
      12    H8      18.589488   20.655786   23.705729 H          1 MOL1         0.0947
      13    H9      20.078286   19.727123   23.583890 H          1 MOL1         0.0947
      14    C5      18.266464   18.512215   23.555370 C.3        1 MOL1        -0.1437
      15    H10     17.309590   18.520615   23.015540 H          1 MOL1         0.0947
      16    H11     18.814497   17.631484   23.194966 H          1 MOL1         0.0947
      17    C6      17.967902   18.338803   25.066958 C.3        1 MOL1        -0.1437
      18    H12     17.359865   17.430815   25.182045 H          1 MOL1         0.0947
      19    H13     17.338971   19.165320   25.425887 H          1 MOL1         0.0947
      20    C7      19.221608   18.195502   25.966164 C.3        1 MOL1        -0.1477
      21    H14     18.946919   17.617026   26.858292 H          1 MOL1         0.0947
      22    H15     19.994862   17.614864   25.445760 H          1 MOL1         0.0947
      23    C8      19.790890   19.549776   26.431489 C.3        1 MOL1         0.0145
      24    H16     19.024070   20.098132   26.985229 H          1 MOL1         0.0921
      25    H17     20.086799   20.152722   25.571220 H          1 MOL1         0.0921
      26    N1      21.000469   19.403957   27.331748 N.4        1 MOL1        -0.5969
      27    H18     20.782055   18.872098   28.180788 H          1 MOL1         0.3603
      28    H19     21.362053   20.315023   27.634760 H          1 MOL1         0.3603
      29    H20     21.770676   18.917872   26.860750 H          1 MOL1         0.3603
@<TRIPOS>BOND
    1     1     2    1
    2     1     3    1
    3     1     4    1
    4     1     5    1
    5     5     6    1
    6     5     7    1
    7     5     8    1
    8     8     9    1
    9     8    10    1
   10     8    11    1
   11    11    12    1
   12    11    13    1
   13    11    14    1
   14    14    15    1
   15    14    16    1
   16    14    17    1
   17    17    18    1
   18    17    19    1
   19    17    20    1
   20    20    21    1
   21    20    22    1
   22    20    23    1
   23    23    24    1
   24    23    25    1
   25    23    26    1
   26    26    27    1
   27    26    28    1
   28    26    29    1
@<TRIPOS>SUBSTRUCTURE
       1 MOL1            1 RESIDUE      1      MOL     
@<SCITEGIC>MOL_PROPERTY
VM2 Rank
SciTegic.value.IntegerValue
272

@<SCITEGIC>MOL_PROPERTY
Conf_Id
SciTegic.value.IntegerValue
976

@<SCITEGIC>MOL_PROPERTY
Probability
SciTegic.value.DoubleValue
0.01

@<SCITEGIC>MOL_PROPERTY
Sum Probability
SciTegic.value.DoubleValue
99.62

@<SCITEGIC>MOL_PROPERTY
Delta G
SciTegic.value.DoubleValue
4.029

@<SCITEGIC>MOL_PROPERTY
G
SciTegic.value.DoubleValue
62.177

@<SCITEGIC>MOL_PROPERTY
E
SciTegic.value.DoubleValue
24.218

@<SCITEGIC>MOL_PROPERTY
-TS
SciTegic.value.DoubleValue
37.959

@<SCITEGIC>MOL_PROPERTY
U+W
SciTegic.value.DoubleValue
0.074

@<SCITEGIC>MOL_PROPERTY
U
SciTegic.value.DoubleValue
52.537

@<SCITEGIC>MOL_PROPERTY
W
SciTegic.value.DoubleValue
-52.463

@<SCITEGIC>MOL_PROPERTY
W(PB)
SciTegic.value.DoubleValue
-54.907

@<SCITEGIC>MOL_PROPERTY
W(SA)
SciTegic.value.DoubleValue
2.444

@<SCITEGIC>MOL_PROPERTY
Valence
SciTegic.value.DoubleValue
5.863

@<SCITEGIC>MOL_PROPERTY
Coulomb
SciTegic.value.DoubleValue
45.962

@<SCITEGIC>MOL_PROPERTY
VdW
SciTegic.value.DoubleValue
0.712

@<SCITEGIC>MOL_PROPERTY
VdW6
SciTegic.value.DoubleValue
-10.331

@<SCITEGIC>MOL_PROPERTY
VdW12
SciTegic.value.DoubleValue
11.043

@<SCITEGIC>MOL_PROPERTY
Bond
SciTegic.value.DoubleValue
0.291

@<SCITEGIC>MOL_PROPERTY
Angle
SciTegic.value.DoubleValue
1.697

@<SCITEGIC>MOL_PROPERTY
Pdih
SciTegic.value.DoubleValue
3.875

@<SCITEGIC>MOL_PROPERTY
Idih
SciTegic.value.DoubleValue
0.000

@<SCITEGIC>MOL_PROPERTY
Tether
SciTegic.value.DoubleValue
0.000

@<TRIPOS>MOLECULE
guest-3_vm2.mol2 : vm2 ligand conformer 273
          29          28           1
SMALL
USER_CHARGES
 
@<TRIPOS>ATOM
       1    C1      21.449946   18.642266   20.792331 C.3        1 MOL1        -0.2427
       2    H1      21.828897   19.024319   19.835534 H          1 MOL1         0.0958
       3    H2      22.199281   18.862582   21.563793 H          1 MOL1         0.0958
       4    H3      21.357367   17.551682   20.706936 H          1 MOL1         0.0958
       5    C2      20.091682   19.288712   21.137465 C.3        1 MOL1        -0.1412
       6    H4      19.373735   19.080822   20.331739 H          1 MOL1         0.0947
       7    H5      20.208962   20.380470   21.184048 H          1 MOL1         0.0947
       8    C3      19.535296   18.766752   22.480369 C.3        1 MOL1        -0.1437
       9    H6      19.418273   17.675684   22.425729 H          1 MOL1         0.0947
      10    H7      20.267663   18.965344   23.270330 H          1 MOL1         0.0947
      11    C4      18.172479   19.414494   22.827342 C.3        1 MOL1        -0.1437
      12    H8      17.474910   19.198288   22.006305 H          1 MOL1         0.0947
      13    H9      18.266840   20.508463   22.864010 H          1 MOL1         0.0947
      14    C5      17.546738   18.888899   24.145946 C.3        1 MOL1        -0.1437
      15    H10     16.455386   18.878093   24.018463 H          1 MOL1         0.0947
      16    H11     17.828543   17.840867   24.314252 H          1 MOL1         0.0947
      17    C6      17.852237   19.748981   25.401957 C.3        1 MOL1        -0.1437
      18    H12     17.276145   19.347782   26.247301 H          1 MOL1         0.0947
      19    H13     17.473551   20.767494   25.239460 H          1 MOL1         0.0947
      20    C7      19.341208   19.828804   25.814464 C.3        1 MOL1        -0.1477
      21    H14     19.918640   20.342497   25.036114 H          1 MOL1         0.0947
      22    H15     19.424388   20.450925   26.715475 H          1 MOL1         0.0947
      23    C8      19.950928   18.444831   26.105413 C.3        1 MOL1         0.0145
      24    H16     19.891387   17.818899   25.211439 H          1 MOL1         0.0921
      25    H17     19.388143   17.956166   26.905279 H          1 MOL1         0.0921
      26    N1      21.403486   18.514262   26.529714 N.4        1 MOL1        -0.5969
      27    H18     21.992788   18.942832   25.808556 H          1 MOL1         0.3603
      28    H19     21.789893   17.582774   26.718343 H          1 MOL1         0.3603
      29    H20     21.524096   19.065972   27.385583 H          1 MOL1         0.3603
@<TRIPOS>BOND
    1     1     2    1
    2     1     3    1
    3     1     4    1
    4     1     5    1
    5     5     6    1
    6     5     7    1
    7     5     8    1
    8     8     9    1
    9     8    10    1
   10     8    11    1
   11    11    12    1
   12    11    13    1
   13    11    14    1
   14    14    15    1
   15    14    16    1
   16    14    17    1
   17    17    18    1
   18    17    19    1
   19    17    20    1
   20    20    21    1
   21    20    22    1
   22    20    23    1
   23    23    24    1
   24    23    25    1
   25    23    26    1
   26    26    27    1
   27    26    28    1
   28    26    29    1
@<TRIPOS>SUBSTRUCTURE
       1 MOL1            1 RESIDUE      1      MOL     
@<SCITEGIC>MOL_PROPERTY
VM2 Rank
SciTegic.value.IntegerValue
273

@<SCITEGIC>MOL_PROPERTY
Conf_Id
SciTegic.value.IntegerValue
2307

@<SCITEGIC>MOL_PROPERTY
Probability
SciTegic.value.DoubleValue
0.01

@<SCITEGIC>MOL_PROPERTY
Sum Probability
SciTegic.value.DoubleValue
99.63

@<SCITEGIC>MOL_PROPERTY
Delta G
SciTegic.value.DoubleValue
4.049

@<SCITEGIC>MOL_PROPERTY
G
SciTegic.value.DoubleValue
62.197

@<SCITEGIC>MOL_PROPERTY
E
SciTegic.value.DoubleValue
24.263

@<SCITEGIC>MOL_PROPERTY
-TS
SciTegic.value.DoubleValue
37.933

@<SCITEGIC>MOL_PROPERTY
U+W
SciTegic.value.DoubleValue
0.119

@<SCITEGIC>MOL_PROPERTY
U
SciTegic.value.DoubleValue
52.874

@<SCITEGIC>MOL_PROPERTY
W
SciTegic.value.DoubleValue
-52.755

@<SCITEGIC>MOL_PROPERTY
W(PB)
SciTegic.value.DoubleValue
-55.191

@<SCITEGIC>MOL_PROPERTY
W(SA)
SciTegic.value.DoubleValue
2.436

@<SCITEGIC>MOL_PROPERTY
Valence
SciTegic.value.DoubleValue
5.909

@<SCITEGIC>MOL_PROPERTY
Coulomb
SciTegic.value.DoubleValue
46.598

@<SCITEGIC>MOL_PROPERTY
VdW
SciTegic.value.DoubleValue
0.368

@<SCITEGIC>MOL_PROPERTY
VdW6
SciTegic.value.DoubleValue
-9.909

@<SCITEGIC>MOL_PROPERTY
VdW12
SciTegic.value.DoubleValue
10.277

@<SCITEGIC>MOL_PROPERTY
Bond
SciTegic.value.DoubleValue
0.262

@<SCITEGIC>MOL_PROPERTY
Angle
SciTegic.value.DoubleValue
1.571

@<SCITEGIC>MOL_PROPERTY
Pdih
SciTegic.value.DoubleValue
4.076

@<SCITEGIC>MOL_PROPERTY
Idih
SciTegic.value.DoubleValue
0.000

@<SCITEGIC>MOL_PROPERTY
Tether
SciTegic.value.DoubleValue
0.000

@<TRIPOS>MOLECULE
guest-3_vm2.mol2 : vm2 ligand conformer 274
          29          28           1
SMALL
USER_CHARGES
 
@<TRIPOS>ATOM
       1    C1      20.437250   18.661478   19.794208 C.3        1 MOL1        -0.2427
       2    H1      21.173539   19.408420   20.115391 H          1 MOL1         0.0958
       3    H2      20.831268   17.664774   20.031573 H          1 MOL1         0.0958
       4    H3      20.347838   18.735746   18.702687 H          1 MOL1         0.0958
       5    C2      19.063997   18.890563   20.465453 C.3        1 MOL1        -0.1412
       6    H4      18.333603   18.202639   20.017068 H          1 MOL1         0.0947
       7    H5      18.707342   19.905726   20.241951 H          1 MOL1         0.0947
       8    C3      19.079710   18.666318   21.996943 C.3        1 MOL1        -0.1437
       9    H6      18.044375   18.717877   22.357666 H          1 MOL1         0.0947
      10    H7      19.434196   17.649560   22.214912 H          1 MOL1         0.0947
      11    C4      19.946303   19.698417   22.762423 C.3        1 MOL1        -0.1437
      12    H8      19.592007   20.715030   22.543434 H          1 MOL1         0.0947
      13    H9      20.981102   19.647360   22.400211 H          1 MOL1         0.0947
      14    C5      19.963717   19.473524   24.294402 C.3        1 MOL1        -0.1437
      15    H10     20.332713   18.460615   24.498110 H          1 MOL1         0.0947
      16    H11     20.685588   20.172616   24.738690 H          1 MOL1         0.0947
      17    C6      18.581305   19.678349   24.963009 C.3        1 MOL1        -0.1437
      18    H12     17.899745   18.869568   24.667917 H          1 MOL1         0.0947
      19    H13     18.137750   20.609480   24.584251 H          1 MOL1         0.0947
      20    C7      18.626836   19.760161   26.510224 C.3        1 MOL1        -0.1477
      21    H14     19.263997   20.594978   26.831100 H          1 MOL1         0.0947
      22    H15     17.615414   19.999587   26.864540 H          1 MOL1         0.0947
      23    C8      19.071611   18.457190   27.206263 C.3        1 MOL1         0.0145
      24    H16     18.614875   17.596803   26.709878 H          1 MOL1         0.0921
      25    H17     18.727315   18.472438   28.243902 H          1 MOL1         0.0921
      26    N1      20.573272   18.251999   27.242075 N.4        1 MOL1        -0.5969
      27    H18     20.973569   18.218245   26.300269 H          1 MOL1         0.3603
      28    H19     20.826166   17.375339   27.711270 H          1 MOL1         0.3603
      29    H20     21.047135   19.008653   27.746288 H          1 MOL1         0.3603
@<TRIPOS>BOND
    1     1     2    1
    2     1     3    1
    3     1     4    1
    4     1     5    1
    5     5     6    1
    6     5     7    1
    7     5     8    1
    8     8     9    1
    9     8    10    1
   10     8    11    1
   11    11    12    1
   12    11    13    1
   13    11    14    1
   14    14    15    1
   15    14    16    1
   16    14    17    1
   17    17    18    1
   18    17    19    1
   19    17    20    1
   20    20    21    1
   21    20    22    1
   22    20    23    1
   23    23    24    1
   24    23    25    1
   25    23    26    1
   26    26    27    1
   27    26    28    1
   28    26    29    1
@<TRIPOS>SUBSTRUCTURE
       1 MOL1            1 RESIDUE      1      MOL     
@<SCITEGIC>MOL_PROPERTY
VM2 Rank
SciTegic.value.IntegerValue
274

@<SCITEGIC>MOL_PROPERTY
Conf_Id
SciTegic.value.IntegerValue
513

@<SCITEGIC>MOL_PROPERTY
Probability
SciTegic.value.DoubleValue
0.01

@<SCITEGIC>MOL_PROPERTY
Sum Probability
SciTegic.value.DoubleValue
99.63

@<SCITEGIC>MOL_PROPERTY
Delta G
SciTegic.value.DoubleValue
4.051

@<SCITEGIC>MOL_PROPERTY
G
SciTegic.value.DoubleValue
62.199

@<SCITEGIC>MOL_PROPERTY
E
SciTegic.value.DoubleValue
24.645

@<SCITEGIC>MOL_PROPERTY
-TS
SciTegic.value.DoubleValue
37.554

@<SCITEGIC>MOL_PROPERTY
U+W
SciTegic.value.DoubleValue
0.501

@<SCITEGIC>MOL_PROPERTY
U
SciTegic.value.DoubleValue
52.537

@<SCITEGIC>MOL_PROPERTY
W
SciTegic.value.DoubleValue
-52.036

@<SCITEGIC>MOL_PROPERTY
W(PB)
SciTegic.value.DoubleValue
-54.494

@<SCITEGIC>MOL_PROPERTY
W(SA)
SciTegic.value.DoubleValue
2.458

@<SCITEGIC>MOL_PROPERTY
Valence
SciTegic.value.DoubleValue
5.216

@<SCITEGIC>MOL_PROPERTY
Coulomb
SciTegic.value.DoubleValue
46.351

@<SCITEGIC>MOL_PROPERTY
VdW
SciTegic.value.DoubleValue
0.970

@<SCITEGIC>MOL_PROPERTY
VdW6
SciTegic.value.DoubleValue
-9.713

@<SCITEGIC>MOL_PROPERTY
VdW12
SciTegic.value.DoubleValue
10.682

@<SCITEGIC>MOL_PROPERTY
Bond
SciTegic.value.DoubleValue
0.284

@<SCITEGIC>MOL_PROPERTY
Angle
SciTegic.value.DoubleValue
1.429

@<SCITEGIC>MOL_PROPERTY
Pdih
SciTegic.value.DoubleValue
3.503

@<SCITEGIC>MOL_PROPERTY
Idih
SciTegic.value.DoubleValue
0.000

@<SCITEGIC>MOL_PROPERTY
Tether
SciTegic.value.DoubleValue
0.000

@<TRIPOS>MOLECULE
guest-3_vm2.mol2 : vm2 ligand conformer 275
          29          28           1
SMALL
USER_CHARGES
 
@<TRIPOS>ATOM
       1    C1      21.314737   18.262781   20.784023 C.3        1 MOL1        -0.2427
       2    H1      21.380279   17.765143   19.807760 H          1 MOL1         0.0958
       3    H2      21.933484   19.168701   20.742820 H          1 MOL1         0.0958
       4    H3      21.745290   17.588382   21.535691 H          1 MOL1         0.0958
       5    C2      19.848927   18.607386   21.122464 C.3        1 MOL1        -0.1412
       6    H4      19.249105   17.686480   21.124447 H          1 MOL1         0.0947
       7    H5      19.435336   19.253731   20.335673 H          1 MOL1         0.0947
       8    C3      19.728945   19.310203   22.492515 C.3        1 MOL1        -0.1437
       9    H6      20.159737   18.662512   23.263716 H          1 MOL1         0.0947
      10    H7      20.328716   20.230683   22.482494 H          1 MOL1         0.0947
      11    C4      18.258790   19.656725   22.832795 C.3        1 MOL1        -0.1437
      12    H8      17.639839   18.749062   22.824904 H          1 MOL1         0.0947
      13    H9      17.866575   20.297425   22.030847 H          1 MOL1         0.0947
      14    C5      18.087749   20.406908   24.179825 C.3        1 MOL1        -0.1437
      15    H10     18.966275   21.033023   24.385456 H          1 MOL1         0.0947
      16    H11     17.250960   21.110295   24.068252 H          1 MOL1         0.0947
      17    C6      17.762939   19.498588   25.396413 C.3        1 MOL1        -0.1437
      18    H12     16.827874   18.956438   25.199170 H          1 MOL1         0.0947
      19    H13     17.558537   20.139805   26.265039 H          1 MOL1         0.0947
      20    C7      18.860013   18.478996   25.784270 C.3        1 MOL1        -0.1477
      21    H14     18.518390   17.909309   26.658640 H          1 MOL1         0.0947
      22    H15     18.993448   17.747319   24.978055 H          1 MOL1         0.0947
      23    C8      20.203286   19.152721   26.121178 C.3        1 MOL1         0.0145
      24    H16     20.065098   19.854786   26.947808 H          1 MOL1         0.0921
      25    H17     20.565462   19.710272   25.253717 H          1 MOL1         0.0921
      26    N1      21.278615   18.163691   26.521517 N.4        1 MOL1        -0.5969
      27    H18     21.011154   17.626376   27.352901 H          1 MOL1         0.3603
      28    H19     22.164208   18.632591   26.741563 H          1 MOL1         0.3603
      29    H20     21.474329   17.488306   25.775483 H          1 MOL1         0.3603
@<TRIPOS>BOND
    1     1     2    1
    2     1     3    1
    3     1     4    1
    4     1     5    1
    5     5     6    1
    6     5     7    1
    7     5     8    1
    8     8     9    1
    9     8    10    1
   10     8    11    1
   11    11    12    1
   12    11    13    1
   13    11    14    1
   14    14    15    1
   15    14    16    1
   16    14    17    1
   17    17    18    1
   18    17    19    1
   19    17    20    1
   20    20    21    1
   21    20    22    1
   22    20    23    1
   23    23    24    1
   24    23    25    1
   25    23    26    1
   26    26    27    1
   27    26    28    1
   28    26    29    1
@<TRIPOS>SUBSTRUCTURE
       1 MOL1            1 RESIDUE      1      MOL     
@<SCITEGIC>MOL_PROPERTY
VM2 Rank
SciTegic.value.IntegerValue
275

@<SCITEGIC>MOL_PROPERTY
Conf_Id
SciTegic.value.IntegerValue
1035

@<SCITEGIC>MOL_PROPERTY
Probability
SciTegic.value.DoubleValue
0.01

@<SCITEGIC>MOL_PROPERTY
Sum Probability
SciTegic.value.DoubleValue
99.64

@<SCITEGIC>MOL_PROPERTY
Delta G
SciTegic.value.DoubleValue
4.062

@<SCITEGIC>MOL_PROPERTY
G
SciTegic.value.DoubleValue
62.210

@<SCITEGIC>MOL_PROPERTY
E
SciTegic.value.DoubleValue
24.276

@<SCITEGIC>MOL_PROPERTY
-TS
SciTegic.value.DoubleValue
37.934

@<SCITEGIC>MOL_PROPERTY
U+W
SciTegic.value.DoubleValue
0.132

@<SCITEGIC>MOL_PROPERTY
U
SciTegic.value.DoubleValue
52.875

@<SCITEGIC>MOL_PROPERTY
W
SciTegic.value.DoubleValue
-52.743

@<SCITEGIC>MOL_PROPERTY
W(PB)
SciTegic.value.DoubleValue
-55.189

@<SCITEGIC>MOL_PROPERTY
W(SA)
SciTegic.value.DoubleValue
2.446

@<SCITEGIC>MOL_PROPERTY
Valence
SciTegic.value.DoubleValue
5.909

@<SCITEGIC>MOL_PROPERTY
Coulomb
SciTegic.value.DoubleValue
46.598

@<SCITEGIC>MOL_PROPERTY
VdW
SciTegic.value.DoubleValue
0.368

@<SCITEGIC>MOL_PROPERTY
VdW6
SciTegic.value.DoubleValue
-9.910

@<SCITEGIC>MOL_PROPERTY
VdW12
SciTegic.value.DoubleValue
10.278

@<SCITEGIC>MOL_PROPERTY
Bond
SciTegic.value.DoubleValue
0.262

@<SCITEGIC>MOL_PROPERTY
Angle
SciTegic.value.DoubleValue
1.570

@<SCITEGIC>MOL_PROPERTY
Pdih
SciTegic.value.DoubleValue
4.076

@<SCITEGIC>MOL_PROPERTY
Idih
SciTegic.value.DoubleValue
0.000

@<SCITEGIC>MOL_PROPERTY
Tether
SciTegic.value.DoubleValue
0.000

@<TRIPOS>MOLECULE
guest-3_vm2.mol2 : vm2 ligand conformer 276
          29          28           1
SMALL
USER_CHARGES
 
@<TRIPOS>ATOM
       1    C1      21.069060   18.151745   21.022729 C.3        1 MOL1        -0.2427
       2    H1      21.812352   18.433774   21.779663 H          1 MOL1         0.0958
       3    H2      20.540840   17.257520   21.375632 H          1 MOL1         0.0958
       4    H3      21.609514   17.875743   20.108048 H          1 MOL1         0.0958
       5    C2      20.092006   19.316034   20.742543 C.3        1 MOL1        -0.1412
       6    H4      19.340748   19.000428   20.005184 H          1 MOL1         0.0947
       7    H5      20.650050   20.141550   20.279019 H          1 MOL1         0.0947
       8    C3      19.388702   19.845646   22.015163 C.3        1 MOL1        -0.1437
       9    H6      20.147598   20.168048   22.737453 H          1 MOL1         0.0947
      10    H7      18.820939   20.747301   21.747350 H          1 MOL1         0.0947
      11    C4      18.421159   18.817091   22.655851 C.3        1 MOL1        -0.1437
      12    H8      18.952478   17.896927   22.930780 H          1 MOL1         0.0947
      13    H9      17.682070   18.526033   21.896799 H          1 MOL1         0.0947
      14    C5      17.663402   19.370819   23.890787 C.3        1 MOL1        -0.1437
      15    H10     17.527565   20.457337   23.800957 H          1 MOL1         0.0947
      16    H11     16.650184   18.945645   23.888838 H          1 MOL1         0.0947
      17    C6      18.310908   19.024869   25.256487 C.3        1 MOL1        -0.1437
      18    H12     18.336222   17.933379   25.375378 H          1 MOL1         0.0947
      19    H13     17.657771   19.405784   26.053889 H          1 MOL1         0.0947
      20    C7      19.732410   19.604692   25.452594 C.3        1 MOL1        -0.1477
      21    H14     20.435742   19.125120   24.760288 H          1 MOL1         0.0947
      22    H15     19.725910   20.676386   25.213819 H          1 MOL1         0.0947
      23    C8      20.249318   19.428076   26.893088 C.3        1 MOL1         0.0145
      24    H16     19.556330   19.901939   27.593510 H          1 MOL1         0.0921
      25    H17     21.222459   19.916572   26.992499 H          1 MOL1         0.0921
      26    N1      20.417035   17.979028   27.305758 N.4        1 MOL1        -0.5969
      27    H18     21.077965   17.484352   26.697809 H          1 MOL1         0.3603
      28    H19     19.528823   17.469286   27.266915 H          1 MOL1         0.3603
      29    H20     20.770575   17.894907   28.265169 H          1 MOL1         0.3603
@<TRIPOS>BOND
    1     1     2    1
    2     1     3    1
    3     1     4    1
    4     1     5    1
    5     5     6    1
    6     5     7    1
    7     5     8    1
    8     8     9    1
    9     8    10    1
   10     8    11    1
   11    11    12    1
   12    11    13    1
   13    11    14    1
   14    14    15    1
   15    14    16    1
   16    14    17    1
   17    17    18    1
   18    17    19    1
   19    17    20    1
   20    20    21    1
   21    20    22    1
   22    20    23    1
   23    23    24    1
   24    23    25    1
   25    23    26    1
   26    26    27    1
   27    26    28    1
   28    26    29    1
@<TRIPOS>SUBSTRUCTURE
       1 MOL1            1 RESIDUE      1      MOL     
@<SCITEGIC>MOL_PROPERTY
VM2 Rank
SciTegic.value.IntegerValue
276

@<SCITEGIC>MOL_PROPERTY
Conf_Id
SciTegic.value.IntegerValue
1056

@<SCITEGIC>MOL_PROPERTY
Probability
SciTegic.value.DoubleValue
0.01

@<SCITEGIC>MOL_PROPERTY
Sum Probability
SciTegic.value.DoubleValue
99.64

@<SCITEGIC>MOL_PROPERTY
Delta G
SciTegic.value.DoubleValue
4.063

@<SCITEGIC>MOL_PROPERTY
G
SciTegic.value.DoubleValue
62.211

@<SCITEGIC>MOL_PROPERTY
E
SciTegic.value.DoubleValue
24.463

@<SCITEGIC>MOL_PROPERTY
-TS
SciTegic.value.DoubleValue
37.748

@<SCITEGIC>MOL_PROPERTY
U+W
SciTegic.value.DoubleValue
0.318

@<SCITEGIC>MOL_PROPERTY
U
SciTegic.value.DoubleValue
52.709

@<SCITEGIC>MOL_PROPERTY
W
SciTegic.value.DoubleValue
-52.390

@<SCITEGIC>MOL_PROPERTY
W(PB)
SciTegic.value.DoubleValue
-54.817

@<SCITEGIC>MOL_PROPERTY
W(SA)
SciTegic.value.DoubleValue
2.427

@<SCITEGIC>MOL_PROPERTY
Valence
SciTegic.value.DoubleValue
6.186

@<SCITEGIC>MOL_PROPERTY
Coulomb
SciTegic.value.DoubleValue
45.601

@<SCITEGIC>MOL_PROPERTY
VdW
SciTegic.value.DoubleValue
0.922

@<SCITEGIC>MOL_PROPERTY
VdW6
SciTegic.value.DoubleValue
-9.883

@<SCITEGIC>MOL_PROPERTY
VdW12
SciTegic.value.DoubleValue
10.805

@<SCITEGIC>MOL_PROPERTY
Bond
SciTegic.value.DoubleValue
0.292

@<SCITEGIC>MOL_PROPERTY
Angle
SciTegic.value.DoubleValue
1.417

@<SCITEGIC>MOL_PROPERTY
Pdih
SciTegic.value.DoubleValue
4.477

@<SCITEGIC>MOL_PROPERTY
Idih
SciTegic.value.DoubleValue
0.000

@<SCITEGIC>MOL_PROPERTY
Tether
SciTegic.value.DoubleValue
0.000

@<TRIPOS>MOLECULE
guest-3_vm2.mol2 : vm2 ligand conformer 277
          29          28           1
SMALL
USER_CHARGES
 
@<TRIPOS>ATOM
       1    C1      19.356798   20.200032   20.286739 C.3        1 MOL1        -0.2427
       2    H1      20.420477   20.469252   20.317314 H          1 MOL1         0.0958
       3    H2      18.928613   20.626175   19.370273 H          1 MOL1         0.0958
       4    H3      18.851082   20.674779   21.136673 H          1 MOL1         0.0958
       5    C2      19.169631   18.667355   20.307769 C.3        1 MOL1        -0.1412
       6    H4      19.554227   18.252427   19.365629 H          1 MOL1         0.0947
       7    H5      18.096411   18.431844   20.328299 H          1 MOL1         0.0947
       8    C3      19.880030   17.953814   21.486261 C.3        1 MOL1        -0.1437
       9    H6      19.719413   16.873761   21.363551 H          1 MOL1         0.0947
      10    H7      20.966661   18.101151   21.417884 H          1 MOL1         0.0947
      11    C4      19.368489   18.362143   22.892312 C.3        1 MOL1        -0.1437
      12    H8      19.382138   17.469696   23.531547 H          1 MOL1         0.0947
      13    H9      18.318542   18.679874   22.832627 H          1 MOL1         0.0947
      14    C5      20.230252   19.463247   23.562039 C.3        1 MOL1        -0.1437
      15    H10     21.245005   19.079575   23.735733 H          1 MOL1         0.0947
      16    H11     20.342513   20.315025   22.880876 H          1 MOL1         0.0947
      17    C6      19.639884   19.982929   24.895781 C.3        1 MOL1        -0.1437
      18    H12     18.634243   20.389107   24.719075 H          1 MOL1         0.0947
      19    H13     20.255010   20.824049   25.244767 H          1 MOL1         0.0947
      20    C7      19.580278   18.909420   26.007612 C.3        1 MOL1        -0.1477
      21    H14     18.902691   18.097958   25.713625 H          1 MOL1         0.0947
      22    H15     20.575414   18.466887   26.148156 H          1 MOL1         0.0947
      23    C8      19.094900   19.509114   27.338914 C.3        1 MOL1         0.0145
      24    H16     18.097219   19.936834   27.208011 H          1 MOL1         0.0921
      25    H17     19.773303   20.307195   27.652396 H          1 MOL1         0.0921
      26    N1      19.023739   18.489945   28.457575 N.4        1 MOL1        -0.5969
      27    H18     18.378775   17.724141   28.236115 H          1 MOL1         0.3603
      28    H19     18.698728   18.910103   29.335390 H          1 MOL1         0.3603
      29    H20     19.938815   18.068586   28.648912 H          1 MOL1         0.3603
@<TRIPOS>BOND
    1     1     2    1
    2     1     3    1
    3     1     4    1
    4     1     5    1
    5     5     6    1
    6     5     7    1
    7     5     8    1
    8     8     9    1
    9     8    10    1
   10     8    11    1
   11    11    12    1
   12    11    13    1
   13    11    14    1
   14    14    15    1
   15    14    16    1
   16    14    17    1
   17    17    18    1
   18    17    19    1
   19    17    20    1
   20    20    21    1
   21    20    22    1
   22    20    23    1
   23    23    24    1
   24    23    25    1
   25    23    26    1
   26    26    27    1
   27    26    28    1
   28    26    29    1
@<TRIPOS>SUBSTRUCTURE
       1 MOL1            1 RESIDUE      1      MOL     
@<SCITEGIC>MOL_PROPERTY
VM2 Rank
SciTegic.value.IntegerValue
277

@<SCITEGIC>MOL_PROPERTY
Conf_Id
SciTegic.value.IntegerValue
1288

@<SCITEGIC>MOL_PROPERTY
Probability
SciTegic.value.DoubleValue
0.01

@<SCITEGIC>MOL_PROPERTY
Sum Probability
SciTegic.value.DoubleValue
99.65

@<SCITEGIC>MOL_PROPERTY
Delta G
SciTegic.value.DoubleValue
4.092

@<SCITEGIC>MOL_PROPERTY
G
SciTegic.value.DoubleValue
62.240

@<SCITEGIC>MOL_PROPERTY
E
SciTegic.value.DoubleValue
24.559

@<SCITEGIC>MOL_PROPERTY
-TS
SciTegic.value.DoubleValue
37.681

@<SCITEGIC>MOL_PROPERTY
U+W
SciTegic.value.DoubleValue
0.415

@<SCITEGIC>MOL_PROPERTY
U
SciTegic.value.DoubleValue
51.971

@<SCITEGIC>MOL_PROPERTY
W
SciTegic.value.DoubleValue
-51.557

@<SCITEGIC>MOL_PROPERTY
W(PB)
SciTegic.value.DoubleValue
-54.039

@<SCITEGIC>MOL_PROPERTY
W(SA)
SciTegic.value.DoubleValue
2.482

@<SCITEGIC>MOL_PROPERTY
Valence
SciTegic.value.DoubleValue
6.137

@<SCITEGIC>MOL_PROPERTY
Coulomb
SciTegic.value.DoubleValue
44.875

@<SCITEGIC>MOL_PROPERTY
VdW
SciTegic.value.DoubleValue
0.960

@<SCITEGIC>MOL_PROPERTY
VdW6
SciTegic.value.DoubleValue
-9.150

@<SCITEGIC>MOL_PROPERTY
VdW12
SciTegic.value.DoubleValue
10.110

@<SCITEGIC>MOL_PROPERTY
Bond
SciTegic.value.DoubleValue
0.271

@<SCITEGIC>MOL_PROPERTY
Angle
SciTegic.value.DoubleValue
1.364

@<SCITEGIC>MOL_PROPERTY
Pdih
SciTegic.value.DoubleValue
4.502

@<SCITEGIC>MOL_PROPERTY
Idih
SciTegic.value.DoubleValue
0.000

@<SCITEGIC>MOL_PROPERTY
Tether
SciTegic.value.DoubleValue
0.000

@<TRIPOS>MOLECULE
guest-3_vm2.mol2 : vm2 ligand conformer 278
          29          28           1
SMALL
USER_CHARGES
 
@<TRIPOS>ATOM
       1    C1      19.530321   18.426104   19.828361 C.3        1 MOL1        -0.2427
       2    H1      18.535985   18.885306   19.891706 H          1 MOL1         0.0958
       3    H2      20.230411   19.173308   19.432660 H          1 MOL1         0.0958
       4    H3      19.469013   17.605416   19.101983 H          1 MOL1         0.0958
       5    C2      19.999783   17.897870   21.202763 C.3        1 MOL1        -0.1412
       6    H4      20.938185   17.342281   21.066904 H          1 MOL1         0.0947
       7    H5      19.267982   17.175384   21.590277 H          1 MOL1         0.0947
       8    C3      20.231808   19.017111   22.246141 C.3        1 MOL1        -0.1437
       9    H6      20.669451   18.565648   23.144217 H          1 MOL1         0.0947
      10    H7      20.983665   19.721350   21.864239 H          1 MOL1         0.0947
      11    C4      18.940148   19.790770   22.615873 C.3        1 MOL1        -0.1437
      12    H8      18.132801   19.090724   22.870804 H          1 MOL1         0.0947
      13    H9      18.597792   20.340642   21.729301 H          1 MOL1         0.0947
      14    C5      19.143954   20.810652   23.766380 C.3        1 MOL1        -0.1437
      15    H10     20.182350   21.169597   23.778444 H          1 MOL1         0.0947
      16    H11     18.528096   21.695259   23.552767 H          1 MOL1         0.0947
      17    C6      18.741787   20.290848   25.170825 C.3        1 MOL1        -0.1437
      18    H12     17.673263   20.034354   25.172376 H          1 MOL1         0.0947
      19    H13     18.859445   21.113303   25.890116 H          1 MOL1         0.0947
      20    C7      19.561463   19.075770   25.660776 C.3        1 MOL1        -0.1477
      21    H14     19.364302   18.209055   25.017366 H          1 MOL1         0.0947
      22    H15     20.634107   19.300562   25.592860 H          1 MOL1         0.0947
      23    C8      19.206762   18.709302   27.112414 C.3        1 MOL1         0.0145
      24    H16     18.142084   18.470491   27.182227 H          1 MOL1         0.0921
      25    H17     19.412596   19.559891   27.767823 H          1 MOL1         0.0921
      26    N1      19.987975   17.519573   27.631467 N.4        1 MOL1        -0.5969
      27    H18     19.816365   16.676859   27.073076 H          1 MOL1         0.3603
      28    H19     19.736816   17.292634   28.600039 H          1 MOL1         0.3603
      29    H20     20.998842   17.691078   27.617450 H          1 MOL1         0.3603
@<TRIPOS>BOND
    1     1     2    1
    2     1     3    1
    3     1     4    1
    4     1     5    1
    5     5     6    1
    6     5     7    1
    7     5     8    1
    8     8     9    1
    9     8    10    1
   10     8    11    1
   11    11    12    1
   12    11    13    1
   13    11    14    1
   14    14    15    1
   15    14    16    1
   16    14    17    1
   17    17    18    1
   18    17    19    1
   19    17    20    1
   20    20    21    1
   21    20    22    1
   22    20    23    1
   23    23    24    1
   24    23    25    1
   25    23    26    1
   26    26    27    1
   27    26    28    1
   28    26    29    1
@<TRIPOS>SUBSTRUCTURE
       1 MOL1            1 RESIDUE      1      MOL     
@<SCITEGIC>MOL_PROPERTY
VM2 Rank
SciTegic.value.IntegerValue
278

@<SCITEGIC>MOL_PROPERTY
Conf_Id
SciTegic.value.IntegerValue
730

@<SCITEGIC>MOL_PROPERTY
Probability
SciTegic.value.DoubleValue
0.01

@<SCITEGIC>MOL_PROPERTY
Sum Probability
SciTegic.value.DoubleValue
99.65

@<SCITEGIC>MOL_PROPERTY
Delta G
SciTegic.value.DoubleValue
4.093

@<SCITEGIC>MOL_PROPERTY
G
SciTegic.value.DoubleValue
62.241

@<SCITEGIC>MOL_PROPERTY
E
SciTegic.value.DoubleValue
24.526

@<SCITEGIC>MOL_PROPERTY
-TS
SciTegic.value.DoubleValue
37.715

@<SCITEGIC>MOL_PROPERTY
U+W
SciTegic.value.DoubleValue
0.382

@<SCITEGIC>MOL_PROPERTY
U
SciTegic.value.DoubleValue
52.467

@<SCITEGIC>MOL_PROPERTY
W
SciTegic.value.DoubleValue
-52.085

@<SCITEGIC>MOL_PROPERTY
W(PB)
SciTegic.value.DoubleValue
-54.581

@<SCITEGIC>MOL_PROPERTY
W(SA)
SciTegic.value.DoubleValue
2.496

@<SCITEGIC>MOL_PROPERTY
Valence
SciTegic.value.DoubleValue
6.151

@<SCITEGIC>MOL_PROPERTY
Coulomb
SciTegic.value.DoubleValue
45.416

@<SCITEGIC>MOL_PROPERTY
VdW
SciTegic.value.DoubleValue
0.901

@<SCITEGIC>MOL_PROPERTY
VdW6
SciTegic.value.DoubleValue
-9.247

@<SCITEGIC>MOL_PROPERTY
VdW12
SciTegic.value.DoubleValue
10.148

@<SCITEGIC>MOL_PROPERTY
Bond
SciTegic.value.DoubleValue
0.270

@<SCITEGIC>MOL_PROPERTY
Angle
SciTegic.value.DoubleValue
1.359

@<SCITEGIC>MOL_PROPERTY
Pdih
SciTegic.value.DoubleValue
4.521

@<SCITEGIC>MOL_PROPERTY
Idih
SciTegic.value.DoubleValue
0.000

@<SCITEGIC>MOL_PROPERTY
Tether
SciTegic.value.DoubleValue
0.000

@<TRIPOS>MOLECULE
guest-3_vm2.mol2 : vm2 ligand conformer 279
          29          28           1
SMALL
USER_CHARGES
 
@<TRIPOS>ATOM
       1    C1      20.532070   18.928028   19.800136 C.3        1 MOL1        -0.2427
       2    H1      21.464023   19.440820   20.071280 H          1 MOL1         0.0958
       3    H2      20.625789   17.871823   20.080939 H          1 MOL1         0.0958
       4    H3      20.431275   18.970433   18.707904 H          1 MOL1         0.0958
       5    C2      19.313871   19.592161   20.481154 C.3        1 MOL1        -0.1412
       6    H4      18.399016   19.040854   20.222673 H          1 MOL1         0.0947
       7    H5      19.189140   20.603988   20.070771 H          1 MOL1         0.0947
       8    C3      19.446218   19.695042   22.019952 C.3        1 MOL1        -0.1437
       9    H6      20.360386   20.249337   22.272975 H          1 MOL1         0.0947
      10    H7      18.606315   20.295121   22.393000 H          1 MOL1         0.0947
      11    C4      19.454736   18.318201   22.731577 C.3        1 MOL1        -0.1437
      12    H8      20.294001   17.718191   22.357097 H          1 MOL1         0.0947
      13    H9      18.540877   17.763877   22.477469 H          1 MOL1         0.0947
      14    C5      19.588707   18.420507   24.270870 C.3        1 MOL1        -0.1437
      15    H10     19.700219   17.405626   24.676823 H          1 MOL1         0.0947
      16    H11     20.511756   18.963412   24.509350 H          1 MOL1         0.0947
      17    C6      18.378478   19.108798   24.950318 C.3        1 MOL1        -0.1437
      18    H12     17.451788   18.683213   24.541261 H          1 MOL1         0.0947
      19    H13     18.365368   20.177200   24.697186 H          1 MOL1         0.0947
      20    C7      18.340275   18.955330   26.492273 C.3        1 MOL1        -0.1477
      21    H14     17.400101   19.394839   26.851083 H          1 MOL1         0.0947
      22    H15     18.302239   17.893797   26.770759 H          1 MOL1         0.0947
      23    C8      19.498288   19.655515   27.233066 C.3        1 MOL1         0.0145
      24    H16     19.207198   19.819973   28.274070 H          1 MOL1         0.0921
      25    H17     19.694725   20.629866   26.777740 H          1 MOL1         0.0921
      26    N1      20.791358   18.864417   27.255653 N.4        1 MOL1        -0.5969
      27    H18     20.673620   17.959231   27.722640 H          1 MOL1         0.3603
      28    H19     21.534527   19.364762   27.755640 H          1 MOL1         0.3603
      29    H20     21.136211   18.675137   26.310336 H          1 MOL1         0.3603
@<TRIPOS>BOND
    1     1     2    1
    2     1     3    1
    3     1     4    1
    4     1     5    1
    5     5     6    1
    6     5     7    1
    7     5     8    1
    8     8     9    1
    9     8    10    1
   10     8    11    1
   11    11    12    1
   12    11    13    1
   13    11    14    1
   14    14    15    1
   15    14    16    1
   16    14    17    1
   17    17    18    1
   18    17    19    1
   19    17    20    1
   20    20    21    1
   21    20    22    1
   22    20    23    1
   23    23    24    1
   24    23    25    1
   25    23    26    1
   26    26    27    1
   27    26    28    1
   28    26    29    1
@<TRIPOS>SUBSTRUCTURE
       1 MOL1            1 RESIDUE      1      MOL     
@<SCITEGIC>MOL_PROPERTY
VM2 Rank
SciTegic.value.IntegerValue
279

@<SCITEGIC>MOL_PROPERTY
Conf_Id
SciTegic.value.IntegerValue
594

@<SCITEGIC>MOL_PROPERTY
Probability
SciTegic.value.DoubleValue
0.01

@<SCITEGIC>MOL_PROPERTY
Sum Probability
SciTegic.value.DoubleValue
99.66

@<SCITEGIC>MOL_PROPERTY
Delta G
SciTegic.value.DoubleValue
4.093

@<SCITEGIC>MOL_PROPERTY
G
SciTegic.value.DoubleValue
62.241

@<SCITEGIC>MOL_PROPERTY
E
SciTegic.value.DoubleValue
24.688

@<SCITEGIC>MOL_PROPERTY
-TS
SciTegic.value.DoubleValue
37.553

@<SCITEGIC>MOL_PROPERTY
U+W
SciTegic.value.DoubleValue
0.544

@<SCITEGIC>MOL_PROPERTY
U
SciTegic.value.DoubleValue
52.537

@<SCITEGIC>MOL_PROPERTY
W
SciTegic.value.DoubleValue
-51.993

@<SCITEGIC>MOL_PROPERTY
W(PB)
SciTegic.value.DoubleValue
-54.470

@<SCITEGIC>MOL_PROPERTY
W(SA)
SciTegic.value.DoubleValue
2.477

@<SCITEGIC>MOL_PROPERTY
Valence
SciTegic.value.DoubleValue
5.216

@<SCITEGIC>MOL_PROPERTY
Coulomb
SciTegic.value.DoubleValue
46.351

@<SCITEGIC>MOL_PROPERTY
VdW
SciTegic.value.DoubleValue
0.970

@<SCITEGIC>MOL_PROPERTY
VdW6
SciTegic.value.DoubleValue
-9.713

@<SCITEGIC>MOL_PROPERTY
VdW12
SciTegic.value.DoubleValue
10.683

@<SCITEGIC>MOL_PROPERTY
Bond
SciTegic.value.DoubleValue
0.284

@<SCITEGIC>MOL_PROPERTY
Angle
SciTegic.value.DoubleValue
1.430

@<SCITEGIC>MOL_PROPERTY
Pdih
SciTegic.value.DoubleValue
3.502

@<SCITEGIC>MOL_PROPERTY
Idih
SciTegic.value.DoubleValue
0.000

@<SCITEGIC>MOL_PROPERTY
Tether
SciTegic.value.DoubleValue
0.000

@<TRIPOS>MOLECULE
guest-3_vm2.mol2 : vm2 ligand conformer 280
          29          28           1
SMALL
USER_CHARGES
 
@<TRIPOS>ATOM
       1    C1      18.293306   17.962208   21.181269 C.3        1 MOL1        -0.2427
       2    H1      17.935896   18.378417   20.230515 H          1 MOL1         0.0958
       3    H2      18.013399   16.901252   21.209404 H          1 MOL1         0.0958
       4    H3      17.760704   18.467608   21.995710 H          1 MOL1         0.0958
       5    C2      19.825138   18.121931   21.313019 C.3        1 MOL1        -0.1412
       6    H4      20.306826   17.535874   20.517977 H          1 MOL1         0.0947
       7    H5      20.174974   17.684199   22.256461 H          1 MOL1         0.0947
       8    C3      20.300602   19.590531   21.195056 C.3        1 MOL1        -0.1437
       9    H6      21.399015   19.608117   21.210304 H          1 MOL1         0.0947
      10    H7      20.011653   19.972606   20.206297 H          1 MOL1         0.0947
      11    C4      19.768595   20.569266   22.276616 C.3        1 MOL1        -0.1437
      12    H8      18.673537   20.636948   22.235744 H          1 MOL1         0.0947
      13    H9      20.129773   21.572132   22.010038 H          1 MOL1         0.0947
      14    C5      20.243668   20.264967   23.721834 C.3        1 MOL1        -0.1437
      15    H10     21.228458   19.778407   23.700490 H          1 MOL1         0.0947
      16    H11     20.389565   21.220889   24.243724 H          1 MOL1         0.0947
      17    C6      19.241652   19.418243   24.543855 C.3        1 MOL1        -0.1437
      18    H12     19.071408   18.449307   24.061036 H          1 MOL1         0.0947
      19    H13     18.269737   19.929940   24.574627 H          1 MOL1         0.0947
      20    C7      19.740535   19.181330   25.986095 C.3        1 MOL1        -0.1477
      21    H14     20.710922   18.667683   25.961589 H          1 MOL1         0.0947
      22    H15     19.898548   20.145955   26.486691 H          1 MOL1         0.0947
      23    C8      18.737919   18.342212   26.797410 C.3        1 MOL1         0.0145
      24    H16     18.590099   17.373858   26.311719 H          1 MOL1         0.0921
      25    H17     17.774530   18.857634   26.838324 H          1 MOL1         0.0921
      26    N1      19.192586   18.087312   28.219846 N.4        1 MOL1        -0.5969
      27    H18     19.324188   18.960660   28.740870 H          1 MOL1         0.3603
      28    H19     20.083140   17.579919   28.250966 H          1 MOL1         0.3603
      29    H20     18.510746   17.526928   28.743081 H          1 MOL1         0.3603
@<TRIPOS>BOND
    1     1     2    1
    2     1     3    1
    3     1     4    1
    4     1     5    1
    5     5     6    1
    6     5     7    1
    7     5     8    1
    8     8     9    1
    9     8    10    1
   10     8    11    1
   11    11    12    1
   12    11    13    1
   13    11    14    1
   14    14    15    1
   15    14    16    1
   16    14    17    1
   17    17    18    1
   18    17    19    1
   19    17    20    1
   20    20    21    1
   21    20    22    1
   22    20    23    1
   23    23    24    1
   24    23    25    1
   25    23    26    1
   26    26    27    1
   27    26    28    1
   28    26    29    1
@<TRIPOS>SUBSTRUCTURE
       1 MOL1            1 RESIDUE      1      MOL     
@<SCITEGIC>MOL_PROPERTY
VM2 Rank
SciTegic.value.IntegerValue
280

@<SCITEGIC>MOL_PROPERTY
Conf_Id
SciTegic.value.IntegerValue
1940

@<SCITEGIC>MOL_PROPERTY
Probability
SciTegic.value.DoubleValue
0.01

@<SCITEGIC>MOL_PROPERTY
Sum Probability
SciTegic.value.DoubleValue
99.67

@<SCITEGIC>MOL_PROPERTY
Delta G
SciTegic.value.DoubleValue
4.117

@<SCITEGIC>MOL_PROPERTY
G
SciTegic.value.DoubleValue
62.265

@<SCITEGIC>MOL_PROPERTY
E
SciTegic.value.DoubleValue
24.264

@<SCITEGIC>MOL_PROPERTY
-TS
SciTegic.value.DoubleValue
38.001

@<SCITEGIC>MOL_PROPERTY
U+W
SciTegic.value.DoubleValue
0.120

@<SCITEGIC>MOL_PROPERTY
U
SciTegic.value.DoubleValue
51.870

@<SCITEGIC>MOL_PROPERTY
W
SciTegic.value.DoubleValue
-51.751

@<SCITEGIC>MOL_PROPERTY
W(PB)
SciTegic.value.DoubleValue
-54.197

@<SCITEGIC>MOL_PROPERTY
W(SA)
SciTegic.value.DoubleValue
2.446

@<SCITEGIC>MOL_PROPERTY
Valence
SciTegic.value.DoubleValue
6.196

@<SCITEGIC>MOL_PROPERTY
Coulomb
SciTegic.value.DoubleValue
45.072

@<SCITEGIC>MOL_PROPERTY
VdW
SciTegic.value.DoubleValue
0.602

@<SCITEGIC>MOL_PROPERTY
VdW6
SciTegic.value.DoubleValue
-9.621

@<SCITEGIC>MOL_PROPERTY
VdW12
SciTegic.value.DoubleValue
10.223

@<SCITEGIC>MOL_PROPERTY
Bond
SciTegic.value.DoubleValue
0.275

@<SCITEGIC>MOL_PROPERTY
Angle
SciTegic.value.DoubleValue
1.753

@<SCITEGIC>MOL_PROPERTY
Pdih
SciTegic.value.DoubleValue
4.168

@<SCITEGIC>MOL_PROPERTY
Idih
SciTegic.value.DoubleValue
0.000

@<SCITEGIC>MOL_PROPERTY
Tether
SciTegic.value.DoubleValue
0.000

@<TRIPOS>MOLECULE
guest-3_vm2.mol2 : vm2 ligand conformer 281
          29          28           1
SMALL
USER_CHARGES
 
@<TRIPOS>ATOM
       1    C1      19.977818   19.681429   19.856100 C.3        1 MOL1        -0.2427
       2    H1      20.054113   18.676202   19.421684 H          1 MOL1         0.0958
       3    H2      18.916137   19.951529   19.914943 H          1 MOL1         0.0958
       4    H3      20.459078   20.384040   19.163540 H          1 MOL1         0.0958
       5    C2      20.655763   19.739940   21.243680 C.3        1 MOL1        -0.1412
       6    H4      20.539385   20.746373   21.669393 H          1 MOL1         0.0947
       7    H5      21.736011   19.582659   21.116947 H          1 MOL1         0.0947
       8    C3      20.113740   18.685876   22.238833 C.3        1 MOL1        -0.1437
       9    H6      20.256945   17.680693   21.819084 H          1 MOL1         0.0947
      10    H7      20.725447   18.723595   23.147831 H          1 MOL1         0.0947
      11    C4      18.618665   18.888463   22.595690 C.3        1 MOL1        -0.1437
      12    H8      18.018497   18.714177   21.692916 H          1 MOL1         0.0947
      13    H9      18.431677   19.930390   22.889436 H          1 MOL1         0.0947
      14    C5      18.115889   17.924700   23.701917 C.3        1 MOL1        -0.1437
      15    H10     17.082680   17.637613   23.462130 H          1 MOL1         0.0947
      16    H11     18.693561   16.990213   23.685111 H          1 MOL1         0.0947
      17    C6      18.112866   18.525543   25.131386 C.3        1 MOL1        -0.1437
      18    H12     17.674049   17.786137   25.815764 H          1 MOL1         0.0947
      19    H13     17.447003   19.399297   25.158141 H          1 MOL1         0.0947
      20    C7      19.508963   18.928515   25.657559 C.3        1 MOL1        -0.1477
      21    H14     20.199043   18.079383   25.565505 H          1 MOL1         0.0947
      22    H15     19.912978   19.749551   25.051990 H          1 MOL1         0.0947
      23    C8      19.445213   19.378524   27.127523 C.3        1 MOL1         0.0145
      24    H16     19.057932   18.564008   27.745589 H          1 MOL1         0.0921
      25    H17     18.770145   20.233400   27.221925 H          1 MOL1         0.0921
      26    N1      20.795082   19.785010   27.682312 N.4        1 MOL1        -0.5969
      27    H18     20.730189   20.080872   28.662603 H          1 MOL1         0.3603
      28    H19     21.202568   20.567904   27.160345 H          1 MOL1         0.3603
      29    H20     21.470185   19.013994   27.647157 H          1 MOL1         0.3603
@<TRIPOS>BOND
    1     1     2    1
    2     1     3    1
    3     1     4    1
    4     1     5    1
    5     5     6    1
    6     5     7    1
    7     5     8    1
    8     8     9    1
    9     8    10    1
   10     8    11    1
   11    11    12    1
   12    11    13    1
   13    11    14    1
   14    14    15    1
   15    14    16    1
   16    14    17    1
   17    17    18    1
   18    17    19    1
   19    17    20    1
   20    20    21    1
   21    20    22    1
   22    20    23    1
   23    23    24    1
   24    23    25    1
   25    23    26    1
   26    26    27    1
   27    26    28    1
   28    26    29    1
@<TRIPOS>SUBSTRUCTURE
       1 MOL1            1 RESIDUE      1      MOL     
@<SCITEGIC>MOL_PROPERTY
VM2 Rank
SciTegic.value.IntegerValue
281

@<SCITEGIC>MOL_PROPERTY
Conf_Id
SciTegic.value.IntegerValue
1450

@<SCITEGIC>MOL_PROPERTY
Probability
SciTegic.value.DoubleValue
0.01

@<SCITEGIC>MOL_PROPERTY
Sum Probability
SciTegic.value.DoubleValue
99.67

@<SCITEGIC>MOL_PROPERTY
Delta G
SciTegic.value.DoubleValue
4.126

@<SCITEGIC>MOL_PROPERTY
G
SciTegic.value.DoubleValue
62.274

@<SCITEGIC>MOL_PROPERTY
E
SciTegic.value.DoubleValue
24.559

@<SCITEGIC>MOL_PROPERTY
-TS
SciTegic.value.DoubleValue
37.715

@<SCITEGIC>MOL_PROPERTY
U+W
SciTegic.value.DoubleValue
0.415

@<SCITEGIC>MOL_PROPERTY
U
SciTegic.value.DoubleValue
52.467

@<SCITEGIC>MOL_PROPERTY
W
SciTegic.value.DoubleValue
-52.052

@<SCITEGIC>MOL_PROPERTY
W(PB)
SciTegic.value.DoubleValue
-54.538

@<SCITEGIC>MOL_PROPERTY
W(SA)
SciTegic.value.DoubleValue
2.486

@<SCITEGIC>MOL_PROPERTY
Valence
SciTegic.value.DoubleValue
6.151

@<SCITEGIC>MOL_PROPERTY
Coulomb
SciTegic.value.DoubleValue
45.416

@<SCITEGIC>MOL_PROPERTY
VdW
SciTegic.value.DoubleValue
0.901

@<SCITEGIC>MOL_PROPERTY
VdW6
SciTegic.value.DoubleValue
-9.247

@<SCITEGIC>MOL_PROPERTY
VdW12
SciTegic.value.DoubleValue
10.147

@<SCITEGIC>MOL_PROPERTY
Bond
SciTegic.value.DoubleValue
0.270

@<SCITEGIC>MOL_PROPERTY
Angle
SciTegic.value.DoubleValue
1.360

@<SCITEGIC>MOL_PROPERTY
Pdih
SciTegic.value.DoubleValue
4.521

@<SCITEGIC>MOL_PROPERTY
Idih
SciTegic.value.DoubleValue
0.000

@<SCITEGIC>MOL_PROPERTY
Tether
SciTegic.value.DoubleValue
0.000

@<TRIPOS>MOLECULE
guest-3_vm2.mol2 : vm2 ligand conformer 282
          29          28           1
SMALL
USER_CHARGES
 
@<TRIPOS>ATOM
       1    C1      20.384466   19.225676   19.864988 C.3        1 MOL1        -0.2427
       2    H1      21.275354   18.622803   20.083777 H          1 MOL1         0.0958
       3    H2      19.557707   18.544884   19.628340 H          1 MOL1         0.0958
       4    H3      20.592353   19.816257   18.963365 H          1 MOL1         0.0958
       5    C2      20.037081   20.154550   21.050577 C.3        1 MOL1        -0.1412
       6    H4      19.123646   20.721415   20.822499 H          1 MOL1         0.0947
       7    H5      20.839623   20.897052   21.161831 H          1 MOL1         0.0947
       8    C3      19.867522   19.405132   22.394339 C.3        1 MOL1        -0.1437
       9    H6      20.777296   18.828755   22.610982 H          1 MOL1         0.0947
      10    H7      19.772501   20.157164   23.187842 H          1 MOL1         0.0947
      11    C4      18.632184   18.471716   22.429419 C.3        1 MOL1        -0.1437
      12    H8      18.685166   17.761651   21.594491 H          1 MOL1         0.0947
      13    H9      17.722137   19.065863   22.268877 H          1 MOL1         0.0947
      14    C5      18.487326   17.652295   23.737946 C.3        1 MOL1        -0.1437
      15    H10     17.606676   17.004741   23.625853 H          1 MOL1         0.0947
      16    H11     19.341674   16.970933   23.852147 H          1 MOL1         0.0947
      17    C6      18.300711   18.502859   25.021400 C.3        1 MOL1        -0.1437
      18    H12     17.589988   17.986439   25.681647 H          1 MOL1         0.0947
      19    H13     17.836370   19.467079   24.772152 H          1 MOL1         0.0947
      20    C7      19.614784   18.722825   25.808566 C.3        1 MOL1        -0.1477
      21    H14     20.027301   17.751089   26.111071 H          1 MOL1         0.0947
      22    H15     20.369207   19.203213   25.175212 H          1 MOL1         0.0947
      23    C8      19.379473   19.586206   27.060166 C.3        1 MOL1         0.0145
      24    H16     18.646759   19.100364   27.710189 H          1 MOL1         0.0921
      25    H17     18.984497   20.562135   26.765215 H          1 MOL1         0.0921
      26    N1      20.640453   19.816742   27.867597 N.4        1 MOL1        -0.5969
      27    H18     21.362354   20.296919   27.320145 H          1 MOL1         0.3603
      28    H19     21.048009   18.935990   28.198787 H          1 MOL1         0.3603
      29    H20     20.461212   20.393480   28.697033 H          1 MOL1         0.3603
@<TRIPOS>BOND
    1     1     2    1
    2     1     3    1
    3     1     4    1
    4     1     5    1
    5     5     6    1
    6     5     7    1
    7     5     8    1
    8     8     9    1
    9     8    10    1
   10     8    11    1
   11    11    12    1
   12    11    13    1
   13    11    14    1
   14    14    15    1
   15    14    16    1
   16    14    17    1
   17    17    18    1
   18    17    19    1
   19    17    20    1
   20    20    21    1
   21    20    22    1
   22    20    23    1
   23    23    24    1
   24    23    25    1
   25    23    26    1
   26    26    27    1
   27    26    28    1
   28    26    29    1
@<TRIPOS>SUBSTRUCTURE
       1 MOL1            1 RESIDUE      1      MOL     
@<SCITEGIC>MOL_PROPERTY
VM2 Rank
SciTegic.value.IntegerValue
282

@<SCITEGIC>MOL_PROPERTY
Conf_Id
SciTegic.value.IntegerValue
1440

@<SCITEGIC>MOL_PROPERTY
Probability
SciTegic.value.DoubleValue
0.01

@<SCITEGIC>MOL_PROPERTY
Sum Probability
SciTegic.value.DoubleValue
99.68

@<SCITEGIC>MOL_PROPERTY
Delta G
SciTegic.value.DoubleValue
4.134

@<SCITEGIC>MOL_PROPERTY
G
SciTegic.value.DoubleValue
62.282

@<SCITEGIC>MOL_PROPERTY
E
SciTegic.value.DoubleValue
24.650

@<SCITEGIC>MOL_PROPERTY
-TS
SciTegic.value.DoubleValue
37.633

@<SCITEGIC>MOL_PROPERTY
U+W
SciTegic.value.DoubleValue
0.505

@<SCITEGIC>MOL_PROPERTY
U
SciTegic.value.DoubleValue
52.577

@<SCITEGIC>MOL_PROPERTY
W
SciTegic.value.DoubleValue
-52.072

@<SCITEGIC>MOL_PROPERTY
W(PB)
SciTegic.value.DoubleValue
-54.550

@<SCITEGIC>MOL_PROPERTY
W(SA)
SciTegic.value.DoubleValue
2.478

@<SCITEGIC>MOL_PROPERTY
Valence
SciTegic.value.DoubleValue
6.244

@<SCITEGIC>MOL_PROPERTY
Coulomb
SciTegic.value.DoubleValue
45.374

@<SCITEGIC>MOL_PROPERTY
VdW
SciTegic.value.DoubleValue
0.959

@<SCITEGIC>MOL_PROPERTY
VdW6
SciTegic.value.DoubleValue
-9.152

@<SCITEGIC>MOL_PROPERTY
VdW12
SciTegic.value.DoubleValue
10.111

@<SCITEGIC>MOL_PROPERTY
Bond
SciTegic.value.DoubleValue
0.274

@<SCITEGIC>MOL_PROPERTY
Angle
SciTegic.value.DoubleValue
1.455

@<SCITEGIC>MOL_PROPERTY
Pdih
SciTegic.value.DoubleValue
4.516

@<SCITEGIC>MOL_PROPERTY
Idih
SciTegic.value.DoubleValue
0.000

@<SCITEGIC>MOL_PROPERTY
Tether
SciTegic.value.DoubleValue
0.000

@<TRIPOS>MOLECULE
guest-3_vm2.mol2 : vm2 ligand conformer 283
          29          28           1
SMALL
USER_CHARGES
 
@<TRIPOS>ATOM
       1    C1      21.027680   19.195521   20.440577 C.3        1 MOL1        -0.2427
       2    H1      21.849974   19.567598   21.065550 H          1 MOL1         0.0958
       3    H2      21.280361   18.178854   20.112342 H          1 MOL1         0.0958
       4    H3      20.967371   19.832291   19.548452 H          1 MOL1         0.0958
       5    C2      19.692194   19.213322   21.213800 C.3        1 MOL1        -0.1412
       6    H4      18.884443   18.865212   20.555067 H          1 MOL1         0.0947
       7    H5      19.454119   20.249002   21.490536 H          1 MOL1         0.0947
       8    C3      19.754045   18.325250   22.478404 C.3        1 MOL1        -0.1437
       9    H6      20.060293   17.311156   22.187026 H          1 MOL1         0.0947
      10    H7      20.538577   18.696431   23.149547 H          1 MOL1         0.0947
      11    C4      18.402482   18.229126   23.232858 C.3        1 MOL1        -0.1437
      12    H8      18.499628   17.525896   24.069196 H          1 MOL1         0.0947
      13    H9      17.658946   17.776778   22.562341 H          1 MOL1         0.0947
      14    C5      17.835816   19.576330   23.753324 C.3        1 MOL1        -0.1437
      15    H10     17.564713   20.203629   22.893862 H          1 MOL1         0.0947
      16    H11     16.889785   19.379071   24.275914 H          1 MOL1         0.0947
      17    C6      18.763020   20.396725   24.690438 C.3        1 MOL1        -0.1437
      18    H12     18.259973   21.353046   24.889565 H          1 MOL1         0.0947
      19    H13     19.698305   20.661051   24.179325 H          1 MOL1         0.0947
      20    C7      19.065211   19.730184   26.056576 C.3        1 MOL1        -0.1477
      21    H14     19.311706   20.518431   26.780361 H          1 MOL1         0.0947
      22    H15     18.165404   19.229884   26.438326 H          1 MOL1         0.0947
      23    C8      20.244584   18.740610   26.009217 C.3        1 MOL1         0.0145
      24    H16     21.141513   19.256544   25.656240 H          1 MOL1         0.0921
      25    H17     20.025640   17.924265   25.318921 H          1 MOL1         0.0921
      26    N1      20.558969   18.130933   27.359806 N.4        1 MOL1        -0.5969
      27    H18     20.806290   18.845283   28.052584 H          1 MOL1         0.3603
      28    H19     21.348556   17.477857   27.308935 H          1 MOL1         0.3603
      29    H20     19.761860   17.607867   27.737158 H          1 MOL1         0.3603
@<TRIPOS>BOND
    1     1     2    1
    2     1     3    1
    3     1     4    1
    4     1     5    1
    5     5     6    1
    6     5     7    1
    7     5     8    1
    8     8     9    1
    9     8    10    1
   10     8    11    1
   11    11    12    1
   12    11    13    1
   13    11    14    1
   14    14    15    1
   15    14    16    1
   16    14    17    1
   17    17    18    1
   18    17    19    1
   19    17    20    1
   20    20    21    1
   21    20    22    1
   22    20    23    1
   23    23    24    1
   24    23    25    1
   25    23    26    1
   26    26    27    1
   27    26    28    1
   28    26    29    1
@<TRIPOS>SUBSTRUCTURE
       1 MOL1            1 RESIDUE      1      MOL     
@<SCITEGIC>MOL_PROPERTY
VM2 Rank
SciTegic.value.IntegerValue
283

@<SCITEGIC>MOL_PROPERTY
Conf_Id
SciTegic.value.IntegerValue
1184

@<SCITEGIC>MOL_PROPERTY
Probability
SciTegic.value.DoubleValue
0.01

@<SCITEGIC>MOL_PROPERTY
Sum Probability
SciTegic.value.DoubleValue
99.68

@<SCITEGIC>MOL_PROPERTY
Delta G
SciTegic.value.DoubleValue
4.138

@<SCITEGIC>MOL_PROPERTY
G
SciTegic.value.DoubleValue
62.286

@<SCITEGIC>MOL_PROPERTY
E
SciTegic.value.DoubleValue
24.024

@<SCITEGIC>MOL_PROPERTY
-TS
SciTegic.value.DoubleValue
38.263

@<SCITEGIC>MOL_PROPERTY
U+W
SciTegic.value.DoubleValue
-0.121

@<SCITEGIC>MOL_PROPERTY
U
SciTegic.value.DoubleValue
52.441

@<SCITEGIC>MOL_PROPERTY
W
SciTegic.value.DoubleValue
-52.562

@<SCITEGIC>MOL_PROPERTY
W(PB)
SciTegic.value.DoubleValue
-54.978

@<SCITEGIC>MOL_PROPERTY
W(SA)
SciTegic.value.DoubleValue
2.416

@<SCITEGIC>MOL_PROPERTY
Valence
SciTegic.value.DoubleValue
5.943

@<SCITEGIC>MOL_PROPERTY
Coulomb
SciTegic.value.DoubleValue
46.128

@<SCITEGIC>MOL_PROPERTY
VdW
SciTegic.value.DoubleValue
0.370

@<SCITEGIC>MOL_PROPERTY
VdW6
SciTegic.value.DoubleValue
-10.817

@<SCITEGIC>MOL_PROPERTY
VdW12
SciTegic.value.DoubleValue
11.188

@<SCITEGIC>MOL_PROPERTY
Bond
SciTegic.value.DoubleValue
0.305

@<SCITEGIC>MOL_PROPERTY
Angle
SciTegic.value.DoubleValue
2.098

@<SCITEGIC>MOL_PROPERTY
Pdih
SciTegic.value.DoubleValue
3.540

@<SCITEGIC>MOL_PROPERTY
Idih
SciTegic.value.DoubleValue
0.000

@<SCITEGIC>MOL_PROPERTY
Tether
SciTegic.value.DoubleValue
0.000

@<TRIPOS>MOLECULE
guest-3_vm2.mol2 : vm2 ligand conformer 284
          29          28           1
SMALL
USER_CHARGES
 
@<TRIPOS>ATOM
       1    C1      21.326234   18.872838   21.038518 C.3        1 MOL1        -0.2427
       2    H1      21.478099   19.884732   21.433749 H          1 MOL1         0.0958
       3    H2      21.712687   18.154618   21.773220 H          1 MOL1         0.0958
       4    H3      21.932127   18.780368   20.127885 H          1 MOL1         0.0958
       5    C2      19.837002   18.601632   20.726519 C.3        1 MOL1        -0.1412
       6    H4      19.753250   17.628420   20.222942 H          1 MOL1         0.0947
       7    H5      19.465326   19.350163   20.012900 H          1 MOL1         0.0947
       8    C3      18.939568   18.586754   21.987105 C.3        1 MOL1        -0.1437
       9    H6      17.933206   18.259326   21.692001 H          1 MOL1         0.0947
      10    H7      19.313005   17.828657   22.685245 H          1 MOL1         0.0947
      11    C4      18.832370   19.969057   22.681583 C.3        1 MOL1        -0.1437
      12    H8      18.455111   20.691870   21.945144 H          1 MOL1         0.0947
      13    H9      19.822121   20.333489   22.985179 H          1 MOL1         0.0947
      14    C5      17.877877   19.971568   23.904208 C.3        1 MOL1        -0.1437
      15    H10     17.362653   20.941661   23.933417 H          1 MOL1         0.0947
      16    H11     17.086341   19.220976   23.773346 H          1 MOL1         0.0947
      17    C6      18.578748   19.775189   25.273258 C.3        1 MOL1        -0.1437
      18    H12     17.820786   19.862436   26.064088 H          1 MOL1         0.0947
      19    H13     19.287447   20.598437   25.434923 H          1 MOL1         0.0947
      20    C7      19.309427   18.419442   25.426157 C.3        1 MOL1        -0.1477
      21    H14     18.629545   17.604344   25.145165 H          1 MOL1         0.0947
      22    H15     20.167237   18.372590   24.743576 H          1 MOL1         0.0947
      23    C8      19.800885   18.171771   26.865095 C.3        1 MOL1         0.0145
      24    H16     20.243675   17.174240   26.931307 H          1 MOL1         0.0921
      25    H17     18.954572   18.216141   27.555856 H          1 MOL1         0.0921
      26    N1      20.841888   19.169749   27.332557 N.4        1 MOL1        -0.5969
      27    H18     21.675230   19.158119   26.735447 H          1 MOL1         0.3603
      28    H19     21.155197   18.972987   28.289459 H          1 MOL1         0.3603
      29    H20     20.477419   20.127555   27.326541 H          1 MOL1         0.3603
@<TRIPOS>BOND
    1     1     2    1
    2     1     3    1
    3     1     4    1
    4     1     5    1
    5     5     6    1
    6     5     7    1
    7     5     8    1
    8     8     9    1
    9     8    10    1
   10     8    11    1
   11    11    12    1
   12    11    13    1
   13    11    14    1
   14    14    15    1
   15    14    16    1
   16    14    17    1
   17    17    18    1
   18    17    19    1
   19    17    20    1
   20    20    21    1
   21    20    22    1
   22    20    23    1
   23    23    24    1
   24    23    25    1
   25    23    26    1
   26    26    27    1
   27    26    28    1
   28    26    29    1
@<TRIPOS>SUBSTRUCTURE
       1 MOL1            1 RESIDUE      1      MOL     
@<SCITEGIC>MOL_PROPERTY
VM2 Rank
SciTegic.value.IntegerValue
284

@<SCITEGIC>MOL_PROPERTY
Conf_Id
SciTegic.value.IntegerValue
1004

@<SCITEGIC>MOL_PROPERTY
Probability
SciTegic.value.DoubleValue
0.01

@<SCITEGIC>MOL_PROPERTY
Sum Probability
SciTegic.value.DoubleValue
99.69

@<SCITEGIC>MOL_PROPERTY
Delta G
SciTegic.value.DoubleValue
4.140

@<SCITEGIC>MOL_PROPERTY
G
SciTegic.value.DoubleValue
62.288

@<SCITEGIC>MOL_PROPERTY
E
SciTegic.value.DoubleValue
24.540

@<SCITEGIC>MOL_PROPERTY
-TS
SciTegic.value.DoubleValue
37.748

@<SCITEGIC>MOL_PROPERTY
U+W
SciTegic.value.DoubleValue
0.395

@<SCITEGIC>MOL_PROPERTY
U
SciTegic.value.DoubleValue
52.708

@<SCITEGIC>MOL_PROPERTY
W
SciTegic.value.DoubleValue
-52.313

@<SCITEGIC>MOL_PROPERTY
W(PB)
SciTegic.value.DoubleValue
-54.738

@<SCITEGIC>MOL_PROPERTY
W(SA)
SciTegic.value.DoubleValue
2.425

@<SCITEGIC>MOL_PROPERTY
Valence
SciTegic.value.DoubleValue
6.186

@<SCITEGIC>MOL_PROPERTY
Coulomb
SciTegic.value.DoubleValue
45.601

@<SCITEGIC>MOL_PROPERTY
VdW
SciTegic.value.DoubleValue
0.922

@<SCITEGIC>MOL_PROPERTY
VdW6
SciTegic.value.DoubleValue
-9.883

@<SCITEGIC>MOL_PROPERTY
VdW12
SciTegic.value.DoubleValue
10.805

@<SCITEGIC>MOL_PROPERTY
Bond
SciTegic.value.DoubleValue
0.292

@<SCITEGIC>MOL_PROPERTY
Angle
SciTegic.value.DoubleValue
1.417

@<SCITEGIC>MOL_PROPERTY
Pdih
SciTegic.value.DoubleValue
4.476

@<SCITEGIC>MOL_PROPERTY
Idih
SciTegic.value.DoubleValue
0.000

@<SCITEGIC>MOL_PROPERTY
Tether
SciTegic.value.DoubleValue
0.000

@<TRIPOS>MOLECULE
guest-3_vm2.mol2 : vm2 ligand conformer 285
          29          28           1
SMALL
USER_CHARGES
 
@<TRIPOS>ATOM
       1    C1      18.686451   20.161679   20.301686 C.3        1 MOL1        -0.2427
       2    H1      19.386472   20.915613   20.681352 H          1 MOL1         0.0958
       3    H2      19.067808   19.794013   19.340241 H          1 MOL1         0.0958
       4    H3      17.730017   20.665579   20.111351 H          1 MOL1         0.0958
       5    C2      18.495077   19.000294   21.303957 C.3        1 MOL1        -0.1412
       6    H4      17.717521   18.328880   20.913810 H          1 MOL1         0.0947
       7    H5      18.108588   19.394732   22.251324 H          1 MOL1         0.0947
       8    C3      19.787112   18.174940   21.536134 C.3        1 MOL1        -0.1437
       9    H6      19.536750   17.236676   22.049870 H          1 MOL1         0.0947
      10    H7      20.182973   17.875366   20.555941 H          1 MOL1         0.0947
      11    C4      20.904873   18.913127   22.322243 C.3        1 MOL1        -0.1437
      12    H8      20.859986   19.994839   22.145459 H          1 MOL1         0.0947
      13    H9      21.874152   18.590006   21.918188 H          1 MOL1         0.0947
      14    C5      20.919579   18.630203   23.846579 C.3        1 MOL1        -0.1437
      15    H10     21.075428   17.556037   24.017300 H          1 MOL1         0.0947
      16    H11     21.791295   19.138321   24.281602 H          1 MOL1         0.0947
      17    C6      19.645248   19.090446   24.591589 C.3        1 MOL1        -0.1437
      18    H12     18.784915   18.498793   24.252533 H          1 MOL1         0.0947
      19    H13     19.434570   20.140983   24.347769 H          1 MOL1         0.0947
      20    C7      19.786738   18.935083   26.121651 C.3        1 MOL1        -0.1477
      21    H14     19.999036   17.886247   26.368609 H          1 MOL1         0.0947
      22    H15     20.639096   19.529312   26.477237 H          1 MOL1         0.0947
      23    C8      18.509811   19.384906   26.852877 C.3        1 MOL1         0.0145
      24    H16     17.660810   18.784799   26.514470 H          1 MOL1         0.0921
      25    H17     18.303748   20.433726   26.622722 H          1 MOL1         0.0921
      26    N1      18.609111   19.247323   28.358283 N.4        1 MOL1        -0.5969
      27    H18     17.748445   19.552192   28.826287 H          1 MOL1         0.3603
      28    H19     19.374357   19.810795   28.743544 H          1 MOL1         0.3603
      29    H20     18.776084   18.276400   28.642804 H          1 MOL1         0.3603
@<TRIPOS>BOND
    1     1     2    1
    2     1     3    1
    3     1     4    1
    4     1     5    1
    5     5     6    1
    6     5     7    1
    7     5     8    1
    8     8     9    1
    9     8    10    1
   10     8    11    1
   11    11    12    1
   12    11    13    1
   13    11    14    1
   14    14    15    1
   15    14    16    1
   16    14    17    1
   17    17    18    1
   18    17    19    1
   19    17    20    1
   20    20    21    1
   21    20    22    1
   22    20    23    1
   23    23    24    1
   24    23    25    1
   25    23    26    1
   26    26    27    1
   27    26    28    1
   28    26    29    1
@<TRIPOS>SUBSTRUCTURE
       1 MOL1            1 RESIDUE      1      MOL     
@<SCITEGIC>MOL_PROPERTY
VM2 Rank
SciTegic.value.IntegerValue
285

@<SCITEGIC>MOL_PROPERTY
Conf_Id
SciTegic.value.IntegerValue
328

@<SCITEGIC>MOL_PROPERTY
Probability
SciTegic.value.DoubleValue
0.01

@<SCITEGIC>MOL_PROPERTY
Sum Probability
SciTegic.value.DoubleValue
99.69

@<SCITEGIC>MOL_PROPERTY
Delta G
SciTegic.value.DoubleValue
4.144

@<SCITEGIC>MOL_PROPERTY
G
SciTegic.value.DoubleValue
62.292

@<SCITEGIC>MOL_PROPERTY
E
SciTegic.value.DoubleValue
24.685

@<SCITEGIC>MOL_PROPERTY
-TS
SciTegic.value.DoubleValue
37.607

@<SCITEGIC>MOL_PROPERTY
U+W
SciTegic.value.DoubleValue
0.540

@<SCITEGIC>MOL_PROPERTY
U
SciTegic.value.DoubleValue
52.136

@<SCITEGIC>MOL_PROPERTY
W
SciTegic.value.DoubleValue
-51.596

@<SCITEGIC>MOL_PROPERTY
W(PB)
SciTegic.value.DoubleValue
-54.073

@<SCITEGIC>MOL_PROPERTY
W(SA)
SciTegic.value.DoubleValue
2.477

@<SCITEGIC>MOL_PROPERTY
Valence
SciTegic.value.DoubleValue
6.312

@<SCITEGIC>MOL_PROPERTY
Coulomb
SciTegic.value.DoubleValue
44.908

@<SCITEGIC>MOL_PROPERTY
VdW
SciTegic.value.DoubleValue
0.916

@<SCITEGIC>MOL_PROPERTY
VdW6
SciTegic.value.DoubleValue
-9.106

@<SCITEGIC>MOL_PROPERTY
VdW12
SciTegic.value.DoubleValue
10.023

@<SCITEGIC>MOL_PROPERTY
Bond
SciTegic.value.DoubleValue
0.279

@<SCITEGIC>MOL_PROPERTY
Angle
SciTegic.value.DoubleValue
1.475

@<SCITEGIC>MOL_PROPERTY
Pdih
SciTegic.value.DoubleValue
4.558

@<SCITEGIC>MOL_PROPERTY
Idih
SciTegic.value.DoubleValue
0.000

@<SCITEGIC>MOL_PROPERTY
Tether
SciTegic.value.DoubleValue
0.000

@<TRIPOS>MOLECULE
guest-3_vm2.mol2 : vm2 ligand conformer 286
          29          28           1
SMALL
USER_CHARGES
 
@<TRIPOS>ATOM
       1    C1      21.071646   18.988748   20.813055 C.3        1 MOL1        -0.2427
       2    H1      21.754027   18.985391   19.953294 H          1 MOL1         0.0958
       3    H2      21.541794   19.574558   21.613496 H          1 MOL1         0.0958
       4    H3      20.968296   17.951036   21.153074 H          1 MOL1         0.0958
       5    C2      19.704765   19.586355   20.414660 C.3        1 MOL1        -0.1412
       6    H4      19.229779   18.941476   19.662202 H          1 MOL1         0.0947
       7    H5      19.873920   20.554300   19.922543 H          1 MOL1         0.0947
       8    C3      18.733630   19.802685   21.603059 C.3        1 MOL1        -0.1437
       9    H6      19.162925   20.527822   22.305145 H          1 MOL1         0.0947
      10    H7      17.827722   20.280107   21.204831 H          1 MOL1         0.0947
      11    C4      18.307645   18.501179   22.336052 C.3        1 MOL1        -0.1437
      12    H8      18.323631   17.662475   21.626632 H          1 MOL1         0.0947
      13    H9      17.259508   18.598157   22.650951 H          1 MOL1         0.0947
      14    C5      19.158537   18.140529   23.581793 C.3        1 MOL1        -0.1437
      15    H10     18.907687   17.114808   23.885316 H          1 MOL1         0.0947
      16    H11     20.225338   18.131408   23.329041 H          1 MOL1         0.0947
      17    C6      18.917051   19.085623   24.783948 C.3        1 MOL1        -0.1437
      18    H12     17.846244   19.100356   25.030152 H          1 MOL1         0.0947
      19    H13     19.195674   20.113973   24.520457 H          1 MOL1         0.0947
      20    C7      19.722700   18.647928   26.026886 C.3        1 MOL1        -0.1477
      21    H14     19.442306   17.624106   26.308379 H          1 MOL1         0.0947
      22    H15     20.794279   18.634576   25.786774 H          1 MOL1         0.0947
      23    C8      19.476936   19.590959   27.217654 C.3        1 MOL1         0.0145
      24    H16     18.413263   19.595042   27.470709 H          1 MOL1         0.0921
      25    H17     19.770670   20.609010   26.947950 H          1 MOL1         0.0921
      26    N1      20.251088   19.193995   28.457894 N.4        1 MOL1        -0.5969
      27    H18     20.000045   18.253350   28.779913 H          1 MOL1         0.3603
      28    H19     20.073271   19.834777   29.239246 H          1 MOL1         0.3603
      29    H20     21.263258   19.196904   28.293517 H          1 MOL1         0.3603
@<TRIPOS>BOND
    1     1     2    1
    2     1     3    1
    3     1     4    1
    4     1     5    1
    5     5     6    1
    6     5     7    1
    7     5     8    1
    8     8     9    1
    9     8    10    1
   10     8    11    1
   11    11    12    1
   12    11    13    1
   13    11    14    1
   14    14    15    1
   15    14    16    1
   16    14    17    1
   17    17    18    1
   18    17    19    1
   19    17    20    1
   20    20    21    1
   21    20    22    1
   22    20    23    1
   23    23    24    1
   24    23    25    1
   25    23    26    1
   26    26    27    1
   27    26    28    1
   28    26    29    1
@<TRIPOS>SUBSTRUCTURE
       1 MOL1            1 RESIDUE      1      MOL     
@<SCITEGIC>MOL_PROPERTY
VM2 Rank
SciTegic.value.IntegerValue
286

@<SCITEGIC>MOL_PROPERTY
Conf_Id
SciTegic.value.IntegerValue
2287

@<SCITEGIC>MOL_PROPERTY
Probability
SciTegic.value.DoubleValue
0.01

@<SCITEGIC>MOL_PROPERTY
Sum Probability
SciTegic.value.DoubleValue
99.70

@<SCITEGIC>MOL_PROPERTY
Delta G
SciTegic.value.DoubleValue
4.148

@<SCITEGIC>MOL_PROPERTY
G
SciTegic.value.DoubleValue
62.296

@<SCITEGIC>MOL_PROPERTY
E
SciTegic.value.DoubleValue
24.720

@<SCITEGIC>MOL_PROPERTY
-TS
SciTegic.value.DoubleValue
37.576

@<SCITEGIC>MOL_PROPERTY
U+W
SciTegic.value.DoubleValue
0.576

@<SCITEGIC>MOL_PROPERTY
U
SciTegic.value.DoubleValue
52.076

@<SCITEGIC>MOL_PROPERTY
W
SciTegic.value.DoubleValue
-51.500

@<SCITEGIC>MOL_PROPERTY
W(PB)
SciTegic.value.DoubleValue
-53.968

@<SCITEGIC>MOL_PROPERTY
W(SA)
SciTegic.value.DoubleValue
2.468

@<SCITEGIC>MOL_PROPERTY
Valence
SciTegic.value.DoubleValue
6.296

@<SCITEGIC>MOL_PROPERTY
Coulomb
SciTegic.value.DoubleValue
44.840

@<SCITEGIC>MOL_PROPERTY
VdW
SciTegic.value.DoubleValue
0.940

@<SCITEGIC>MOL_PROPERTY
VdW6
SciTegic.value.DoubleValue
-9.057

@<SCITEGIC>MOL_PROPERTY
VdW12
SciTegic.value.DoubleValue
9.997

@<SCITEGIC>MOL_PROPERTY
Bond
SciTegic.value.DoubleValue
0.283

@<SCITEGIC>MOL_PROPERTY
Angle
SciTegic.value.DoubleValue
1.462

@<SCITEGIC>MOL_PROPERTY
Pdih
SciTegic.value.DoubleValue
4.550

@<SCITEGIC>MOL_PROPERTY
Idih
SciTegic.value.DoubleValue
0.000

@<SCITEGIC>MOL_PROPERTY
Tether
SciTegic.value.DoubleValue
0.000

@<TRIPOS>MOLECULE
guest-3_vm2.mol2 : vm2 ligand conformer 287
          29          28           1
SMALL
USER_CHARGES
 
@<TRIPOS>ATOM
       1    C1      20.642537   18.115303   20.416515 C.3        1 MOL1        -0.2427
       2    H1      21.035270   17.282700   21.014625 H          1 MOL1         0.0958
       3    H2      20.205730   17.696118   19.500826 H          1 MOL1         0.0958
       4    H3      21.485826   18.755008   20.125249 H          1 MOL1         0.0958
       5    C2      19.586010   18.915510   21.207165 C.3        1 MOL1        -0.1412
       6    H4      18.742752   18.253881   21.446037 H          1 MOL1         0.0947
       7    H5      19.189834   19.721691   20.574166 H          1 MOL1         0.0947
       8    C3      20.177666   19.513431   22.504917 C.3        1 MOL1        -0.1437
       9    H6      20.541159   18.703607   23.149709 H          1 MOL1         0.0947
      10    H7      21.060236   20.115891   22.249597 H          1 MOL1         0.0947
      11    C4      19.180944   20.412591   23.281590 C.3        1 MOL1        -0.1437
      12    H8      18.900537   21.259278   22.640068 H          1 MOL1         0.0947
      13    H9      19.689072   20.862117   24.143660 H          1 MOL1         0.0947
      14    C5      17.882778   19.708022   23.756253 C.3        1 MOL1        -0.1437
      15    H10     17.267415   20.438144   24.299608 H          1 MOL1         0.0947
      16    H11     17.288221   19.428233   22.876538 H          1 MOL1         0.0947
      17    C6      18.068929   18.449816   24.646874 C.3        1 MOL1        -0.1437
      18    H12     18.633455   17.674175   24.112502 H          1 MOL1         0.0947
      19    H13     17.071751   18.020127   24.814985 H          1 MOL1         0.0947
      20    C7      18.705133   18.720198   26.033981 C.3        1 MOL1        -0.1477
      21    H14     18.319067   19.661055   26.448015 H          1 MOL1         0.0947
      22    H15     18.387430   17.925710   26.722320 H          1 MOL1         0.0947
      23    C8      20.245047   18.742030   26.009260 C.3        1 MOL1         0.0145
      24    H16     20.601384   19.539605   25.355223 H          1 MOL1         0.0921
      25    H17     20.618585   17.789806   25.623256 H          1 MOL1         0.0921
      26    N1      20.854957   18.961097   27.378444 N.4        1 MOL1        -0.5969
      27    H18     20.562913   19.854749   27.787675 H          1 MOL1         0.3603
      28    H19     21.880227   18.969165   27.342367 H          1 MOL1         0.3603
      29    H20     20.585056   18.224392   28.038614 H          1 MOL1         0.3603
@<TRIPOS>BOND
    1     1     2    1
    2     1     3    1
    3     1     4    1
    4     1     5    1
    5     5     6    1
    6     5     7    1
    7     5     8    1
    8     8     9    1
    9     8    10    1
   10     8    11    1
   11    11    12    1
   12    11    13    1
   13    11    14    1
   14    14    15    1
   15    14    16    1
   16    14    17    1
   17    17    18    1
   18    17    19    1
   19    17    20    1
   20    20    21    1
   21    20    22    1
   22    20    23    1
   23    23    24    1
   24    23    25    1
   25    23    26    1
   26    26    27    1
   27    26    28    1
   28    26    29    1
@<TRIPOS>SUBSTRUCTURE
       1 MOL1            1 RESIDUE      1      MOL     
@<SCITEGIC>MOL_PROPERTY
VM2 Rank
SciTegic.value.IntegerValue
287

@<SCITEGIC>MOL_PROPERTY
Conf_Id
SciTegic.value.IntegerValue
963

@<SCITEGIC>MOL_PROPERTY
Probability
SciTegic.value.DoubleValue
0.00

@<SCITEGIC>MOL_PROPERTY
Sum Probability
SciTegic.value.DoubleValue
99.70

@<SCITEGIC>MOL_PROPERTY
Delta G
SciTegic.value.DoubleValue
4.175

@<SCITEGIC>MOL_PROPERTY
G
SciTegic.value.DoubleValue
62.323

@<SCITEGIC>MOL_PROPERTY
E
SciTegic.value.DoubleValue
24.060

@<SCITEGIC>MOL_PROPERTY
-TS
SciTegic.value.DoubleValue
38.263

@<SCITEGIC>MOL_PROPERTY
U+W
SciTegic.value.DoubleValue
-0.084

@<SCITEGIC>MOL_PROPERTY
U
SciTegic.value.DoubleValue
52.441

@<SCITEGIC>MOL_PROPERTY
W
SciTegic.value.DoubleValue
-52.525

@<SCITEGIC>MOL_PROPERTY
W(PB)
SciTegic.value.DoubleValue
-54.955

@<SCITEGIC>MOL_PROPERTY
W(SA)
SciTegic.value.DoubleValue
2.430

@<SCITEGIC>MOL_PROPERTY
Valence
SciTegic.value.DoubleValue
5.943

@<SCITEGIC>MOL_PROPERTY
Coulomb
SciTegic.value.DoubleValue
46.128

@<SCITEGIC>MOL_PROPERTY
VdW
SciTegic.value.DoubleValue
0.370

@<SCITEGIC>MOL_PROPERTY
VdW6
SciTegic.value.DoubleValue
-10.817

@<SCITEGIC>MOL_PROPERTY
VdW12
SciTegic.value.DoubleValue
11.187

@<SCITEGIC>MOL_PROPERTY
Bond
SciTegic.value.DoubleValue
0.305

@<SCITEGIC>MOL_PROPERTY
Angle
SciTegic.value.DoubleValue
2.098

@<SCITEGIC>MOL_PROPERTY
Pdih
SciTegic.value.DoubleValue
3.540

@<SCITEGIC>MOL_PROPERTY
Idih
SciTegic.value.DoubleValue
0.000

@<SCITEGIC>MOL_PROPERTY
Tether
SciTegic.value.DoubleValue
0.000

@<TRIPOS>MOLECULE
guest-3_vm2.mol2 : vm2 ligand conformer 288
          29          28           1
SMALL
USER_CHARGES
 
@<TRIPOS>ATOM
       1    C1      19.291939   20.769032   21.243860 C.3        1 MOL1        -0.2427
       2    H1      18.765478   20.709933   20.282480 H          1 MOL1         0.0958
       3    H2      18.548387   20.681618   22.045045 H          1 MOL1         0.0958
       4    H3      19.744310   21.766351   21.317910 H          1 MOL1         0.0958
       5    C2      20.377005   19.673025   21.347670 C.3        1 MOL1        -0.1412
       6    H4      20.911270   19.753846   22.302711 H          1 MOL1         0.0947
       7    H5      21.131741   19.854300   20.569793 H          1 MOL1         0.0947
       8    C3      19.820184   18.240080   21.164937 C.3        1 MOL1        -0.1437
       9    H6      19.368906   18.165736   20.165969 H          1 MOL1         0.0947
      10    H7      20.660567   17.532403   21.164044 H          1 MOL1         0.0947
      11    C4      18.774475   17.775077   22.214220 C.3        1 MOL1        -0.1437
      12    H8      18.425163   16.780894   21.903036 H          1 MOL1         0.0947
      13    H9      17.883227   18.415617   22.186095 H          1 MOL1         0.0947
      14    C5      19.314507   17.653561   23.663545 C.3        1 MOL1        -0.1437
      15    H10     18.816711   16.800441   24.145031 H          1 MOL1         0.0947
      16    H11     20.385568   17.409461   23.647663 H          1 MOL1         0.0947
      17    C6      19.060567   18.909405   24.532495 C.3        1 MOL1        -0.1437
      18    H12     17.983486   19.125532   24.556631 H          1 MOL1         0.0947
      19    H13     19.547146   19.786427   24.090901 H          1 MOL1         0.0947
      20    C7      19.576579   18.720762   25.975832 C.3        1 MOL1        -0.1477
      21    H14     19.082891   17.854164   26.435556 H          1 MOL1         0.0947
      22    H15     20.653592   18.506733   25.958046 H          1 MOL1         0.0947
      23    C8      19.317700   19.971562   26.833778 C.3        1 MOL1         0.0145
      24    H16     18.244764   20.179180   26.867776 H          1 MOL1         0.0921
      25    H17     19.821471   20.834013   26.388975 H          1 MOL1         0.0921
      26    N1      19.811044   19.825495   28.258664 N.4        1 MOL1        -0.5969
      27    H18     19.354180   19.045471   28.742770 H          1 MOL1         0.3603
      28    H19     19.628947   20.669299   28.813232 H          1 MOL1         0.3603
      29    H20     20.821421   19.654772   28.297336 H          1 MOL1         0.3603
@<TRIPOS>BOND
    1     1     2    1
    2     1     3    1
    3     1     4    1
    4     1     5    1
    5     5     6    1
    6     5     7    1
    7     5     8    1
    8     8     9    1
    9     8    10    1
   10     8    11    1
   11    11    12    1
   12    11    13    1
   13    11    14    1
   14    14    15    1
   15    14    16    1
   16    14    17    1
   17    17    18    1
   18    17    19    1
   19    17    20    1
   20    20    21    1
   21    20    22    1
   22    20    23    1
   23    23    24    1
   24    23    25    1
   25    23    26    1
   26    26    27    1
   27    26    28    1
   28    26    29    1
@<TRIPOS>SUBSTRUCTURE
       1 MOL1            1 RESIDUE      1      MOL     
@<SCITEGIC>MOL_PROPERTY
VM2 Rank
SciTegic.value.IntegerValue
288

@<SCITEGIC>MOL_PROPERTY
Conf_Id
SciTegic.value.IntegerValue
2013

@<SCITEGIC>MOL_PROPERTY
Probability
SciTegic.value.DoubleValue
0.00

@<SCITEGIC>MOL_PROPERTY
Sum Probability
SciTegic.value.DoubleValue
99.71

@<SCITEGIC>MOL_PROPERTY
Delta G
SciTegic.value.DoubleValue
4.175

@<SCITEGIC>MOL_PROPERTY
G
SciTegic.value.DoubleValue
62.323

@<SCITEGIC>MOL_PROPERTY
E
SciTegic.value.DoubleValue
24.322

@<SCITEGIC>MOL_PROPERTY
-TS
SciTegic.value.DoubleValue
38.001

@<SCITEGIC>MOL_PROPERTY
U+W
SciTegic.value.DoubleValue
0.177

@<SCITEGIC>MOL_PROPERTY
U
SciTegic.value.DoubleValue
51.870

@<SCITEGIC>MOL_PROPERTY
W
SciTegic.value.DoubleValue
-51.693

@<SCITEGIC>MOL_PROPERTY
W(PB)
SciTegic.value.DoubleValue
-54.128

@<SCITEGIC>MOL_PROPERTY
W(SA)
SciTegic.value.DoubleValue
2.436

@<SCITEGIC>MOL_PROPERTY
Valence
SciTegic.value.DoubleValue
6.196

@<SCITEGIC>MOL_PROPERTY
Coulomb
SciTegic.value.DoubleValue
45.072

@<SCITEGIC>MOL_PROPERTY
VdW
SciTegic.value.DoubleValue
0.602

@<SCITEGIC>MOL_PROPERTY
VdW6
SciTegic.value.DoubleValue
-9.621

@<SCITEGIC>MOL_PROPERTY
VdW12
SciTegic.value.DoubleValue
10.223

@<SCITEGIC>MOL_PROPERTY
Bond
SciTegic.value.DoubleValue
0.275

@<SCITEGIC>MOL_PROPERTY
Angle
SciTegic.value.DoubleValue
1.754

@<SCITEGIC>MOL_PROPERTY
Pdih
SciTegic.value.DoubleValue
4.168

@<SCITEGIC>MOL_PROPERTY
Idih
SciTegic.value.DoubleValue
0.000

@<SCITEGIC>MOL_PROPERTY
Tether
SciTegic.value.DoubleValue
0.000

@<TRIPOS>MOLECULE
guest-3_vm2.mol2 : vm2 ligand conformer 289
          29          28           1
SMALL
USER_CHARGES
 
@<TRIPOS>ATOM
       1    C1      20.322133   18.064889   20.570359 C.3        1 MOL1        -0.2427
       2    H1      19.881322   17.373548   21.299383 H          1 MOL1         0.0958
       3    H2      19.634375   18.152727   19.719352 H          1 MOL1         0.0958
       4    H3      21.252715   17.611381   20.205430 H          1 MOL1         0.0958
       5    C2      20.604394   19.447205   21.200807 C.3        1 MOL1        -0.1412
       6    H4      21.150574   20.062998   20.472721 H          1 MOL1         0.0947
       7    H5      21.277526   19.331762   22.060711 H          1 MOL1         0.0947
       8    C3      19.320303   20.205777   21.622887 C.3        1 MOL1        -0.1437
       9    H6      19.605964   21.184903   22.031271 H          1 MOL1         0.0947
      10    H7      18.722472   20.417516   20.725748 H          1 MOL1         0.0947
      11    C4      18.425117   19.471176   22.654033 C.3        1 MOL1        -0.1437
      12    H8      18.035973   18.542360   22.216318 H          1 MOL1         0.0947
      13    H9      17.547334   20.099423   22.858993 H          1 MOL1         0.0947
      14    C5      19.145196   19.161282   23.987941 C.3        1 MOL1        -0.1437
      15    H10     19.976203   18.466499   23.808619 H          1 MOL1         0.0947
      16    H11     19.570374   20.092252   24.382273 H          1 MOL1         0.0947
      17    C6      18.179986   18.543837   25.027161 C.3        1 MOL1        -0.1437
      18    H12     17.646020   17.704156   24.561088 H          1 MOL1         0.0947
      19    H13     17.412588   19.281878   25.298807 H          1 MOL1         0.0947
      20    C7      18.870820   18.021362   26.312667 C.3        1 MOL1        -0.1477
      21    H14     18.104913   17.537375   26.933131 H          1 MOL1         0.0947
      22    H15     19.597512   17.236484   26.064152 H          1 MOL1         0.0947
      23    C8      19.545318   19.114738   27.166786 C.3        1 MOL1         0.0145
      24    H16     19.651471   18.750537   28.192240 H          1 MOL1         0.0921
      25    H17     18.917486   20.009536   27.187773 H          1 MOL1         0.0921
      26    N1      20.930733   19.507734   26.692360 N.4        1 MOL1        -0.5969
      27    H18     21.576345   18.711318   26.707720 H          1 MOL1         0.3603
      28    H19     21.342163   20.237890   27.284204 H          1 MOL1         0.3603
      29    H20     20.915356   19.867092   25.733702 H          1 MOL1         0.3603
@<TRIPOS>BOND
    1     1     2    1
    2     1     3    1
    3     1     4    1
    4     1     5    1
    5     5     6    1
    6     5     7    1
    7     5     8    1
    8     8     9    1
    9     8    10    1
   10     8    11    1
   11    11    12    1
   12    11    13    1
   13    11    14    1
   14    14    15    1
   15    14    16    1
   16    14    17    1
   17    17    18    1
   18    17    19    1
   19    17    20    1
   20    20    21    1
   21    20    22    1
   22    20    23    1
   23    23    24    1
   24    23    25    1
   25    23    26    1
   26    26    27    1
   27    26    28    1
   28    26    29    1
@<TRIPOS>SUBSTRUCTURE
       1 MOL1            1 RESIDUE      1      MOL     
@<SCITEGIC>MOL_PROPERTY
VM2 Rank
SciTegic.value.IntegerValue
289

@<SCITEGIC>MOL_PROPERTY
Conf_Id
SciTegic.value.IntegerValue
479

@<SCITEGIC>MOL_PROPERTY
Probability
SciTegic.value.DoubleValue
0.00

@<SCITEGIC>MOL_PROPERTY
Sum Probability
SciTegic.value.DoubleValue
99.71

@<SCITEGIC>MOL_PROPERTY
Delta G
SciTegic.value.DoubleValue
4.183

@<SCITEGIC>MOL_PROPERTY
G
SciTegic.value.DoubleValue
62.331

@<SCITEGIC>MOL_PROPERTY
E
SciTegic.value.DoubleValue
24.545

@<SCITEGIC>MOL_PROPERTY
-TS
SciTegic.value.DoubleValue
37.786

@<SCITEGIC>MOL_PROPERTY
U+W
SciTegic.value.DoubleValue
0.401

@<SCITEGIC>MOL_PROPERTY
U
SciTegic.value.DoubleValue
52.667

@<SCITEGIC>MOL_PROPERTY
W
SciTegic.value.DoubleValue
-52.266

@<SCITEGIC>MOL_PROPERTY
W(PB)
SciTegic.value.DoubleValue
-54.694

@<SCITEGIC>MOL_PROPERTY
W(SA)
SciTegic.value.DoubleValue
2.428

@<SCITEGIC>MOL_PROPERTY
Valence
SciTegic.value.DoubleValue
5.120

@<SCITEGIC>MOL_PROPERTY
Coulomb
SciTegic.value.DoubleValue
46.799

@<SCITEGIC>MOL_PROPERTY
VdW
SciTegic.value.DoubleValue
0.748

@<SCITEGIC>MOL_PROPERTY
VdW6
SciTegic.value.DoubleValue
-10.098

@<SCITEGIC>MOL_PROPERTY
VdW12
SciTegic.value.DoubleValue
10.846

@<SCITEGIC>MOL_PROPERTY
Bond
SciTegic.value.DoubleValue
0.281

@<SCITEGIC>MOL_PROPERTY
Angle
SciTegic.value.DoubleValue
1.589

@<SCITEGIC>MOL_PROPERTY
Pdih
SciTegic.value.DoubleValue
3.250

@<SCITEGIC>MOL_PROPERTY
Idih
SciTegic.value.DoubleValue
0.000

@<SCITEGIC>MOL_PROPERTY
Tether
SciTegic.value.DoubleValue
0.000

@<TRIPOS>MOLECULE
guest-3_vm2.mol2 : vm2 ligand conformer 290
          29          28           1
SMALL
USER_CHARGES
 
@<TRIPOS>ATOM
       1    C1      20.133465   18.522515   19.848912 C.3        1 MOL1        -0.2427
       2    H1      19.934200   17.969681   18.921768 H          1 MOL1         0.0958
       3    H2      19.925540   19.581150   19.651248 H          1 MOL1         0.0958
       4    H3      21.201838   18.418252   20.078505 H          1 MOL1         0.0958
       5    C2      19.261283   17.975408   21.001769 C.3        1 MOL1        -0.1412
       6    H4      19.413100   16.889231   21.072007 H          1 MOL1         0.0947
       7    H5      18.198299   18.122263   20.764669 H          1 MOL1         0.0947
       8    C3      19.584506   18.609426   22.376406 C.3        1 MOL1        -0.1437
       9    H6      19.024775   18.055704   23.140812 H          1 MOL1         0.0947
      10    H7      20.650747   18.472430   22.602671 H          1 MOL1         0.0947
      11    C4      19.216076   20.111019   22.466023 C.3        1 MOL1        -0.1437
      12    H8      18.137632   20.232229   22.295039 H          1 MOL1         0.0947
      13    H9      19.717359   20.660458   21.659216 H          1 MOL1         0.0947
      14    C5      19.603100   20.784989   23.807904 C.3        1 MOL1        -0.1437
      15    H10     20.694093   20.768062   23.936954 H          1 MOL1         0.0947
      16    H11     19.331385   21.847129   23.733990 H          1 MOL1         0.0947
      17    C6      18.902906   20.193680   25.059152 C.3        1 MOL1        -0.1437
      18    H12     17.937340   19.750553   24.778474 H          1 MOL1         0.0947
      19    H13     18.669090   21.016371   25.749262 H          1 MOL1         0.0947
      20    C7      19.771143   19.161955   25.818433 C.3        1 MOL1        -0.1477
      21    H14     20.060952   18.338322   25.156085 H          1 MOL1         0.0947
      22    H15     20.700681   19.641447   26.153094 H          1 MOL1         0.0947
      23    C8      19.025714   18.593114   27.038292 C.3        1 MOL1         0.0145
      24    H16     18.106966   18.099067   26.710794 H          1 MOL1         0.0921
      25    H17     18.756014   19.406596   27.717228 H          1 MOL1         0.0921
      26    N1      19.845807   17.585893   27.818108 N.4        1 MOL1        -0.5969
      27    H18     20.109192   16.779537   27.242059 H          1 MOL1         0.3603
      28    H19     19.330915   17.220193   28.626729 H          1 MOL1         0.3603
      29    H20     20.713693   17.996880   28.177797 H          1 MOL1         0.3603
@<TRIPOS>BOND
    1     1     2    1
    2     1     3    1
    3     1     4    1
    4     1     5    1
    5     5     6    1
    6     5     7    1
    7     5     8    1
    8     8     9    1
    9     8    10    1
   10     8    11    1
   11    11    12    1
   12    11    13    1
   13    11    14    1
   14    14    15    1
   15    14    16    1
   16    14    17    1
   17    17    18    1
   18    17    19    1
   19    17    20    1
   20    20    21    1
   21    20    22    1
   22    20    23    1
   23    23    24    1
   24    23    25    1
   25    23    26    1
   26    26    27    1
   27    26    28    1
   28    26    29    1
@<TRIPOS>SUBSTRUCTURE
       1 MOL1            1 RESIDUE      1      MOL     
@<SCITEGIC>MOL_PROPERTY
VM2 Rank
SciTegic.value.IntegerValue
290

@<SCITEGIC>MOL_PROPERTY
Conf_Id
SciTegic.value.IntegerValue
315

@<SCITEGIC>MOL_PROPERTY
Probability
SciTegic.value.DoubleValue
0.00

@<SCITEGIC>MOL_PROPERTY
Sum Probability
SciTegic.value.DoubleValue
99.72

@<SCITEGIC>MOL_PROPERTY
Delta G
SciTegic.value.DoubleValue
4.188

@<SCITEGIC>MOL_PROPERTY
G
SciTegic.value.DoubleValue
62.336

@<SCITEGIC>MOL_PROPERTY
E
SciTegic.value.DoubleValue
24.704

@<SCITEGIC>MOL_PROPERTY
-TS
SciTegic.value.DoubleValue
37.632

@<SCITEGIC>MOL_PROPERTY
U+W
SciTegic.value.DoubleValue
0.560

@<SCITEGIC>MOL_PROPERTY
U
SciTegic.value.DoubleValue
52.576

@<SCITEGIC>MOL_PROPERTY
W
SciTegic.value.DoubleValue
-52.017

@<SCITEGIC>MOL_PROPERTY
W(PB)
SciTegic.value.DoubleValue
-54.493

@<SCITEGIC>MOL_PROPERTY
W(SA)
SciTegic.value.DoubleValue
2.476

@<SCITEGIC>MOL_PROPERTY
Valence
SciTegic.value.DoubleValue
6.244

@<SCITEGIC>MOL_PROPERTY
Coulomb
SciTegic.value.DoubleValue
45.373

@<SCITEGIC>MOL_PROPERTY
VdW
SciTegic.value.DoubleValue
0.959

@<SCITEGIC>MOL_PROPERTY
VdW6
SciTegic.value.DoubleValue
-9.151

@<SCITEGIC>MOL_PROPERTY
VdW12
SciTegic.value.DoubleValue
10.111

@<SCITEGIC>MOL_PROPERTY
Bond
SciTegic.value.DoubleValue
0.274

@<SCITEGIC>MOL_PROPERTY
Angle
SciTegic.value.DoubleValue
1.455

@<SCITEGIC>MOL_PROPERTY
Pdih
SciTegic.value.DoubleValue
4.515

@<SCITEGIC>MOL_PROPERTY
Idih
SciTegic.value.DoubleValue
0.000

@<SCITEGIC>MOL_PROPERTY
Tether
SciTegic.value.DoubleValue
0.000

@<TRIPOS>MOLECULE
guest-3_vm2.mol2 : vm2 ligand conformer 291
          29          28           1
SMALL
USER_CHARGES
 
@<TRIPOS>ATOM
       1    C1      20.827964   19.564980   20.807425 C.3        1 MOL1        -0.2427
       2    H1      21.319582   19.968548   19.912832 H          1 MOL1         0.0958
       3    H2      20.628414   20.408426   21.479774 H          1 MOL1         0.0958
       4    H3      21.533187   18.883110   21.299936 H          1 MOL1         0.0958
       5    C2      19.523075   18.834574   20.422583 C.3        1 MOL1        -0.1412
       6    H4      19.745288   18.115077   19.622175 H          1 MOL1         0.0947
       7    H5      18.814178   19.556807   19.994182 H          1 MOL1         0.0947
       8    C3      18.847262   18.074671   21.592366 C.3        1 MOL1        -0.1437
       9    H6      17.965976   17.559552   21.185761 H          1 MOL1         0.0947
      10    H7      19.510986   17.280003   21.959812 H          1 MOL1         0.0947
      11    C4      18.381264   18.973794   22.767073 C.3        1 MOL1        -0.1437
      12    H8      17.447092   18.560133   23.171430 H          1 MOL1         0.0947
      13    H9      18.133475   19.977987   22.396588 H          1 MOL1         0.0947
      14    C5      19.409062   19.061007   23.921655 C.3        1 MOL1        -0.1437
      15    H10     19.601232   18.050382   24.305456 H          1 MOL1         0.0947
      16    H11     20.367882   19.442764   23.551833 H          1 MOL1         0.0947
      17    C6      18.905641   19.971692   25.066840 C.3        1 MOL1        -0.1437
      18    H12     17.963231   19.576723   25.469209 H          1 MOL1         0.0947
      19    H13     18.670945   20.964821   24.659532 H          1 MOL1         0.0947
      20    C7      19.937706   20.140233   26.209944 C.3        1 MOL1        -0.1477
      21    H14     20.842941   20.618192   25.812497 H          1 MOL1         0.0947
      22    H15     19.534285   20.828544   26.964444 H          1 MOL1         0.0947
      23    C8      20.337040   18.817922   26.895563 C.3        1 MOL1         0.0145
      24    H16     21.082600   19.020695   27.669190 H          1 MOL1         0.0921
      25    H17     20.783888   18.141269   26.162693 H          1 MOL1         0.0921
      26    N1      19.174986   18.099126   27.551551 N.4        1 MOL1        -0.5969
      27    H18     18.729965   18.675853   28.273007 H          1 MOL1         0.3603
      28    H19     19.471989   17.227688   28.004099 H          1 MOL1         0.3603
      29    H20     18.450648   17.853838   26.869278 H          1 MOL1         0.3603
@<TRIPOS>BOND
    1     1     2    1
    2     1     3    1
    3     1     4    1
    4     1     5    1
    5     5     6    1
    6     5     7    1
    7     5     8    1
    8     8     9    1
    9     8    10    1
   10     8    11    1
   11    11    12    1
   12    11    13    1
   13    11    14    1
   14    14    15    1
   15    14    16    1
   16    14    17    1
   17    17    18    1
   18    17    19    1
   19    17    20    1
   20    20    21    1
   21    20    22    1
   22    20    23    1
   23    23    24    1
   24    23    25    1
   25    23    26    1
   26    26    27    1
   27    26    28    1
   28    26    29    1
@<TRIPOS>SUBSTRUCTURE
       1 MOL1            1 RESIDUE      1      MOL     
@<SCITEGIC>MOL_PROPERTY
VM2 Rank
SciTegic.value.IntegerValue
291

@<SCITEGIC>MOL_PROPERTY
Conf_Id
SciTegic.value.IntegerValue
1608

@<SCITEGIC>MOL_PROPERTY
Probability
SciTegic.value.DoubleValue
0.00

@<SCITEGIC>MOL_PROPERTY
Sum Probability
SciTegic.value.DoubleValue
99.72

@<SCITEGIC>MOL_PROPERTY
Delta G
SciTegic.value.DoubleValue
4.207

@<SCITEGIC>MOL_PROPERTY
G
SciTegic.value.DoubleValue
62.355

@<SCITEGIC>MOL_PROPERTY
E
SciTegic.value.DoubleValue
24.531

@<SCITEGIC>MOL_PROPERTY
-TS
SciTegic.value.DoubleValue
37.825

@<SCITEGIC>MOL_PROPERTY
U+W
SciTegic.value.DoubleValue
0.386

@<SCITEGIC>MOL_PROPERTY
U
SciTegic.value.DoubleValue
52.379

@<SCITEGIC>MOL_PROPERTY
W
SciTegic.value.DoubleValue
-51.993

@<SCITEGIC>MOL_PROPERTY
W(PB)
SciTegic.value.DoubleValue
-54.434

@<SCITEGIC>MOL_PROPERTY
W(SA)
SciTegic.value.DoubleValue
2.441

@<SCITEGIC>MOL_PROPERTY
Valence
SciTegic.value.DoubleValue
5.935

@<SCITEGIC>MOL_PROPERTY
Coulomb
SciTegic.value.DoubleValue
45.561

@<SCITEGIC>MOL_PROPERTY
VdW
SciTegic.value.DoubleValue
0.883

@<SCITEGIC>MOL_PROPERTY
VdW6
SciTegic.value.DoubleValue
-9.844

@<SCITEGIC>MOL_PROPERTY
VdW12
SciTegic.value.DoubleValue
10.728

@<SCITEGIC>MOL_PROPERTY
Bond
SciTegic.value.DoubleValue
0.276

@<SCITEGIC>MOL_PROPERTY
Angle
SciTegic.value.DoubleValue
1.389

@<SCITEGIC>MOL_PROPERTY
Pdih
SciTegic.value.DoubleValue
4.269

@<SCITEGIC>MOL_PROPERTY
Idih
SciTegic.value.DoubleValue
0.000

@<SCITEGIC>MOL_PROPERTY
Tether
SciTegic.value.DoubleValue
0.000

@<TRIPOS>MOLECULE
guest-3_vm2.mol2 : vm2 ligand conformer 292
          29          28           1
SMALL
USER_CHARGES
 
@<TRIPOS>ATOM
       1    C1      19.773163   17.995858   20.065966 C.3        1 MOL1        -0.2427
       2    H1      20.825580   17.963570   19.755423 H          1 MOL1         0.0958
       3    H2      19.653711   17.320606   20.920465 H          1 MOL1         0.0958
       4    H3      19.169938   17.597890   19.239751 H          1 MOL1         0.0958
       5    C2      19.342346   19.442466   20.402647 C.3        1 MOL1        -0.1412
       6    H4      18.268734   19.477659   20.634317 H          1 MOL1         0.0947
       7    H5      19.476581   20.054556   19.499767 H          1 MOL1         0.0947
       8    C3      20.164124   20.074441   21.555521 C.3        1 MOL1        -0.1437
       9    H6      21.169611   19.633063   21.592088 H          1 MOL1         0.0947
      10    H7      20.316708   21.137518   21.323243 H          1 MOL1         0.0947
      11    C4      19.496886   19.994185   22.953021 C.3        1 MOL1        -0.1437
      12    H8      18.539657   20.532897   22.930895 H          1 MOL1         0.0947
      13    H9      20.137461   20.536671   23.659468 H          1 MOL1         0.0947
      14    C5      19.262790   18.551425   23.465064 C.3        1 MOL1        -0.1437
      15    H10     18.564657   18.041481   22.789234 H          1 MOL1         0.0947
      16    H11     20.203981   17.985738   23.431972 H          1 MOL1         0.0947
      17    C6      18.667509   18.488819   24.893392 C.3        1 MOL1        -0.1437
      18    H12     18.386412   17.447961   25.106228 H          1 MOL1         0.0947
      19    H13     17.737421   19.072771   24.931667 H          1 MOL1         0.0947
      20    C7      19.638190   18.977224   25.994388 C.3        1 MOL1        -0.1477
      21    H14     20.586709   18.428782   25.920931 H          1 MOL1         0.0947
      22    H15     19.867139   20.040926   25.854968 H          1 MOL1         0.0947
      23    C8      19.039109   18.775374   27.397262 C.3        1 MOL1         0.0145
      24    H16     18.824437   17.715264   27.557008 H          1 MOL1         0.0921
      25    H17     18.102303   19.332870   27.481200 H          1 MOL1         0.0921
      26    N1      19.959883   19.238207   28.507738 N.4        1 MOL1        -0.5969
      27    H18     20.851431   18.731642   28.500487 H          1 MOL1         0.3603
      28    H19     19.541953   19.094429   29.433692 H          1 MOL1         0.3603
      29    H20     20.179147   20.236947   28.430754 H          1 MOL1         0.3603
@<TRIPOS>BOND
    1     1     2    1
    2     1     3    1
    3     1     4    1
    4     1     5    1
    5     5     6    1
    6     5     7    1
    7     5     8    1
    8     8     9    1
    9     8    10    1
   10     8    11    1
   11    11    12    1
   12    11    13    1
   13    11    14    1
   14    14    15    1
   15    14    16    1
   16    14    17    1
   17    17    18    1
   18    17    19    1
   19    17    20    1
   20    20    21    1
   21    20    22    1
   22    20    23    1
   23    23    24    1
   24    23    25    1
   25    23    26    1
   26    26    27    1
   27    26    28    1
   28    26    29    1
@<TRIPOS>SUBSTRUCTURE
       1 MOL1            1 RESIDUE      1      MOL     
@<SCITEGIC>MOL_PROPERTY
VM2 Rank
SciTegic.value.IntegerValue
292

@<SCITEGIC>MOL_PROPERTY
Conf_Id
SciTegic.value.IntegerValue
551

@<SCITEGIC>MOL_PROPERTY
Probability
SciTegic.value.DoubleValue
0.00

@<SCITEGIC>MOL_PROPERTY
Sum Probability
SciTegic.value.DoubleValue
99.73

@<SCITEGIC>MOL_PROPERTY
Delta G
SciTegic.value.DoubleValue
4.221

@<SCITEGIC>MOL_PROPERTY
G
SciTegic.value.DoubleValue
62.369

@<SCITEGIC>MOL_PROPERTY
E
SciTegic.value.DoubleValue
24.796

@<SCITEGIC>MOL_PROPERTY
-TS
SciTegic.value.DoubleValue
37.574

@<SCITEGIC>MOL_PROPERTY
U+W
SciTegic.value.DoubleValue
0.651

@<SCITEGIC>MOL_PROPERTY
U
SciTegic.value.DoubleValue
52.141

@<SCITEGIC>MOL_PROPERTY
W
SciTegic.value.DoubleValue
-51.490

@<SCITEGIC>MOL_PROPERTY
W(PB)
SciTegic.value.DoubleValue
-53.986

@<SCITEGIC>MOL_PROPERTY
W(SA)
SciTegic.value.DoubleValue
2.496

@<SCITEGIC>MOL_PROPERTY
Valence
SciTegic.value.DoubleValue
6.259

@<SCITEGIC>MOL_PROPERTY
Coulomb
SciTegic.value.DoubleValue
44.846

@<SCITEGIC>MOL_PROPERTY
VdW
SciTegic.value.DoubleValue
1.036

@<SCITEGIC>MOL_PROPERTY
VdW6
SciTegic.value.DoubleValue
-9.043

@<SCITEGIC>MOL_PROPERTY
VdW12
SciTegic.value.DoubleValue
10.079

@<SCITEGIC>MOL_PROPERTY
Bond
SciTegic.value.DoubleValue
0.275

@<SCITEGIC>MOL_PROPERTY
Angle
SciTegic.value.DoubleValue
1.500

@<SCITEGIC>MOL_PROPERTY
Pdih
SciTegic.value.DoubleValue
4.484

@<SCITEGIC>MOL_PROPERTY
Idih
SciTegic.value.DoubleValue
0.000

@<SCITEGIC>MOL_PROPERTY
Tether
SciTegic.value.DoubleValue
0.000

@<TRIPOS>MOLECULE
guest-3_vm2.mol2 : vm2 ligand conformer 293
          29          28           1
SMALL
USER_CHARGES
 
@<TRIPOS>ATOM
       1    C1      20.917667   19.537079   20.874704 C.3        1 MOL1        -0.2427
       2    H1      21.156417   19.865564   21.893678 H          1 MOL1         0.0958
       3    H2      21.215557   18.486222   20.766023 H          1 MOL1         0.0958
       4    H3      21.530585   20.133279   20.186431 H          1 MOL1         0.0958
       5    C2      19.417305   19.726127   20.562501 C.3        1 MOL1        -0.1412
       6    H4      19.256193   19.552840   19.489319 H          1 MOL1         0.0947
       7    H5      19.136129   20.772298   20.747257 H          1 MOL1         0.0947
       8    C3      18.475651   18.786794   21.358518 C.3        1 MOL1        -0.1437
       9    H6      17.449186   18.984327   21.019878 H          1 MOL1         0.0947
      10    H7      18.677240   17.739382   21.095382 H          1 MOL1         0.0947
      11    C4      18.520910   18.975230   22.897422 C.3        1 MOL1        -0.1437
      12    H8      17.510399   18.812390   23.296730 H          1 MOL1         0.0947
      13    H9      18.777523   20.016038   23.132657 H          1 MOL1         0.0947
      14    C5      19.484785   17.990892   23.609198 C.3        1 MOL1        -0.1437
      15    H10     19.198141   16.963151   23.347216 H          1 MOL1         0.0947
      16    H11     20.510600   18.121255   23.245076 H          1 MOL1         0.0947
      17    C6      19.469932   18.122616   25.151637 C.3        1 MOL1        -0.1437
      18    H12     20.072299   17.307519   25.576269 H          1 MOL1         0.0947
      19    H13     18.445677   17.975017   25.519265 H          1 MOL1         0.0947
      20    C7      20.028493   19.475686   25.658505 C.3        1 MOL1        -0.1477
      21    H14     21.015199   19.653053   25.210497 H          1 MOL1         0.0947
      22    H15     19.383236   20.302869   25.337253 H          1 MOL1         0.0947
      23    C8      20.174041   19.517407   27.191647 C.3        1 MOL1         0.0145
      24    H16     20.641702   20.460651   27.486785 H          1 MOL1         0.0921
      25    H17     20.818423   18.698547   27.522724 H          1 MOL1         0.0921
      26    N1      18.855216   19.406169   27.930868 N.4        1 MOL1        -0.5969
      27    H18     18.212930   20.164684   27.679240 H          1 MOL1         0.3603
      28    H19     18.984072   19.446676   28.947876 H          1 MOL1         0.3603
      29    H20     18.378156   18.523254   27.723164 H          1 MOL1         0.3603
@<TRIPOS>BOND
    1     1     2    1
    2     1     3    1
    3     1     4    1
    4     1     5    1
    5     5     6    1
    6     5     7    1
    7     5     8    1
    8     8     9    1
    9     8    10    1
   10     8    11    1
   11    11    12    1
   12    11    13    1
   13    11    14    1
   14    14    15    1
   15    14    16    1
   16    14    17    1
   17    17    18    1
   18    17    19    1
   19    17    20    1
   20    20    21    1
   21    20    22    1
   22    20    23    1
   23    23    24    1
   24    23    25    1
   25    23    26    1
   26    26    27    1
   27    26    28    1
   28    26    29    1
@<TRIPOS>SUBSTRUCTURE
       1 MOL1            1 RESIDUE      1      MOL     
@<SCITEGIC>MOL_PROPERTY
VM2 Rank
SciTegic.value.IntegerValue
293

@<SCITEGIC>MOL_PROPERTY
Conf_Id
SciTegic.value.IntegerValue
1371

@<SCITEGIC>MOL_PROPERTY
Probability
SciTegic.value.DoubleValue
0.00

@<SCITEGIC>MOL_PROPERTY
Sum Probability
SciTegic.value.DoubleValue
99.73

@<SCITEGIC>MOL_PROPERTY
Delta G
SciTegic.value.DoubleValue
4.225

@<SCITEGIC>MOL_PROPERTY
G
SciTegic.value.DoubleValue
62.373

@<SCITEGIC>MOL_PROPERTY
E
SciTegic.value.DoubleValue
24.656

@<SCITEGIC>MOL_PROPERTY
-TS
SciTegic.value.DoubleValue
37.717

@<SCITEGIC>MOL_PROPERTY
U+W
SciTegic.value.DoubleValue
0.511

@<SCITEGIC>MOL_PROPERTY
U
SciTegic.value.DoubleValue
52.420

@<SCITEGIC>MOL_PROPERTY
W
SciTegic.value.DoubleValue
-51.909

@<SCITEGIC>MOL_PROPERTY
W(PB)
SciTegic.value.DoubleValue
-54.351

@<SCITEGIC>MOL_PROPERTY
W(SA)
SciTegic.value.DoubleValue
2.442

@<SCITEGIC>MOL_PROPERTY
Valence
SciTegic.value.DoubleValue
6.171

@<SCITEGIC>MOL_PROPERTY
Coulomb
SciTegic.value.DoubleValue
45.274

@<SCITEGIC>MOL_PROPERTY
VdW
SciTegic.value.DoubleValue
0.975

@<SCITEGIC>MOL_PROPERTY
VdW6
SciTegic.value.DoubleValue
-9.789

@<SCITEGIC>MOL_PROPERTY
VdW12
SciTegic.value.DoubleValue
10.764

@<SCITEGIC>MOL_PROPERTY
Bond
SciTegic.value.DoubleValue
0.295

@<SCITEGIC>MOL_PROPERTY
Angle
SciTegic.value.DoubleValue
1.438

@<SCITEGIC>MOL_PROPERTY
Pdih
SciTegic.value.DoubleValue
4.438

@<SCITEGIC>MOL_PROPERTY
Idih
SciTegic.value.DoubleValue
0.000

@<SCITEGIC>MOL_PROPERTY
Tether
SciTegic.value.DoubleValue
0.000

@<TRIPOS>MOLECULE
guest-3_vm2.mol2 : vm2 ligand conformer 294
          29          28           1
SMALL
USER_CHARGES
 
@<TRIPOS>ATOM
       1    C1      19.360594   17.522330   20.691667 C.3        1 MOL1        -0.2427
       2    H1      18.306449   17.666698   20.958332 H          1 MOL1         0.0958
       3    H2      19.388102   17.044933   19.703613 H          1 MOL1         0.0958
       4    H3      19.806097   16.825651   21.413561 H          1 MOL1         0.0958
       5    C2      20.129623   18.862715   20.665676 C.3        1 MOL1        -0.1412
       6    H4      19.648092   19.552975   19.959016 H          1 MOL1         0.0947
       7    H5      21.141659   18.681590   20.277444 H          1 MOL1         0.0947
       8    C3      20.244240   19.530719   22.056823 C.3        1 MOL1        -0.1437
       9    H6      20.734722   18.837457   22.750166 H          1 MOL1         0.0947
      10    H7      20.913213   20.397962   21.970484 H          1 MOL1         0.0947
      11    C4      18.881811   20.005341   22.625324 C.3        1 MOL1        -0.1437
      12    H8      18.177942   19.167587   22.710649 H          1 MOL1         0.0947
      13    H9      18.436198   20.703943   21.903853 H          1 MOL1         0.0947
      14    C5      19.005425   20.724888   23.993807 C.3        1 MOL1        -0.1437
      15    H10     19.988633   21.206617   24.084982 H          1 MOL1         0.0947
      16    H11     18.272696   21.543399   24.017187 H          1 MOL1         0.0947
      17    C6      18.737701   19.824316   25.227448 C.3        1 MOL1        -0.1437
      18    H12     17.708410   19.442275   25.182761 H          1 MOL1         0.0947
      19    H13     18.790647   20.455373   26.124272 H          1 MOL1         0.0947
      20    C7      19.718584   18.635626   25.374367 C.3        1 MOL1        -0.1477
      21    H14     19.594515   17.952684   24.524851 H          1 MOL1         0.0947
      22    H15     20.755678   18.995324   25.348565 H          1 MOL1         0.0947
      23    C8      19.485312   17.828015   26.665688 C.3        1 MOL1         0.0145
      24    H16     20.129755   16.944725   26.661548 H          1 MOL1         0.0921
      25    H17     18.445835   17.491630   26.707118 H          1 MOL1         0.0921
      26    N1      19.780710   18.604050   27.934199 N.4        1 MOL1        -0.5969
      27    H18     19.628877   18.033777   28.773419 H          1 MOL1         0.3603
      28    H19     19.182248   19.431340   28.021073 H          1 MOL1         0.3603
      29    H20     20.752872   18.928484   27.963929 H          1 MOL1         0.3603
@<TRIPOS>BOND
    1     1     2    1
    2     1     3    1
    3     1     4    1
    4     1     5    1
    5     5     6    1
    6     5     7    1
    7     5     8    1
    8     8     9    1
    9     8    10    1
   10     8    11    1
   11    11    12    1
   12    11    13    1
   13    11    14    1
   14    14    15    1
   15    14    16    1
   16    14    17    1
   17    17    18    1
   18    17    19    1
   19    17    20    1
   20    20    21    1
   21    20    22    1
   22    20    23    1
   23    23    24    1
   24    23    25    1
   25    23    26    1
   26    26    27    1
   27    26    28    1
   28    26    29    1
@<TRIPOS>SUBSTRUCTURE
       1 MOL1            1 RESIDUE      1      MOL     
@<SCITEGIC>MOL_PROPERTY
VM2 Rank
SciTegic.value.IntegerValue
294

@<SCITEGIC>MOL_PROPERTY
Conf_Id
SciTegic.value.IntegerValue
1625

@<SCITEGIC>MOL_PROPERTY
Probability
SciTegic.value.DoubleValue
0.00

@<SCITEGIC>MOL_PROPERTY
Sum Probability
SciTegic.value.DoubleValue
99.73

@<SCITEGIC>MOL_PROPERTY
Delta G
SciTegic.value.DoubleValue
4.231

@<SCITEGIC>MOL_PROPERTY
G
SciTegic.value.DoubleValue
62.379

@<SCITEGIC>MOL_PROPERTY
E
SciTegic.value.DoubleValue
24.633

@<SCITEGIC>MOL_PROPERTY
-TS
SciTegic.value.DoubleValue
37.746

@<SCITEGIC>MOL_PROPERTY
U+W
SciTegic.value.DoubleValue
0.488

@<SCITEGIC>MOL_PROPERTY
U
SciTegic.value.DoubleValue
52.520

@<SCITEGIC>MOL_PROPERTY
W
SciTegic.value.DoubleValue
-52.032

@<SCITEGIC>MOL_PROPERTY
W(PB)
SciTegic.value.DoubleValue
-54.435

@<SCITEGIC>MOL_PROPERTY
W(SA)
SciTegic.value.DoubleValue
2.403

@<SCITEGIC>MOL_PROPERTY
Valence
SciTegic.value.DoubleValue
6.252

@<SCITEGIC>MOL_PROPERTY
Coulomb
SciTegic.value.DoubleValue
45.283

@<SCITEGIC>MOL_PROPERTY
VdW
SciTegic.value.DoubleValue
0.985

@<SCITEGIC>MOL_PROPERTY
VdW6
SciTegic.value.DoubleValue
-9.837

@<SCITEGIC>MOL_PROPERTY
VdW12
SciTegic.value.DoubleValue
10.822

@<SCITEGIC>MOL_PROPERTY
Bond
SciTegic.value.DoubleValue
0.297

@<SCITEGIC>MOL_PROPERTY
Angle
SciTegic.value.DoubleValue
1.469

@<SCITEGIC>MOL_PROPERTY
Pdih
SciTegic.value.DoubleValue
4.487

@<SCITEGIC>MOL_PROPERTY
Idih
SciTegic.value.DoubleValue
0.000

@<SCITEGIC>MOL_PROPERTY
Tether
SciTegic.value.DoubleValue
0.000

@<TRIPOS>MOLECULE
guest-3_vm2.mol2 : vm2 ligand conformer 295
          29          28           1
SMALL
USER_CHARGES
 
@<TRIPOS>ATOM
       1    C1      20.808684   19.431860   20.600348 C.3        1 MOL1        -0.2427
       2    H1      20.893903   20.216687   21.362271 H          1 MOL1         0.0958
       3    H2      21.821417   19.209305   20.240256 H          1 MOL1         0.0958
       4    H3      20.231946   19.832133   19.756489 H          1 MOL1         0.0958
       5    C2      20.145226   18.158585   21.171774 C.3        1 MOL1        -0.1412
       6    H4      20.727889   17.788620   22.025881 H          1 MOL1         0.0947
       7    H5      20.189458   17.365585   20.412289 H          1 MOL1         0.0947
       8    C3      18.664955   18.366118   21.581892 C.3        1 MOL1        -0.1437
       9    H6      18.080333   18.615490   20.685719 H          1 MOL1         0.0947
      10    H7      18.261937   17.411568   21.947239 H          1 MOL1         0.0947
      11    C4      18.421155   19.459605   22.653853 C.3        1 MOL1        -0.1437
      12    H8      17.341092   19.519992   22.846263 H          1 MOL1         0.0947
      13    H9      18.712749   20.441742   22.258753 H          1 MOL1         0.0947
      14    C5      19.156281   19.191571   23.988620 C.3        1 MOL1        -0.1437
      15    H10     18.891740   18.186765   24.339843 H          1 MOL1         0.0947
      16    H11     20.241795   19.211099   23.825124 H          1 MOL1         0.0947
      17    C6      18.784177   20.238446   25.064928 C.3        1 MOL1        -0.1437
      18    H12     17.719254   20.141776   25.317891 H          1 MOL1         0.0947
      19    H13     18.907987   21.244187   24.640000 H          1 MOL1         0.0947
      20    C7      19.631452   20.155147   26.360280 C.3        1 MOL1        -0.1477
      21    H14     20.694151   20.312652   26.132825 H          1 MOL1         0.0947
      22    H15     19.335478   20.989462   27.010009 H          1 MOL1         0.0947
      23    C8      19.450365   18.849043   27.161054 C.3        1 MOL1         0.0145
      24    H16     18.397959   18.552925   27.155383 H          1 MOL1         0.0921
      25    H17     19.748284   19.023286   28.198526 H          1 MOL1         0.0921
      26    N1      20.281706   17.687625   26.652253 N.4        1 MOL1        -0.5969
      27    H18     21.285158   17.894929   26.690132 H          1 MOL1         0.3603
      28    H19     20.056232   17.457110   25.680440 H          1 MOL1         0.3603
      29    H20     20.130236   16.839221   27.208982 H          1 MOL1         0.3603
@<TRIPOS>BOND
    1     1     2    1
    2     1     3    1
    3     1     4    1
    4     1     5    1
    5     5     6    1
    6     5     7    1
    7     5     8    1
    8     8     9    1
    9     8    10    1
   10     8    11    1
   11    11    12    1
   12    11    13    1
   13    11    14    1
   14    14    15    1
   15    14    16    1
   16    14    17    1
   17    17    18    1
   18    17    19    1
   19    17    20    1
   20    20    21    1
   21    20    22    1
   22    20    23    1
   23    23    24    1
   24    23    25    1
   25    23    26    1
   26    26    27    1
   27    26    28    1
   28    26    29    1
@<TRIPOS>SUBSTRUCTURE
       1 MOL1            1 RESIDUE      1      MOL     
@<SCITEGIC>MOL_PROPERTY
VM2 Rank
SciTegic.value.IntegerValue
295

@<SCITEGIC>MOL_PROPERTY
Conf_Id
SciTegic.value.IntegerValue
151

@<SCITEGIC>MOL_PROPERTY
Probability
SciTegic.value.DoubleValue
0.00

@<SCITEGIC>MOL_PROPERTY
Sum Probability
SciTegic.value.DoubleValue
99.74

@<SCITEGIC>MOL_PROPERTY
Delta G
SciTegic.value.DoubleValue
4.235

@<SCITEGIC>MOL_PROPERTY
G
SciTegic.value.DoubleValue
62.383

@<SCITEGIC>MOL_PROPERTY
E
SciTegic.value.DoubleValue
24.598

@<SCITEGIC>MOL_PROPERTY
-TS
SciTegic.value.DoubleValue
37.785

@<SCITEGIC>MOL_PROPERTY
U+W
SciTegic.value.DoubleValue
0.454

@<SCITEGIC>MOL_PROPERTY
U
SciTegic.value.DoubleValue
52.666

@<SCITEGIC>MOL_PROPERTY
W
SciTegic.value.DoubleValue
-52.212

@<SCITEGIC>MOL_PROPERTY
W(PB)
SciTegic.value.DoubleValue
-54.643

@<SCITEGIC>MOL_PROPERTY
W(SA)
SciTegic.value.DoubleValue
2.430

@<SCITEGIC>MOL_PROPERTY
Valence
SciTegic.value.DoubleValue
5.120

@<SCITEGIC>MOL_PROPERTY
Coulomb
SciTegic.value.DoubleValue
46.798

@<SCITEGIC>MOL_PROPERTY
VdW
SciTegic.value.DoubleValue
0.748

@<SCITEGIC>MOL_PROPERTY
VdW6
SciTegic.value.DoubleValue
-10.097

@<SCITEGIC>MOL_PROPERTY
VdW12
SciTegic.value.DoubleValue
10.845

@<SCITEGIC>MOL_PROPERTY
Bond
SciTegic.value.DoubleValue
0.281

@<SCITEGIC>MOL_PROPERTY
Angle
SciTegic.value.DoubleValue
1.589

@<SCITEGIC>MOL_PROPERTY
Pdih
SciTegic.value.DoubleValue
3.250

@<SCITEGIC>MOL_PROPERTY
Idih
SciTegic.value.DoubleValue
0.000

@<SCITEGIC>MOL_PROPERTY
Tether
SciTegic.value.DoubleValue
0.000

@<TRIPOS>MOLECULE
guest-3_vm2.mol2 : vm2 ligand conformer 296
          29          28           1
SMALL
USER_CHARGES
 
@<TRIPOS>ATOM
       1    C1      20.485253   19.463471   19.740297 C.3        1 MOL1        -0.2427
       2    H1      20.832025   20.388006   20.217986 H          1 MOL1         0.0958
       3    H2      21.277477   18.709296   19.833128 H          1 MOL1         0.0958
       4    H3      20.348223   19.676421   18.672211 H          1 MOL1         0.0958
       5    C2      19.163656   18.961058   20.364726 C.3        1 MOL1        -0.1412
       6    H4      18.793309   18.113845   19.770712 H          1 MOL1         0.0947
       7    H5      18.397702   19.745698   20.291421 H          1 MOL1         0.0947
       8    C3      19.308791   18.506840   21.837447 C.3        1 MOL1        -0.1437
       9    H6      18.362260   18.043696   22.142546 H          1 MOL1         0.0947
      10    H7      20.073648   17.721034   21.904343 H          1 MOL1         0.0947
      11    C4      19.661440   19.663765   22.807251 C.3        1 MOL1        -0.1437
      12    H8      18.901659   20.454269   22.737613 H          1 MOL1         0.0947
      13    H9      20.610093   20.119167   22.495325 H          1 MOL1         0.0947
      14    C5      19.811949   19.214914   24.281999 C.3        1 MOL1        -0.1437
      15    H10     20.525142   18.381251   24.341491 H          1 MOL1         0.0947
      16    H11     20.252849   20.051280   24.837616 H          1 MOL1         0.0947
      17    C6      18.471552   18.815779   24.949282 C.3        1 MOL1        -0.1437
      18    H12     17.973709   18.047213   24.345376 H          1 MOL1         0.0947
      19    H13     17.796273   19.682444   24.958984 H          1 MOL1         0.0947
      20    C7      18.614791   18.259337   26.389118 C.3        1 MOL1        -0.1477
      21    H14     17.619293   17.941532   26.726532 H          1 MOL1         0.0947
      22    H15     19.235758   17.353641   26.388808 H          1 MOL1         0.0947
      23    C8      19.157190   19.272231   27.418619 C.3        1 MOL1         0.0145
      24    H16     18.842368   18.965222   28.419672 H          1 MOL1         0.0921
      25    H17     18.739805   20.263131   27.220665 H          1 MOL1         0.0921
      26    N1      20.669378   19.380605   27.446262 N.4        1 MOL1        -0.5969
      27    H18     21.108969   18.485653   27.685345 H          1 MOL1         0.3603
      28    H19     20.988842   20.065460   28.140217 H          1 MOL1         0.3603
      29    H20     21.046357   19.669895   26.539282 H          1 MOL1         0.3603
@<TRIPOS>BOND
    1     1     2    1
    2     1     3    1
    3     1     4    1
    4     1     5    1
    5     5     6    1
    6     5     7    1
    7     5     8    1
    8     8     9    1
    9     8    10    1
   10     8    11    1
   11    11    12    1
   12    11    13    1
   13    11    14    1
   14    14    15    1
   15    14    16    1
   16    14    17    1
   17    17    18    1
   18    17    19    1
   19    17    20    1
   20    20    21    1
   21    20    22    1
   22    20    23    1
   23    23    24    1
   24    23    25    1
   25    23    26    1
   26    26    27    1
   27    26    28    1
   28    26    29    1
@<TRIPOS>SUBSTRUCTURE
       1 MOL1            1 RESIDUE      1      MOL     
@<SCITEGIC>MOL_PROPERTY
VM2 Rank
SciTegic.value.IntegerValue
296

@<SCITEGIC>MOL_PROPERTY
Conf_Id
SciTegic.value.IntegerValue
1388

@<SCITEGIC>MOL_PROPERTY
Probability
SciTegic.value.DoubleValue
0.00

@<SCITEGIC>MOL_PROPERTY
Sum Probability
SciTegic.value.DoubleValue
99.74

@<SCITEGIC>MOL_PROPERTY
Delta G
SciTegic.value.DoubleValue
4.235

@<SCITEGIC>MOL_PROPERTY
G
SciTegic.value.DoubleValue
62.383

@<SCITEGIC>MOL_PROPERTY
E
SciTegic.value.DoubleValue
24.992

@<SCITEGIC>MOL_PROPERTY
-TS
SciTegic.value.DoubleValue
37.391

@<SCITEGIC>MOL_PROPERTY
U+W
SciTegic.value.DoubleValue
0.847

@<SCITEGIC>MOL_PROPERTY
U
SciTegic.value.DoubleValue
52.755

@<SCITEGIC>MOL_PROPERTY
W
SciTegic.value.DoubleValue
-51.908

@<SCITEGIC>MOL_PROPERTY
W(PB)
SciTegic.value.DoubleValue
-54.378

@<SCITEGIC>MOL_PROPERTY
W(SA)
SciTegic.value.DoubleValue
2.469

@<SCITEGIC>MOL_PROPERTY
Valence
SciTegic.value.DoubleValue
5.463

@<SCITEGIC>MOL_PROPERTY
Coulomb
SciTegic.value.DoubleValue
46.244

@<SCITEGIC>MOL_PROPERTY
VdW
SciTegic.value.DoubleValue
1.049

@<SCITEGIC>MOL_PROPERTY
VdW6
SciTegic.value.DoubleValue
-9.558

@<SCITEGIC>MOL_PROPERTY
VdW12
SciTegic.value.DoubleValue
10.607

@<SCITEGIC>MOL_PROPERTY
Bond
SciTegic.value.DoubleValue
0.295

@<SCITEGIC>MOL_PROPERTY
Angle
SciTegic.value.DoubleValue
1.567

@<SCITEGIC>MOL_PROPERTY
Pdih
SciTegic.value.DoubleValue
3.600

@<SCITEGIC>MOL_PROPERTY
Idih
SciTegic.value.DoubleValue
0.000

@<SCITEGIC>MOL_PROPERTY
Tether
SciTegic.value.DoubleValue
0.000

@<TRIPOS>MOLECULE
guest-3_vm2.mol2 : vm2 ligand conformer 297
          29          28           1
SMALL
USER_CHARGES
 
@<TRIPOS>ATOM
       1    C1      20.799788   17.985938   20.411342 C.3        1 MOL1        -0.2427
       2    H1      21.738777   18.550144   20.483494 H          1 MOL1         0.0958
       3    H2      20.913023   17.058209   20.987298 H          1 MOL1         0.0958
       4    H3      20.650608   17.712987   19.358595 H          1 MOL1         0.0958
       5    C2      19.610199   18.820268   20.931611 C.3        1 MOL1        -0.1412
       6    H4      18.682053   18.243077   20.816427 H          1 MOL1         0.0947
       7    H5      19.500893   19.723224   20.314696 H          1 MOL1         0.0947
       8    C3      19.795584   19.218511   22.412378 C.3        1 MOL1        -0.1437
       9    H6      19.918947   18.310084   23.011870 H          1 MOL1         0.0947
      10    H7      20.723622   19.796725   22.519661 H          1 MOL1         0.0947
      11    C4      18.602743   20.056150   22.934340 C.3        1 MOL1        -0.1437
      12    H8      17.664420   19.495529   22.823746 H          1 MOL1         0.0947
      13    H9      18.503425   20.941967   22.291764 H          1 MOL1         0.0947
      14    C5      18.766101   20.538526   24.399673 C.3        1 MOL1        -0.1437
      15    H10     19.824249   20.723201   24.627778 H          1 MOL1         0.0947
      16    H11     18.276209   21.518373   24.485115 H          1 MOL1         0.0947
      17    C6      18.124279   19.612548   25.467962 C.3        1 MOL1        -0.1437
      18    H12     17.052915   19.504583   25.249786 H          1 MOL1         0.0947
      19    H13     18.174854   20.116170   26.442612 H          1 MOL1         0.0947
      20    C7      18.750466   18.201324   25.599453 C.3        1 MOL1        -0.1477
      21    H14     18.240849   17.656730   26.405292 H          1 MOL1         0.0947
      22    H15     18.557394   17.625912   24.685845 H          1 MOL1         0.0947
      23    C8      20.265686   18.214896   25.885425 C.3        1 MOL1         0.0145
      24    H16     20.789242   18.735611   25.079686 H          1 MOL1         0.0921
      25    H17     20.637685   17.187571   25.926068 H          1 MOL1         0.0921
      26    N1      20.629155   18.889839   27.192815 N.4        1 MOL1        -0.5969
      27    H18     20.328387   19.869401   27.206765 H          1 MOL1         0.3603
      28    H19     21.641498   18.881410   27.358309 H          1 MOL1         0.3603
      29    H20     20.189679   18.426110   27.994614 H          1 MOL1         0.3603
@<TRIPOS>BOND
    1     1     2    1
    2     1     3    1
    3     1     4    1
    4     1     5    1
    5     5     6    1
    6     5     7    1
    7     5     8    1
    8     8     9    1
    9     8    10    1
   10     8    11    1
   11    11    12    1
   12    11    13    1
   13    11    14    1
   14    14    15    1
   15    14    16    1
   16    14    17    1
   17    17    18    1
   18    17    19    1
   19    17    20    1
   20    20    21    1
   21    20    22    1
   22    20    23    1
   23    23    24    1
   24    23    25    1
   25    23    26    1
   26    26    27    1
   27    26    28    1
   28    26    29    1
@<TRIPOS>SUBSTRUCTURE
       1 MOL1            1 RESIDUE      1      MOL     
@<SCITEGIC>MOL_PROPERTY
VM2 Rank
SciTegic.value.IntegerValue
297

@<SCITEGIC>MOL_PROPERTY
Conf_Id
SciTegic.value.IntegerValue
667

@<SCITEGIC>MOL_PROPERTY
Probability
SciTegic.value.DoubleValue
0.00

@<SCITEGIC>MOL_PROPERTY
Sum Probability
SciTegic.value.DoubleValue
99.75

@<SCITEGIC>MOL_PROPERTY
Delta G
SciTegic.value.DoubleValue
4.246

@<SCITEGIC>MOL_PROPERTY
G
SciTegic.value.DoubleValue
62.394

@<SCITEGIC>MOL_PROPERTY
E
SciTegic.value.DoubleValue
24.318

@<SCITEGIC>MOL_PROPERTY
-TS
SciTegic.value.DoubleValue
38.076

@<SCITEGIC>MOL_PROPERTY
U+W
SciTegic.value.DoubleValue
0.173

@<SCITEGIC>MOL_PROPERTY
U
SciTegic.value.DoubleValue
52.558

@<SCITEGIC>MOL_PROPERTY
W
SciTegic.value.DoubleValue
-52.385

@<SCITEGIC>MOL_PROPERTY
W(PB)
SciTegic.value.DoubleValue
-54.809

@<SCITEGIC>MOL_PROPERTY
W(SA)
SciTegic.value.DoubleValue
2.424

@<SCITEGIC>MOL_PROPERTY
Valence
SciTegic.value.DoubleValue
5.998

@<SCITEGIC>MOL_PROPERTY
Coulomb
SciTegic.value.DoubleValue
46.093

@<SCITEGIC>MOL_PROPERTY
VdW
SciTegic.value.DoubleValue
0.468

@<SCITEGIC>MOL_PROPERTY
VdW6
SciTegic.value.DoubleValue
-10.461

@<SCITEGIC>MOL_PROPERTY
VdW12
SciTegic.value.DoubleValue
10.928

@<SCITEGIC>MOL_PROPERTY
Bond
SciTegic.value.DoubleValue
0.286

@<SCITEGIC>MOL_PROPERTY
Angle
SciTegic.value.DoubleValue
1.671

@<SCITEGIC>MOL_PROPERTY
Pdih
SciTegic.value.DoubleValue
4.041

@<SCITEGIC>MOL_PROPERTY
Idih
SciTegic.value.DoubleValue
0.000

@<SCITEGIC>MOL_PROPERTY
Tether
SciTegic.value.DoubleValue
0.000

@<TRIPOS>MOLECULE
guest-3_vm2.mol2 : vm2 ligand conformer 298
          29          28           1
SMALL
USER_CHARGES
 
@<TRIPOS>ATOM
       1    C1      21.502985   18.963695   21.717643 C.3        1 MOL1        -0.2427
       2    H1      21.419802   17.953824   22.137673 H          1 MOL1         0.0958
       3    H2      22.258784   18.928370   20.922404 H          1 MOL1         0.0958
       4    H3      21.874338   19.634572   22.503041 H          1 MOL1         0.0958
       5    C2      20.151164   19.459884   21.155840 C.3        1 MOL1        -0.1412
       6    H4      19.789711   18.762017   20.387726 H          1 MOL1         0.0947
       7    H5      20.311271   20.420980   20.647541 H          1 MOL1         0.0947
       8    C3      19.068658   19.648618   22.245019 C.3        1 MOL1        -0.1437
       9    H6      19.442736   20.348023   23.002906 H          1 MOL1         0.0947
      10    H7      18.192061   20.129245   21.789437 H          1 MOL1         0.0947
      11    C4      18.624250   18.318212   22.904212 C.3        1 MOL1        -0.1437
      12    H8      19.472274   17.815264   23.382611 H          1 MOL1         0.0947
      13    H9      18.280092   17.633632   22.116924 H          1 MOL1         0.0947
      14    C5      17.478545   18.492409   23.932068 C.3        1 MOL1        -0.1437
      15    H10     16.596550   18.890205   23.411476 H          1 MOL1         0.0947
      16    H11     17.183625   17.499595   24.298782 H          1 MOL1         0.0947
      17    C6      17.785248   19.403730   25.151668 C.3        1 MOL1        -0.1437
      18    H12     16.874443   19.445253   25.764877 H          1 MOL1         0.0947
      19    H13     17.964914   20.437717   24.828427 H          1 MOL1         0.0947
      20    C7      18.945544   18.915235   26.055915 C.3        1 MOL1        -0.1477
      21    H14     18.778935   19.295333   27.072631 H          1 MOL1         0.0947
      22    H15     18.930347   17.819676   26.128456 H          1 MOL1         0.0947
      23    C8      20.330699   19.400351   25.586242 C.3        1 MOL1         0.0145
      24    H16     20.347239   20.493273   25.563691 H          1 MOL1         0.0921
      25    H17     20.538169   19.035526   24.578682 H          1 MOL1         0.0921
      26    N1      21.456908   18.935866   26.486393 N.4        1 MOL1        -0.5969
      27    H18     21.340284   19.273245   27.447616 H          1 MOL1         0.3603
      28    H19     22.369448   19.272396   26.160176 H          1 MOL1         0.3603
      29    H20     21.513031   17.913041   26.530495 H          1 MOL1         0.3603
@<TRIPOS>BOND
    1     1     2    1
    2     1     3    1
    3     1     4    1
    4     1     5    1
    5     5     6    1
    6     5     7    1
    7     5     8    1
    8     8     9    1
    9     8    10    1
   10     8    11    1
   11    11    12    1
   12    11    13    1
   13    11    14    1
   14    14    15    1
   15    14    16    1
   16    14    17    1
   17    17    18    1
   18    17    19    1
   19    17    20    1
   20    20    21    1
   21    20    22    1
   22    20    23    1
   23    23    24    1
   24    23    25    1
   25    23    26    1
   26    26    27    1
   27    26    28    1
   28    26    29    1
@<TRIPOS>SUBSTRUCTURE
       1 MOL1            1 RESIDUE      1      MOL     
@<SCITEGIC>MOL_PROPERTY
VM2 Rank
SciTegic.value.IntegerValue
298

@<SCITEGIC>MOL_PROPERTY
Conf_Id
SciTegic.value.IntegerValue
1997

@<SCITEGIC>MOL_PROPERTY
Probability
SciTegic.value.DoubleValue
0.00

@<SCITEGIC>MOL_PROPERTY
Sum Probability
SciTegic.value.DoubleValue
99.75

@<SCITEGIC>MOL_PROPERTY
Delta G
SciTegic.value.DoubleValue
4.250

@<SCITEGIC>MOL_PROPERTY
G
SciTegic.value.DoubleValue
62.398

@<SCITEGIC>MOL_PROPERTY
E
SciTegic.value.DoubleValue
24.102

@<SCITEGIC>MOL_PROPERTY
-TS
SciTegic.value.DoubleValue
38.297

@<SCITEGIC>MOL_PROPERTY
U+W
SciTegic.value.DoubleValue
-0.043

@<SCITEGIC>MOL_PROPERTY
U
SciTegic.value.DoubleValue
52.818

@<SCITEGIC>MOL_PROPERTY
W
SciTegic.value.DoubleValue
-52.861

@<SCITEGIC>MOL_PROPERTY
W(PB)
SciTegic.value.DoubleValue
-55.231

@<SCITEGIC>MOL_PROPERTY
W(SA)
SciTegic.value.DoubleValue
2.370

@<SCITEGIC>MOL_PROPERTY
Valence
SciTegic.value.DoubleValue
5.947

@<SCITEGIC>MOL_PROPERTY
Coulomb
SciTegic.value.DoubleValue
46.654

@<SCITEGIC>MOL_PROPERTY
VdW
SciTegic.value.DoubleValue
0.217

@<SCITEGIC>MOL_PROPERTY
VdW6
SciTegic.value.DoubleValue
-11.210

@<SCITEGIC>MOL_PROPERTY
VdW12
SciTegic.value.DoubleValue
11.427

@<SCITEGIC>MOL_PROPERTY
Bond
SciTegic.value.DoubleValue
0.301

@<SCITEGIC>MOL_PROPERTY
Angle
SciTegic.value.DoubleValue
1.903

@<SCITEGIC>MOL_PROPERTY
Pdih
SciTegic.value.DoubleValue
3.744

@<SCITEGIC>MOL_PROPERTY
Idih
SciTegic.value.DoubleValue
0.000

@<SCITEGIC>MOL_PROPERTY
Tether
SciTegic.value.DoubleValue
0.000

@<TRIPOS>MOLECULE
guest-3_vm2.mol2 : vm2 ligand conformer 299
          29          28           1
SMALL
USER_CHARGES
 
@<TRIPOS>ATOM
       1    C1      20.338684   17.905271   20.839304 C.3        1 MOL1        -0.2427
       2    H1      20.302471   17.460314   21.841261 H          1 MOL1         0.0958
       3    H2      20.448533   17.083551   20.119894 H          1 MOL1         0.0958
       4    H3      21.233773   18.536601   20.767977 H          1 MOL1         0.0958
       5    C2      19.059303   18.716487   20.540269 C.3        1 MOL1        -0.1412
       6    H4      18.179078   18.075211   20.687366 H          1 MOL1         0.0947
       7    H5      19.058841   18.994497   19.477058 H          1 MOL1         0.0947
       8    C3      18.908832   20.007065   21.385529 C.3        1 MOL1        -0.1437
       9    H6      19.729101   20.702606   21.161180 H          1 MOL1         0.0947
      10    H7      17.992281   20.514011   21.053465 H          1 MOL1         0.0947
      11    C4      18.803355   19.771948   22.915031 C.3        1 MOL1        -0.1437
      12    H8      18.343716   18.793719   23.105455 H          1 MOL1         0.0947
      13    H9      18.115502   20.519068   23.334274 H          1 MOL1         0.0947
      14    C5      20.161758   19.900416   23.651802 C.3        1 MOL1        -0.1437
      15    H10     20.881615   19.167824   23.268399 H          1 MOL1         0.0947
      16    H11     20.589945   20.888689   23.434951 H          1 MOL1         0.0947
      17    C6      20.045439   19.746278   25.187836 C.3        1 MOL1        -0.1437
      18    H12     19.337261   20.490828   25.575346 H          1 MOL1         0.0947
      19    H13     21.020424   19.982933   25.636098 H          1 MOL1         0.0947
      20    C7      19.620766   18.324466   25.632589 C.3        1 MOL1        -0.1477
      21    H14     18.603447   18.101222   25.287607 H          1 MOL1         0.0947
      22    H15     20.282294   17.583670   25.164228 H          1 MOL1         0.0947
      23    C8      19.685679   18.139638   27.160684 C.3        1 MOL1         0.0145
      24    H16     20.696917   18.356681   27.515172 H          1 MOL1         0.0921
      25    H17     19.451413   17.101493   27.411476 H          1 MOL1         0.0921
      26    N1      18.720184   19.026431   27.921957 N.4        1 MOL1        -0.5969
      27    H18     18.907923   20.020190   27.756234 H          1 MOL1         0.3603
      28    H19     18.780272   18.873546   28.934659 H          1 MOL1         0.3603
      29    H20     17.747408   18.851740   27.649227 H          1 MOL1         0.3603
@<TRIPOS>BOND
    1     1     2    1
    2     1     3    1
    3     1     4    1
    4     1     5    1
    5     5     6    1
    6     5     7    1
    7     5     8    1
    8     8     9    1
    9     8    10    1
   10     8    11    1
   11    11    12    1
   12    11    13    1
   13    11    14    1
   14    14    15    1
   15    14    16    1
   16    14    17    1
   17    17    18    1
   18    17    19    1
   19    17    20    1
   20    20    21    1
   21    20    22    1
   22    20    23    1
   23    23    24    1
   24    23    25    1
   25    23    26    1
   26    26    27    1
   27    26    28    1
   28    26    29    1
@<TRIPOS>SUBSTRUCTURE
       1 MOL1            1 RESIDUE      1      MOL     
@<SCITEGIC>MOL_PROPERTY
VM2 Rank
SciTegic.value.IntegerValue
299

@<SCITEGIC>MOL_PROPERTY
Conf_Id
SciTegic.value.IntegerValue
670

@<SCITEGIC>MOL_PROPERTY
Probability
SciTegic.value.DoubleValue
0.00

@<SCITEGIC>MOL_PROPERTY
Sum Probability
SciTegic.value.DoubleValue
99.76

@<SCITEGIC>MOL_PROPERTY
Delta G
SciTegic.value.DoubleValue
4.254

@<SCITEGIC>MOL_PROPERTY
G
SciTegic.value.DoubleValue
62.402

@<SCITEGIC>MOL_PROPERTY
E
SciTegic.value.DoubleValue
24.684

@<SCITEGIC>MOL_PROPERTY
-TS
SciTegic.value.DoubleValue
37.718

@<SCITEGIC>MOL_PROPERTY
U+W
SciTegic.value.DoubleValue
0.540

@<SCITEGIC>MOL_PROPERTY
U
SciTegic.value.DoubleValue
52.421

@<SCITEGIC>MOL_PROPERTY
W
SciTegic.value.DoubleValue
-51.881

@<SCITEGIC>MOL_PROPERTY
W(PB)
SciTegic.value.DoubleValue
-54.311

@<SCITEGIC>MOL_PROPERTY
W(SA)
SciTegic.value.DoubleValue
2.430

@<SCITEGIC>MOL_PROPERTY
Valence
SciTegic.value.DoubleValue
6.172

@<SCITEGIC>MOL_PROPERTY
Coulomb
SciTegic.value.DoubleValue
45.274

@<SCITEGIC>MOL_PROPERTY
VdW
SciTegic.value.DoubleValue
0.975

@<SCITEGIC>MOL_PROPERTY
VdW6
SciTegic.value.DoubleValue
-9.790

@<SCITEGIC>MOL_PROPERTY
VdW12
SciTegic.value.DoubleValue
10.764

@<SCITEGIC>MOL_PROPERTY
Bond
SciTegic.value.DoubleValue
0.295

@<SCITEGIC>MOL_PROPERTY
Angle
SciTegic.value.DoubleValue
1.437

@<SCITEGIC>MOL_PROPERTY
Pdih
SciTegic.value.DoubleValue
4.440

@<SCITEGIC>MOL_PROPERTY
Idih
SciTegic.value.DoubleValue
0.000

@<SCITEGIC>MOL_PROPERTY
Tether
SciTegic.value.DoubleValue
0.000

@<TRIPOS>MOLECULE
guest-3_vm2.mol2 : vm2 ligand conformer 300
          29          28           1
SMALL
USER_CHARGES
 
@<TRIPOS>ATOM
       1    C1      20.063081   18.279137   19.713788 C.3        1 MOL1        -0.2427
       2    H1      19.740366   17.325620   20.149522 H          1 MOL1         0.0958
       3    H2      19.837219   18.243405   18.640176 H          1 MOL1         0.0958
       4    H3      21.152307   18.357985   19.825078 H          1 MOL1         0.0958
       5    C2      19.348388   19.478767   20.376395 C.3        1 MOL1        -0.1412
       6    H4      18.259978   19.359001   20.282932 H          1 MOL1         0.0947
       7    H5      19.605648   20.392005   19.821785 H          1 MOL1         0.0947
       8    C3      19.727280   19.679895   21.863766 C.3        1 MOL1        -0.1437
       9    H6      20.815652   19.801659   21.950898 H          1 MOL1         0.0947
      10    H7      19.282624   20.624571   22.200472 H          1 MOL1         0.0947
      11    C4      19.255347   18.523203   22.781754 C.3        1 MOL1        -0.1437
      12    H8      19.707073   17.583550   22.438782 H          1 MOL1         0.0947
      13    H9      18.168044   18.394356   22.691279 H          1 MOL1         0.0947
      14    C5      19.634415   18.717056   24.270956 C.3        1 MOL1        -0.1437
      15    H10     19.439967   17.768938   24.786592 H          1 MOL1         0.0947
      16    H11     20.712945   18.909717   24.353615 H          1 MOL1         0.0947
      17    C6      18.837903   19.846172   24.972316 C.3        1 MOL1        -0.1437
      18    H12     17.766969   19.601068   24.957218 H          1 MOL1         0.0947
      19    H13     18.945751   20.779610   24.406361 H          1 MOL1         0.0947
      20    C7      19.280034   20.129651   26.430889 C.3        1 MOL1        -0.1477
      21    H14     20.333284   20.439219   26.457635 H          1 MOL1         0.0947
      22    H15     18.703948   20.990828   26.794706 H          1 MOL1         0.0947
      23    C8      19.046869   18.961871   27.411680 C.3        1 MOL1         0.0145
      24    H16     18.100446   18.465698   27.180650 H          1 MOL1         0.0921
      25    H17     18.982602   19.358685   28.428480 H          1 MOL1         0.0921
      26    N1      20.150684   17.922249   27.413455 N.4        1 MOL1        -0.5969
      27    H18     20.273011   17.496191   26.490455 H          1 MOL1         0.3603
      28    H19     19.956422   17.162595   28.075155 H          1 MOL1         0.3603
      29    H20     21.053187   18.328458   27.681455 H          1 MOL1         0.3603
@<TRIPOS>BOND
    1     1     2    1
    2     1     3    1
    3     1     4    1
    4     1     5    1
    5     5     6    1
    6     5     7    1
    7     5     8    1
    8     8     9    1
    9     8    10    1
   10     8    11    1
   11    11    12    1
   12    11    13    1
   13    11    14    1
   14    14    15    1
   15    14    16    1
   16    14    17    1
   17    17    18    1
   18    17    19    1
   19    17    20    1
   20    20    21    1
   21    20    22    1
   22    20    23    1
   23    23    24    1
   24    23    25    1
   25    23    26    1
   26    26    27    1
   27    26    28    1
   28    26    29    1
@<TRIPOS>SUBSTRUCTURE
       1 MOL1            1 RESIDUE      1      MOL     
@<SCITEGIC>MOL_PROPERTY
VM2 Rank
SciTegic.value.IntegerValue
300

@<SCITEGIC>MOL_PROPERTY
Conf_Id
SciTegic.value.IntegerValue
1938

@<SCITEGIC>MOL_PROPERTY
Probability
SciTegic.value.DoubleValue
0.00

@<SCITEGIC>MOL_PROPERTY
Sum Probability
SciTegic.value.DoubleValue
99.76

@<SCITEGIC>MOL_PROPERTY
Delta G
SciTegic.value.DoubleValue
4.260

@<SCITEGIC>MOL_PROPERTY
G
SciTegic.value.DoubleValue
62.408

@<SCITEGIC>MOL_PROPERTY
E
SciTegic.value.DoubleValue
25.015

@<SCITEGIC>MOL_PROPERTY
-TS
SciTegic.value.DoubleValue
37.393

@<SCITEGIC>MOL_PROPERTY
U+W
SciTegic.value.DoubleValue
0.871

@<SCITEGIC>MOL_PROPERTY
U
SciTegic.value.DoubleValue
52.756

@<SCITEGIC>MOL_PROPERTY
W
SciTegic.value.DoubleValue
-51.885

@<SCITEGIC>MOL_PROPERTY
W(PB)
SciTegic.value.DoubleValue
-54.370

@<SCITEGIC>MOL_PROPERTY
W(SA)
SciTegic.value.DoubleValue
2.485

@<SCITEGIC>MOL_PROPERTY
Valence
SciTegic.value.DoubleValue
5.463

@<SCITEGIC>MOL_PROPERTY
Coulomb
SciTegic.value.DoubleValue
46.244

@<SCITEGIC>MOL_PROPERTY
VdW
SciTegic.value.DoubleValue
1.049

@<SCITEGIC>MOL_PROPERTY
VdW6
SciTegic.value.DoubleValue
-9.558

@<SCITEGIC>MOL_PROPERTY
VdW12
SciTegic.value.DoubleValue
10.607

@<SCITEGIC>MOL_PROPERTY
Bond
SciTegic.value.DoubleValue
0.295

@<SCITEGIC>MOL_PROPERTY
Angle
SciTegic.value.DoubleValue
1.567

@<SCITEGIC>MOL_PROPERTY
Pdih
SciTegic.value.DoubleValue
3.601

@<SCITEGIC>MOL_PROPERTY
Idih
SciTegic.value.DoubleValue
0.000

@<SCITEGIC>MOL_PROPERTY
Tether
SciTegic.value.DoubleValue
0.000

@<TRIPOS>MOLECULE
guest-3_vm2.mol2 : vm2 ligand conformer 301
          29          28           1
SMALL
USER_CHARGES
 
@<TRIPOS>ATOM
       1    C1      20.980892   18.699744   20.132586 C.3        1 MOL1        -0.2427
       2    H1      21.370361   17.734082   20.480502 H          1 MOL1         0.0958
       3    H2      20.962409   18.680171   19.035175 H          1 MOL1         0.0958
       4    H3      21.683151   19.484036   20.443944 H          1 MOL1         0.0958
       5    C2      19.568775   18.963725   20.696609 C.3        1 MOL1        -0.1412
       6    H4      18.882514   18.182978   20.339779 H          1 MOL1         0.0947
       7    H5      19.192571   19.919670   20.306035 H          1 MOL1         0.0947
       8    C3      19.567152   18.994922   22.240930 C.3        1 MOL1        -0.1437
       9    H6      19.938323   18.035804   22.627426 H          1 MOL1         0.0947
      10    H7      20.261327   19.774577   22.579170 H          1 MOL1         0.0947
      11    C4      18.156619   19.274116   22.808843 C.3        1 MOL1        -0.1437
      12    H8      17.441076   18.582826   22.342566 H          1 MOL1         0.0947
      13    H9      17.839036   20.284570   22.516740 H          1 MOL1         0.0947
      14    C5      18.041709   19.120963   24.347438 C.3        1 MOL1        -0.1437
      15    H10     16.990825   19.298489   24.614690 H          1 MOL1         0.0947
      16    H11     18.242582   18.081148   24.634171 H          1 MOL1         0.0947
      17    C6      18.916350   20.106097   25.170797 C.3        1 MOL1        -0.1437
      18    H12     18.368866   20.382267   26.081711 H          1 MOL1         0.0947
      19    H13     19.037735   21.044358   24.612313 H          1 MOL1         0.0947
      20    C7      20.312410   19.564040   25.582531 C.3        1 MOL1        -0.1477
      21    H14     20.911451   19.339076   24.693513 H          1 MOL1         0.0947
      22    H15     20.856637   20.353191   26.117999 H          1 MOL1         0.0947
      23    C8      20.265660   18.304370   26.471830 C.3        1 MOL1         0.0145
      24    H16     21.286105   17.989852   26.706860 H          1 MOL1         0.0921
      25    H17     19.775937   17.487797   25.935811 H          1 MOL1         0.0921
      26    N1      19.534432   18.510022   27.783437 N.4        1 MOL1        -0.5969
      27    H18     19.965500   19.249953   28.347164 H          1 MOL1         0.3603
      28    H19     19.531468   17.658786   28.355949 H          1 MOL1         0.3603
      29    H20     18.556112   18.774723   27.631361 H          1 MOL1         0.3603
@<TRIPOS>BOND
    1     1     2    1
    2     1     3    1
    3     1     4    1
    4     1     5    1
    5     5     6    1
    6     5     7    1
    7     5     8    1
    8     8     9    1
    9     8    10    1
   10     8    11    1
   11    11    12    1
   12    11    13    1
   13    11    14    1
   14    14    15    1
   15    14    16    1
   16    14    17    1
   17    17    18    1
   18    17    19    1
   19    17    20    1
   20    20    21    1
   21    20    22    1
   22    20    23    1
   23    23    24    1
   24    23    25    1
   25    23    26    1
   26    26    27    1
   27    26    28    1
   28    26    29    1
@<TRIPOS>SUBSTRUCTURE
       1 MOL1            1 RESIDUE      1      MOL     
@<SCITEGIC>MOL_PROPERTY
VM2 Rank
SciTegic.value.IntegerValue
301

@<SCITEGIC>MOL_PROPERTY
Conf_Id
SciTegic.value.IntegerValue
2652

@<SCITEGIC>MOL_PROPERTY
Probability
SciTegic.value.DoubleValue
0.00

@<SCITEGIC>MOL_PROPERTY
Sum Probability
SciTegic.value.DoubleValue
99.76

@<SCITEGIC>MOL_PROPERTY
Delta G
SciTegic.value.DoubleValue
4.262

@<SCITEGIC>MOL_PROPERTY
G
SciTegic.value.DoubleValue
62.410

@<SCITEGIC>MOL_PROPERTY
E
SciTegic.value.DoubleValue
24.748

@<SCITEGIC>MOL_PROPERTY
-TS
SciTegic.value.DoubleValue
37.662

@<SCITEGIC>MOL_PROPERTY
U+W
SciTegic.value.DoubleValue
0.603

@<SCITEGIC>MOL_PROPERTY
U
SciTegic.value.DoubleValue
52.659

@<SCITEGIC>MOL_PROPERTY
W
SciTegic.value.DoubleValue
-52.056

@<SCITEGIC>MOL_PROPERTY
W(PB)
SciTegic.value.DoubleValue
-54.502

@<SCITEGIC>MOL_PROPERTY
W(SA)
SciTegic.value.DoubleValue
2.446

@<SCITEGIC>MOL_PROPERTY
Valence
SciTegic.value.DoubleValue
6.136

@<SCITEGIC>MOL_PROPERTY
Coulomb
SciTegic.value.DoubleValue
45.636

@<SCITEGIC>MOL_PROPERTY
VdW
SciTegic.value.DoubleValue
0.887

@<SCITEGIC>MOL_PROPERTY
VdW6
SciTegic.value.DoubleValue
-9.873

@<SCITEGIC>MOL_PROPERTY
VdW12
SciTegic.value.DoubleValue
10.760

@<SCITEGIC>MOL_PROPERTY
Bond
SciTegic.value.DoubleValue
0.306

@<SCITEGIC>MOL_PROPERTY
Angle
SciTegic.value.DoubleValue
1.639

@<SCITEGIC>MOL_PROPERTY
Pdih
SciTegic.value.DoubleValue
4.191

@<SCITEGIC>MOL_PROPERTY
Idih
SciTegic.value.DoubleValue
0.000

@<SCITEGIC>MOL_PROPERTY
Tether
SciTegic.value.DoubleValue
0.000

@<TRIPOS>MOLECULE
guest-3_vm2.mol2 : vm2 ligand conformer 302
          29          28           1
SMALL
USER_CHARGES
 
@<TRIPOS>ATOM
       1    C1      20.798149   19.438541   20.260113 C.3        1 MOL1        -0.2427
       2    H1      20.313092   20.422421   20.278355 H          1 MOL1         0.0958
       3    H2      21.692547   19.483776   20.894948 H          1 MOL1         0.0958
       4    H3      21.126652   19.251235   19.229623 H          1 MOL1         0.0958
       5    C2      19.837307   18.324164   20.732662 C.3        1 MOL1        -0.1412
       6    H4      20.325106   17.350103   20.587854 H          1 MOL1         0.0947
       7    H5      18.940197   18.316139   20.097972 H          1 MOL1         0.0947
       8    C3      19.426406   18.458562   22.218622 C.3        1 MOL1        -0.1437
       9    H6      18.827952   17.580185   22.496349 H          1 MOL1         0.0947
      10    H7      20.330103   18.437336   22.841546 H          1 MOL1         0.0947
      11    C4      18.612921   19.741755   22.516110 C.3        1 MOL1        -0.1437
      12    H8      17.801113   19.827720   21.780850 H          1 MOL1         0.0947
      13    H9      19.249156   20.625618   22.375882 H          1 MOL1         0.0947
      14    C5      17.990905   19.787918   23.935644 C.3        1 MOL1        -0.1437
      15    H10     17.395088   20.708626   24.004351 H          1 MOL1         0.0947
      16    H11     17.275972   18.963439   24.063248 H          1 MOL1         0.0947
      17    C6      19.021680   19.792992   25.094565 C.3        1 MOL1        -0.1437
      18    H12     18.635824   20.441744   25.892201 H          1 MOL1         0.0947
      19    H13     19.963332   20.249490   24.759460 H          1 MOL1         0.0947
      20    C7      19.285742   18.386347   25.689414 C.3        1 MOL1        -0.1477
      21    H14     18.355829   17.977348   26.106305 H          1 MOL1         0.0947
      22    H15     19.600197   17.693106   24.901406 H          1 MOL1         0.0947
      23    C8      20.372955   18.399157   26.781050 C.3        1 MOL1         0.0145
      24    H16     21.299504   18.811603   26.372666 H          1 MOL1         0.0921
      25    H17     20.570533   17.374743   27.108267 H          1 MOL1         0.0921
      26    N1      19.997936   19.208563   28.006820 N.4        1 MOL1        -0.5969
      27    H18     19.832969   20.193067   27.774928 H          1 MOL1         0.3603
      28    H19     20.736816   19.186811   28.718247 H          1 MOL1         0.3603
      29    H20     19.144131   18.854004   28.450171 H          1 MOL1         0.3603
@<TRIPOS>BOND
    1     1     2    1
    2     1     3    1
    3     1     4    1
    4     1     5    1
    5     5     6    1
    6     5     7    1
    7     5     8    1
    8     8     9    1
    9     8    10    1
   10     8    11    1
   11    11    12    1
   12    11    13    1
   13    11    14    1
   14    14    15    1
   15    14    16    1
   16    14    17    1
   17    17    18    1
   18    17    19    1
   19    17    20    1
   20    20    21    1
   21    20    22    1
   22    20    23    1
   23    23    24    1
   24    23    25    1
   25    23    26    1
   26    26    27    1
   27    26    28    1
   28    26    29    1
@<TRIPOS>SUBSTRUCTURE
       1 MOL1            1 RESIDUE      1      MOL     
@<SCITEGIC>MOL_PROPERTY
VM2 Rank
SciTegic.value.IntegerValue
302

@<SCITEGIC>MOL_PROPERTY
Conf_Id
SciTegic.value.IntegerValue
1548

@<SCITEGIC>MOL_PROPERTY
Probability
SciTegic.value.DoubleValue
0.00

@<SCITEGIC>MOL_PROPERTY
Sum Probability
SciTegic.value.DoubleValue
99.77

@<SCITEGIC>MOL_PROPERTY
Delta G
SciTegic.value.DoubleValue
4.265

@<SCITEGIC>MOL_PROPERTY
G
SciTegic.value.DoubleValue
62.413

@<SCITEGIC>MOL_PROPERTY
E
SciTegic.value.DoubleValue
24.604

@<SCITEGIC>MOL_PROPERTY
-TS
SciTegic.value.DoubleValue
37.809

@<SCITEGIC>MOL_PROPERTY
U+W
SciTegic.value.DoubleValue
0.460

@<SCITEGIC>MOL_PROPERTY
U
SciTegic.value.DoubleValue
52.441

@<SCITEGIC>MOL_PROPERTY
W
SciTegic.value.DoubleValue
-51.981

@<SCITEGIC>MOL_PROPERTY
W(PB)
SciTegic.value.DoubleValue
-54.435

@<SCITEGIC>MOL_PROPERTY
W(SA)
SciTegic.value.DoubleValue
2.454

@<SCITEGIC>MOL_PROPERTY
Valence
SciTegic.value.DoubleValue
6.199

@<SCITEGIC>MOL_PROPERTY
Coulomb
SciTegic.value.DoubleValue
45.232

@<SCITEGIC>MOL_PROPERTY
VdW
SciTegic.value.DoubleValue
1.010

@<SCITEGIC>MOL_PROPERTY
VdW6
SciTegic.value.DoubleValue
-9.756

@<SCITEGIC>MOL_PROPERTY
VdW12
SciTegic.value.DoubleValue
10.767

@<SCITEGIC>MOL_PROPERTY
Bond
SciTegic.value.DoubleValue
0.290

@<SCITEGIC>MOL_PROPERTY
Angle
SciTegic.value.DoubleValue
1.372

@<SCITEGIC>MOL_PROPERTY
Pdih
SciTegic.value.DoubleValue
4.537

@<SCITEGIC>MOL_PROPERTY
Idih
SciTegic.value.DoubleValue
0.000

@<SCITEGIC>MOL_PROPERTY
Tether
SciTegic.value.DoubleValue
0.000

@<TRIPOS>MOLECULE
guest-3_vm2.mol2 : vm2 ligand conformer 303
          29          28           1
SMALL
USER_CHARGES
 
@<TRIPOS>ATOM
       1    C1      21.089640   19.498018   21.046332 C.3        1 MOL1        -0.2427
       2    H1      21.178194   19.888548   22.067541 H          1 MOL1         0.0958
       3    H2      21.419252   18.451032   21.041314 H          1 MOL1         0.0958
       4    H3      21.781121   20.071320   20.415442 H          1 MOL1         0.0958
       5    C2      19.644028   19.629671   20.519865 C.3        1 MOL1        -0.1412
       6    H4      19.637035   19.393418   19.446626 H          1 MOL1         0.0947
       7    H5      19.320381   20.676581   20.602952 H          1 MOL1         0.0947
       8    C3      18.618506   18.710839   21.231747 C.3        1 MOL1        -0.1437
       9    H6      17.645594   18.862293   20.744064 H          1 MOL1         0.0947
      10    H7      18.874142   17.656283   21.059980 H          1 MOL1         0.0947
      11    C4      18.445830   18.984543   22.748706 C.3        1 MOL1        -0.1437
      12    H8      17.392955   18.816249   23.013731 H          1 MOL1         0.0947
      13    H9      18.646627   20.043372   22.955383 H          1 MOL1         0.0947
      14    C5      19.320224   18.066890   23.642240 C.3        1 MOL1        -0.1437
      15    H10     19.093844   17.019508   23.399727 H          1 MOL1         0.0947
      16    H11     20.384249   18.206297   23.417954 H          1 MOL1         0.0947
      17    C6      19.086648   18.275795   25.158544 C.3        1 MOL1        -0.1437
      18    H12     19.621419   17.483179   25.698282 H          1 MOL1         0.0947
      19    H13     18.020807   18.141981   25.389740 H          1 MOL1         0.0947
      20    C7      19.564224   19.657691   25.671325 C.3        1 MOL1        -0.1477
      21    H14     20.623001   19.806765   25.421260 H          1 MOL1         0.0947
      22    H15     19.006625   20.455767   25.166129 H          1 MOL1         0.0947
      23    C8      19.365817   19.828320   27.189808 C.3        1 MOL1         0.0145
      24    H16     18.315800   19.661726   27.444943 H          1 MOL1         0.0921
      25    H17     19.628586   20.850138   27.476809 H          1 MOL1         0.0921
      26    N1      20.209083   18.886233   28.026433 N.4        1 MOL1        -0.5969
      27    H18     19.986385   17.904795   27.833181 H          1 MOL1         0.3603
      28    H19     20.063392   19.035340   29.030980 H          1 MOL1         0.3603
      29    H20     21.210782   19.011201   27.846881 H          1 MOL1         0.3603
@<TRIPOS>BOND
    1     1     2    1
    2     1     3    1
    3     1     4    1
    4     1     5    1
    5     5     6    1
    6     5     7    1
    7     5     8    1
    8     8     9    1
    9     8    10    1
   10     8    11    1
   11    11    12    1
   12    11    13    1
   13    11    14    1
   14    14    15    1
   15    14    16    1
   16    14    17    1
   17    17    18    1
   18    17    19    1
   19    17    20    1
   20    20    21    1
   21    20    22    1
   22    20    23    1
   23    23    24    1
   24    23    25    1
   25    23    26    1
   26    26    27    1
   27    26    28    1
   28    26    29    1
@<TRIPOS>SUBSTRUCTURE
       1 MOL1            1 RESIDUE      1      MOL     
@<SCITEGIC>MOL_PROPERTY
VM2 Rank
SciTegic.value.IntegerValue
303

@<SCITEGIC>MOL_PROPERTY
Conf_Id
SciTegic.value.IntegerValue
2621

@<SCITEGIC>MOL_PROPERTY
Probability
SciTegic.value.DoubleValue
0.00

@<SCITEGIC>MOL_PROPERTY
Sum Probability
SciTegic.value.DoubleValue
99.77

@<SCITEGIC>MOL_PROPERTY
Delta G
SciTegic.value.DoubleValue
4.266

@<SCITEGIC>MOL_PROPERTY
G
SciTegic.value.DoubleValue
62.414

@<SCITEGIC>MOL_PROPERTY
E
SciTegic.value.DoubleValue
24.740

@<SCITEGIC>MOL_PROPERTY
-TS
SciTegic.value.DoubleValue
37.674

@<SCITEGIC>MOL_PROPERTY
U+W
SciTegic.value.DoubleValue
0.596

@<SCITEGIC>MOL_PROPERTY
U
SciTegic.value.DoubleValue
52.421

@<SCITEGIC>MOL_PROPERTY
W
SciTegic.value.DoubleValue
-51.825

@<SCITEGIC>MOL_PROPERTY
W(PB)
SciTegic.value.DoubleValue
-54.271

@<SCITEGIC>MOL_PROPERTY
W(SA)
SciTegic.value.DoubleValue
2.446

@<SCITEGIC>MOL_PROPERTY
Valence
SciTegic.value.DoubleValue
6.205

@<SCITEGIC>MOL_PROPERTY
Coulomb
SciTegic.value.DoubleValue
45.185

@<SCITEGIC>MOL_PROPERTY
VdW
SciTegic.value.DoubleValue
1.031

@<SCITEGIC>MOL_PROPERTY
VdW6
SciTegic.value.DoubleValue
-9.741

@<SCITEGIC>MOL_PROPERTY
VdW12
SciTegic.value.DoubleValue
10.772

@<SCITEGIC>MOL_PROPERTY
Bond
SciTegic.value.DoubleValue
0.301

@<SCITEGIC>MOL_PROPERTY
Angle
SciTegic.value.DoubleValue
1.486

@<SCITEGIC>MOL_PROPERTY
Pdih
SciTegic.value.DoubleValue
4.418

@<SCITEGIC>MOL_PROPERTY
Idih
SciTegic.value.DoubleValue
0.000

@<SCITEGIC>MOL_PROPERTY
Tether
SciTegic.value.DoubleValue
0.000

@<TRIPOS>MOLECULE
guest-3_vm2.mol2 : vm2 ligand conformer 304
          29          28           1
SMALL
USER_CHARGES
 
@<TRIPOS>ATOM
       1    C1      21.208280   19.332380   21.086158 C.3        1 MOL1        -0.2427
       2    H1      21.703282   18.377206   20.867887 H          1 MOL1         0.0958
       3    H2      21.717970   20.111734   20.505037 H          1 MOL1         0.0958
       4    H3      21.361464   19.556473   22.147460 H          1 MOL1         0.0958
       5    C2      19.708498   19.273982   20.713256 C.3        1 MOL1        -0.1412
       6    H4      19.635832   19.072884   19.635234 H          1 MOL1         0.0947
       7    H5      19.237165   20.254166   20.870236 H          1 MOL1         0.0947
       8    C3      18.927036   18.172241   21.474377 C.3        1 MOL1        -0.1437
       9    H6      18.165438   17.763215   20.796137 H          1 MOL1         0.0947
      10    H7      19.592149   17.331073   21.713490 H          1 MOL1         0.0947
      11    C4      18.198384   18.656289   22.754607 C.3        1 MOL1        -0.1437
      12    H8      17.628806   17.811310   23.165453 H          1 MOL1         0.0947
      13    H9      17.457921   19.422001   22.485186 H          1 MOL1         0.0947
      14    C5      19.136253   19.211517   23.851019 C.3        1 MOL1        -0.1437
      15    H10     19.938933   18.486859   24.040986 H          1 MOL1         0.0947
      16    H11     19.608782   20.136565   23.496417 H          1 MOL1         0.0947
      17    C6      18.370877   19.510596   25.162123 C.3        1 MOL1        -0.1437
      18    H12     17.916570   18.587643   25.546574 H          1 MOL1         0.0947
      19    H13     17.537782   20.193246   24.944697 H          1 MOL1         0.0947
      20    C7      19.262482   20.153144   26.254084 C.3        1 MOL1        -0.1477
      21    H14     19.637130   21.119975   25.892518 H          1 MOL1         0.0947
      22    H15     18.650685   20.373470   27.138928 H          1 MOL1         0.0947
      23    C8      20.464329   19.283475   26.675169 C.3        1 MOL1         0.0145
      24    H16     21.052842   19.816686   27.426711 H          1 MOL1         0.0921
      25    H17     21.106783   19.096652   25.810876 H          1 MOL1         0.0921
      26    N1      20.067861   17.944376   27.264207 N.4        1 MOL1        -0.5969
      27    H18     19.484145   18.054813   28.099812 H          1 MOL1         0.3603
      28    H19     20.886788   17.391687   27.540429 H          1 MOL1         0.3603
      29    H20     19.535085   17.381250   26.593858 H          1 MOL1         0.3603
@<TRIPOS>BOND
    1     1     2    1
    2     1     3    1
    3     1     4    1
    4     1     5    1
    5     5     6    1
    6     5     7    1
    7     5     8    1
    8     8     9    1
    9     8    10    1
   10     8    11    1
   11    11    12    1
   12    11    13    1
   13    11    14    1
   14    14    15    1
   15    14    16    1
   16    14    17    1
   17    17    18    1
   18    17    19    1
   19    17    20    1
   20    20    21    1
   21    20    22    1
   22    20    23    1
   23    23    24    1
   24    23    25    1
   25    23    26    1
   26    26    27    1
   27    26    28    1
   28    26    29    1
@<TRIPOS>SUBSTRUCTURE
       1 MOL1            1 RESIDUE      1      MOL     
@<SCITEGIC>MOL_PROPERTY
VM2 Rank
SciTegic.value.IntegerValue
304

@<SCITEGIC>MOL_PROPERTY
Conf_Id
SciTegic.value.IntegerValue
2512

@<SCITEGIC>MOL_PROPERTY
Probability
SciTegic.value.DoubleValue
0.00

@<SCITEGIC>MOL_PROPERTY
Sum Probability
SciTegic.value.DoubleValue
99.78

@<SCITEGIC>MOL_PROPERTY
Delta G
SciTegic.value.DoubleValue
4.266

@<SCITEGIC>MOL_PROPERTY
G
SciTegic.value.DoubleValue
62.414

@<SCITEGIC>MOL_PROPERTY
E
SciTegic.value.DoubleValue
24.590

@<SCITEGIC>MOL_PROPERTY
-TS
SciTegic.value.DoubleValue
37.824

@<SCITEGIC>MOL_PROPERTY
U+W
SciTegic.value.DoubleValue
0.446

@<SCITEGIC>MOL_PROPERTY
U
SciTegic.value.DoubleValue
52.518

@<SCITEGIC>MOL_PROPERTY
W
SciTegic.value.DoubleValue
-52.072

@<SCITEGIC>MOL_PROPERTY
W(PB)
SciTegic.value.DoubleValue
-54.534

@<SCITEGIC>MOL_PROPERTY
W(SA)
SciTegic.value.DoubleValue
2.462

@<SCITEGIC>MOL_PROPERTY
Valence
SciTegic.value.DoubleValue
5.952

@<SCITEGIC>MOL_PROPERTY
Coulomb
SciTegic.value.DoubleValue
45.696

@<SCITEGIC>MOL_PROPERTY
VdW
SciTegic.value.DoubleValue
0.869

@<SCITEGIC>MOL_PROPERTY
VdW6
SciTegic.value.DoubleValue
-9.888

@<SCITEGIC>MOL_PROPERTY
VdW12
SciTegic.value.DoubleValue
10.757

@<SCITEGIC>MOL_PROPERTY
Bond
SciTegic.value.DoubleValue
0.275

@<SCITEGIC>MOL_PROPERTY
Angle
SciTegic.value.DoubleValue
1.422

@<SCITEGIC>MOL_PROPERTY
Pdih
SciTegic.value.DoubleValue
4.256

@<SCITEGIC>MOL_PROPERTY
Idih
SciTegic.value.DoubleValue
0.000

@<SCITEGIC>MOL_PROPERTY
Tether
SciTegic.value.DoubleValue
0.000

@<TRIPOS>MOLECULE
guest-3_vm2.mol2 : vm2 ligand conformer 305
          29          28           1
SMALL
USER_CHARGES
 
@<TRIPOS>ATOM
       1    C1      20.434385   19.852380   20.107509 C.3        1 MOL1        -0.2427
       2    H1      20.230013   20.574388   19.306369 H          1 MOL1         0.0958
       3    H2      20.756385   20.416626   20.989749 H          1 MOL1         0.0958
       4    H3      21.274775   19.224761   19.783624 H          1 MOL1         0.0958
       5    C2      19.181752   18.991404   20.392567 C.3        1 MOL1        -0.1412
       6    H4      18.911821   18.468590   19.464306 H          1 MOL1         0.0947
       7    H5      18.324203   19.633296   20.637796 H          1 MOL1         0.0947
       8    C3      19.403035   17.937248   21.507744 C.3        1 MOL1        -0.1437
       9    H6      18.852912   17.027118   21.231341 H          1 MOL1         0.0947
      10    H7      20.460633   17.642198   21.547601 H          1 MOL1         0.0947
      11    C4      18.916872   18.365510   22.916607 C.3        1 MOL1        -0.1437
      12    H8      19.060667   17.512863   23.591891 H          1 MOL1         0.0947
      13    H9      17.834956   18.554044   22.886648 H          1 MOL1         0.0947
      14    C5      19.639625   19.610057   23.488691 C.3        1 MOL1        -0.1437
      15    H10     20.726939   19.454780   23.464733 H          1 MOL1         0.0947
      16    H11     19.430161   20.472662   22.843541 H          1 MOL1         0.0947
      17    C6      19.197641   19.977922   24.926651 C.3        1 MOL1        -0.1437
      18    H12     18.107289   20.111570   24.954941 H          1 MOL1         0.0947
      19    H13     19.634036   20.953013   25.184441 H          1 MOL1         0.0947
      20    C7      19.626296   18.943165   25.993649 C.3        1 MOL1        -0.1477
      21    H14     19.134322   17.980290   25.808852 H          1 MOL1         0.0947
      22    H15     20.709069   18.772073   25.928785 H          1 MOL1         0.0947
      23    C8      19.269165   19.422040   27.411690 C.3        1 MOL1         0.0145
      24    H16     18.189600   19.578222   27.486514 H          1 MOL1         0.0921
      25    H17     19.769578   20.372357   27.616437 H          1 MOL1         0.0921
      26    N1      19.675229   18.438275   28.489892 N.4        1 MOL1        -0.5969
      27    H18     20.686463   18.268204   28.490329 H          1 MOL1         0.3603
      28    H19     19.215965   17.529301   28.370187 H          1 MOL1         0.3603
      29    H20     19.428663   18.776709   29.426586 H          1 MOL1         0.3603
@<TRIPOS>BOND
    1     1     2    1
    2     1     3    1
    3     1     4    1
    4     1     5    1
    5     5     6    1
    6     5     7    1
    7     5     8    1
    8     8     9    1
    9     8    10    1
   10     8    11    1
   11    11    12    1
   12    11    13    1
   13    11    14    1
   14    14    15    1
   15    14    16    1
   16    14    17    1
   17    17    18    1
   18    17    19    1
   19    17    20    1
   20    20    21    1
   21    20    22    1
   22    20    23    1
   23    23    24    1
   24    23    25    1
   25    23    26    1
   26    26    27    1
   27    26    28    1
   28    26    29    1
@<TRIPOS>SUBSTRUCTURE
       1 MOL1            1 RESIDUE      1      MOL     
@<SCITEGIC>MOL_PROPERTY
VM2 Rank
SciTegic.value.IntegerValue
305

@<SCITEGIC>MOL_PROPERTY
Conf_Id
SciTegic.value.IntegerValue
1361

@<SCITEGIC>MOL_PROPERTY
Probability
SciTegic.value.DoubleValue
0.00

@<SCITEGIC>MOL_PROPERTY
Sum Probability
SciTegic.value.DoubleValue
99.78

@<SCITEGIC>MOL_PROPERTY
Delta G
SciTegic.value.DoubleValue
4.275

@<SCITEGIC>MOL_PROPERTY
G
SciTegic.value.DoubleValue
62.423

@<SCITEGIC>MOL_PROPERTY
E
SciTegic.value.DoubleValue
24.849

@<SCITEGIC>MOL_PROPERTY
-TS
SciTegic.value.DoubleValue
37.574

@<SCITEGIC>MOL_PROPERTY
U+W
SciTegic.value.DoubleValue
0.704

@<SCITEGIC>MOL_PROPERTY
U
SciTegic.value.DoubleValue
52.141

@<SCITEGIC>MOL_PROPERTY
W
SciTegic.value.DoubleValue
-51.437

@<SCITEGIC>MOL_PROPERTY
W(PB)
SciTegic.value.DoubleValue
-53.912

@<SCITEGIC>MOL_PROPERTY
W(SA)
SciTegic.value.DoubleValue
2.475

@<SCITEGIC>MOL_PROPERTY
Valence
SciTegic.value.DoubleValue
6.259

@<SCITEGIC>MOL_PROPERTY
Coulomb
SciTegic.value.DoubleValue
44.846

@<SCITEGIC>MOL_PROPERTY
VdW
SciTegic.value.DoubleValue
1.036

@<SCITEGIC>MOL_PROPERTY
VdW6
SciTegic.value.DoubleValue
-9.043

@<SCITEGIC>MOL_PROPERTY
VdW12
SciTegic.value.DoubleValue
10.079

@<SCITEGIC>MOL_PROPERTY
Bond
SciTegic.value.DoubleValue
0.275

@<SCITEGIC>MOL_PROPERTY
Angle
SciTegic.value.DoubleValue
1.500

@<SCITEGIC>MOL_PROPERTY
Pdih
SciTegic.value.DoubleValue
4.484

@<SCITEGIC>MOL_PROPERTY
Idih
SciTegic.value.DoubleValue
0.000

@<SCITEGIC>MOL_PROPERTY
Tether
SciTegic.value.DoubleValue
0.000

@<TRIPOS>MOLECULE
guest-3_vm2.mol2 : vm2 ligand conformer 306
          29          28           1
SMALL
USER_CHARGES
 
@<TRIPOS>ATOM
       1    C1      19.537050   20.341886   20.482985 C.3        1 MOL1        -0.2427
       2    H1      20.502034   20.865037   20.490300 H          1 MOL1         0.0958
       3    H2      19.040081   20.565742   19.530232 H          1 MOL1         0.0958
       4    H3      18.914166   20.756121   21.285627 H          1 MOL1         0.0958
       5    C2      19.730516   18.817628   20.647596 C.3        1 MOL1        -0.1412
       6    H4      20.250819   18.429752   19.760768 H          1 MOL1         0.0947
       7    H5      18.752293   18.319204   20.661009 H          1 MOL1         0.0947
       8    C3      20.549203   18.430916   21.906027 C.3        1 MOL1        -0.1437
       9    H6      20.649550   17.337394   21.941205 H          1 MOL1         0.0947
      10    H7      21.569807   18.822230   21.794895 H          1 MOL1         0.0947
      11    C4      19.975144   18.928789   23.258154 C.3        1 MOL1        -0.1437
      12    H8      19.952245   20.026256   23.275068 H          1 MOL1         0.0947
      13    H9      20.674867   18.621019   24.044964 H          1 MOL1         0.0947
      14    C5      18.569457   18.365103   23.582461 C.3        1 MOL1        -0.1437
      15    H10     17.884318   18.592475   22.756081 H          1 MOL1         0.0947
      16    H11     18.622203   17.269529   23.644664 H          1 MOL1         0.0947
      17    C6      17.935996   18.926041   24.882124 C.3        1 MOL1        -0.1437
      18    H12     16.935209   18.482996   24.979904 H          1 MOL1         0.0947
      19    H13     17.773203   20.008491   24.785310 H          1 MOL1         0.0947
      20    C7      18.726171   18.622275   26.179850 C.3        1 MOL1        -0.1477
      21    H14     18.017384   18.570865   27.017088 H          1 MOL1         0.0947
      22    H15     19.198405   17.633187   26.112160 H          1 MOL1         0.0947
      23    C8      19.778263   19.698873   26.510387 C.3        1 MOL1         0.0145
      24    H16     19.285364   20.667581   26.628698 H          1 MOL1         0.0921
      25    H17     20.503286   19.782973   25.698757 H          1 MOL1         0.0921
      26    N1      20.542200   19.406488   27.785416 N.4        1 MOL1        -0.5969
      27    H18     21.233711   20.135919   27.991220 H          1 MOL1         0.3603
      28    H19     21.051560   18.518297   27.730233 H          1 MOL1         0.3603
      29    H20     19.919649   19.347440   28.598066 H          1 MOL1         0.3603
@<TRIPOS>BOND
    1     1     2    1
    2     1     3    1
    3     1     4    1
    4     1     5    1
    5     5     6    1
    6     5     7    1
    7     5     8    1
    8     8     9    1
    9     8    10    1
   10     8    11    1
   11    11    12    1
   12    11    13    1
   13    11    14    1
   14    14    15    1
   15    14    16    1
   16    14    17    1
   17    17    18    1
   18    17    19    1
   19    17    20    1
   20    20    21    1
   21    20    22    1
   22    20    23    1
   23    23    24    1
   24    23    25    1
   25    23    26    1
   26    26    27    1
   27    26    28    1
   28    26    29    1
@<TRIPOS>SUBSTRUCTURE
       1 MOL1            1 RESIDUE      1      MOL     
@<SCITEGIC>MOL_PROPERTY
VM2 Rank
SciTegic.value.IntegerValue
306

@<SCITEGIC>MOL_PROPERTY
Conf_Id
SciTegic.value.IntegerValue
302

@<SCITEGIC>MOL_PROPERTY
Probability
SciTegic.value.DoubleValue
0.00

@<SCITEGIC>MOL_PROPERTY
Sum Probability
SciTegic.value.DoubleValue
99.79

@<SCITEGIC>MOL_PROPERTY
Delta G
SciTegic.value.DoubleValue
4.287

@<SCITEGIC>MOL_PROPERTY
G
SciTegic.value.DoubleValue
62.435

@<SCITEGIC>MOL_PROPERTY
E
SciTegic.value.DoubleValue
24.532

@<SCITEGIC>MOL_PROPERTY
-TS
SciTegic.value.DoubleValue
37.903

@<SCITEGIC>MOL_PROPERTY
U+W
SciTegic.value.DoubleValue
0.387

@<SCITEGIC>MOL_PROPERTY
U
SciTegic.value.DoubleValue
52.652

@<SCITEGIC>MOL_PROPERTY
W
SciTegic.value.DoubleValue
-52.262

@<SCITEGIC>MOL_PROPERTY
W(PB)
SciTegic.value.DoubleValue
-54.693

@<SCITEGIC>MOL_PROPERTY
W(SA)
SciTegic.value.DoubleValue
2.431

@<SCITEGIC>MOL_PROPERTY
Valence
SciTegic.value.DoubleValue
6.081

@<SCITEGIC>MOL_PROPERTY
Coulomb
SciTegic.value.DoubleValue
45.696

@<SCITEGIC>MOL_PROPERTY
VdW
SciTegic.value.DoubleValue
0.874

@<SCITEGIC>MOL_PROPERTY
VdW6
SciTegic.value.DoubleValue
-10.147

@<SCITEGIC>MOL_PROPERTY
VdW12
SciTegic.value.DoubleValue
11.022

@<SCITEGIC>MOL_PROPERTY
Bond
SciTegic.value.DoubleValue
0.303

@<SCITEGIC>MOL_PROPERTY
Angle
SciTegic.value.DoubleValue
1.914

@<SCITEGIC>MOL_PROPERTY
Pdih
SciTegic.value.DoubleValue
3.864

@<SCITEGIC>MOL_PROPERTY
Idih
SciTegic.value.DoubleValue
0.000

@<SCITEGIC>MOL_PROPERTY
Tether
SciTegic.value.DoubleValue
0.000

@<TRIPOS>MOLECULE
guest-3_vm2.mol2 : vm2 ligand conformer 307
          29          28           1
SMALL
USER_CHARGES
 
@<TRIPOS>ATOM
       1    C1      20.406490   20.454661   20.758750 C.3        1 MOL1        -0.2427
       2    H1      20.743696   20.846486   19.790412 H          1 MOL1         0.0958
       3    H2      19.495282   20.999229   21.035002 H          1 MOL1         0.0958
       4    H3      21.182147   20.682234   21.501404 H          1 MOL1         0.0958
       5    C2      20.154098   18.932596   20.667430 C.3        1 MOL1        -0.1412
       6    H4      21.057715   18.448040   20.271918 H          1 MOL1         0.0947
       7    H5      19.354464   18.732140   19.940725 H          1 MOL1         0.0947
       8    C3      19.800585   18.287144   22.028707 C.3        1 MOL1        -0.1437
       9    H6      19.771258   17.196694   21.897741 H          1 MOL1         0.0947
      10    H7      20.609107   18.485051   22.742175 H          1 MOL1         0.0947
      11    C4      18.437254   18.758823   22.597493 C.3        1 MOL1        -0.1437
      12    H8      17.660387   18.528842   21.855386 H          1 MOL1         0.0947
      13    H9      18.420610   19.848650   22.726100 H          1 MOL1         0.0947
      14    C5      18.059007   18.069490   23.934475 C.3        1 MOL1        -0.1437
      15    H10     16.973607   17.898305   23.935874 H          1 MOL1         0.0947
      16    H11     18.514981   17.071590   23.992451 H          1 MOL1         0.0947
      17    C6      18.403633   18.886673   25.206493 C.3        1 MOL1        -0.1437
      18    H12     18.033397   18.329195   26.076823 H          1 MOL1         0.0947
      19    H13     17.848179   19.834643   25.191732 H          1 MOL1         0.0947
      20    C7      19.912890   19.180915   25.386151 C.3        1 MOL1        -0.1477
      21    H14     20.489458   18.248070   25.331547 H          1 MOL1         0.0947
      22    H15     20.260228   19.821365   24.565989 H          1 MOL1         0.0947
      23    C8      20.224635   19.902502   26.711400 C.3        1 MOL1         0.0145
      24    H16     19.631259   20.818190   26.780736 H          1 MOL1         0.0921
      25    H17     21.282285   20.178980   26.732876 H          1 MOL1         0.0921
      26    N1      19.945407   19.065196   27.944102 N.4        1 MOL1        -0.5969
      27    H18     18.957640   18.799686   28.006799 H          1 MOL1         0.3603
      28    H19     20.176472   19.569462   28.807166 H          1 MOL1         0.3603
      29    H20     20.493238   18.198529   27.947321 H          1 MOL1         0.3603
@<TRIPOS>BOND
    1     1     2    1
    2     1     3    1
    3     1     4    1
    4     1     5    1
    5     5     6    1
    6     5     7    1
    7     5     8    1
    8     8     9    1
    9     8    10    1
   10     8    11    1
   11    11    12    1
   12    11    13    1
   13    11    14    1
   14    14    15    1
   15    14    16    1
   16    14    17    1
   17    17    18    1
   18    17    19    1
   19    17    20    1
   20    20    21    1
   21    20    22    1
   22    20    23    1
   23    23    24    1
   24    23    25    1
   25    23    26    1
   26    26    27    1
   27    26    28    1
   28    26    29    1
@<TRIPOS>SUBSTRUCTURE
       1 MOL1            1 RESIDUE      1      MOL     
@<SCITEGIC>MOL_PROPERTY
VM2 Rank
SciTegic.value.IntegerValue
307

@<SCITEGIC>MOL_PROPERTY
Conf_Id
SciTegic.value.IntegerValue
1844

@<SCITEGIC>MOL_PROPERTY
Probability
SciTegic.value.DoubleValue
0.00

@<SCITEGIC>MOL_PROPERTY
Sum Probability
SciTegic.value.DoubleValue
99.79

@<SCITEGIC>MOL_PROPERTY
Delta G
SciTegic.value.DoubleValue
4.296

@<SCITEGIC>MOL_PROPERTY
G
SciTegic.value.DoubleValue
62.444

@<SCITEGIC>MOL_PROPERTY
E
SciTegic.value.DoubleValue
24.697

@<SCITEGIC>MOL_PROPERTY
-TS
SciTegic.value.DoubleValue
37.747

@<SCITEGIC>MOL_PROPERTY
U+W
SciTegic.value.DoubleValue
0.552

@<SCITEGIC>MOL_PROPERTY
U
SciTegic.value.DoubleValue
52.520

@<SCITEGIC>MOL_PROPERTY
W
SciTegic.value.DoubleValue
-51.968

@<SCITEGIC>MOL_PROPERTY
W(PB)
SciTegic.value.DoubleValue
-54.398

@<SCITEGIC>MOL_PROPERTY
W(SA)
SciTegic.value.DoubleValue
2.429

@<SCITEGIC>MOL_PROPERTY
Valence
SciTegic.value.DoubleValue
6.252

@<SCITEGIC>MOL_PROPERTY
Coulomb
SciTegic.value.DoubleValue
45.283

@<SCITEGIC>MOL_PROPERTY
VdW
SciTegic.value.DoubleValue
0.985

@<SCITEGIC>MOL_PROPERTY
VdW6
SciTegic.value.DoubleValue
-9.838

@<SCITEGIC>MOL_PROPERTY
VdW12
SciTegic.value.DoubleValue
10.823

@<SCITEGIC>MOL_PROPERTY
Bond
SciTegic.value.DoubleValue
0.297

@<SCITEGIC>MOL_PROPERTY
Angle
SciTegic.value.DoubleValue
1.468

@<SCITEGIC>MOL_PROPERTY
Pdih
SciTegic.value.DoubleValue
4.488

@<SCITEGIC>MOL_PROPERTY
Idih
SciTegic.value.DoubleValue
0.000

@<SCITEGIC>MOL_PROPERTY
Tether
SciTegic.value.DoubleValue
0.000

@<TRIPOS>MOLECULE
guest-3_vm2.mol2 : vm2 ligand conformer 308
          29          28           1
SMALL
USER_CHARGES
 
@<TRIPOS>ATOM
       1    C1      21.009429   18.974601   20.795485 C.3        1 MOL1        -0.2427
       2    H1      21.904131   18.387503   20.551152 H          1 MOL1         0.0958
       3    H2      20.725844   19.538378   19.897287 H          1 MOL1         0.0958
       4    H3      21.287943   19.695238   21.572004 H          1 MOL1         0.0958
       5    C2      19.860047   18.044506   21.248577 C.3        1 MOL1        -0.1412
       6    H4      20.176158   17.437933   22.108627 H          1 MOL1         0.0947
       7    H5      19.660030   17.333662   20.434611 H          1 MOL1         0.0947
       8    C3      18.546759   18.800823   21.576082 C.3        1 MOL1        -0.1437
       9    H6      18.467816   19.709725   20.963908 H          1 MOL1         0.0947
      10    H7      17.702888   18.165892   21.272645 H          1 MOL1         0.0947
      11    C4      18.352649   19.147177   23.074708 C.3        1 MOL1        -0.1437
      12    H8      18.339512   18.216425   23.657128 H          1 MOL1         0.0947
      13    H9      17.359943   19.601575   23.197548 H          1 MOL1         0.0947
      14    C5      19.420303   20.109877   23.648632 C.3        1 MOL1        -0.1437
      15    H10     20.396352   19.609679   23.675538 H          1 MOL1         0.0947
      16    H11     19.529966   20.968902   22.972630 H          1 MOL1         0.0947
      17    C6      19.073997   20.640261   25.063730 C.3        1 MOL1        -0.1437
      18    H12     18.150732   21.233496   25.010368 H          1 MOL1         0.0947
      19    H13     19.862290   21.336355   25.382200 H          1 MOL1         0.0947
      20    C7      18.905602   19.543926   26.144911 C.3        1 MOL1        -0.1477
      21    H14     18.685119   20.025994   27.106575 H          1 MOL1         0.0947
      22    H15     18.037492   18.914858   25.909977 H          1 MOL1         0.0947
      23    C8      20.158725   18.662298   26.299047 C.3        1 MOL1         0.0145
      24    H16     21.021024   19.288046   26.544388 H          1 MOL1         0.0921
      25    H17     20.364017   18.145355   25.357984 H          1 MOL1         0.0921
      26    N1      20.016490   17.614532   27.383829 N.4        1 MOL1        -0.5969
      27    H18     19.848264   18.037350   28.302719 H          1 MOL1         0.3603
      28    H19     20.861044   17.038459   27.470100 H          1 MOL1         0.3603
      29    H20     19.236301   16.975764   27.197854 H          1 MOL1         0.3603
@<TRIPOS>BOND
    1     1     2    1
    2     1     3    1
    3     1     4    1
    4     1     5    1
    5     5     6    1
    6     5     7    1
    7     5     8    1
    8     8     9    1
    9     8    10    1
   10     8    11    1
   11    11    12    1
   12    11    13    1
   13    11    14    1
   14    14    15    1
   15    14    16    1
   16    14    17    1
   17    17    18    1
   18    17    19    1
   19    17    20    1
   20    20    21    1
   21    20    22    1
   22    20    23    1
   23    23    24    1
   24    23    25    1
   25    23    26    1
   26    26    27    1
   27    26    28    1
   28    26    29    1
@<TRIPOS>SUBSTRUCTURE
       1 MOL1            1 RESIDUE      1      MOL     
@<SCITEGIC>MOL_PROPERTY
VM2 Rank
SciTegic.value.IntegerValue
308

@<SCITEGIC>MOL_PROPERTY
Conf_Id
SciTegic.value.IntegerValue
1009

@<SCITEGIC>MOL_PROPERTY
Probability
SciTegic.value.DoubleValue
0.00

@<SCITEGIC>MOL_PROPERTY
Sum Probability
SciTegic.value.DoubleValue
99.79

@<SCITEGIC>MOL_PROPERTY
Delta G
SciTegic.value.DoubleValue
4.318

@<SCITEGIC>MOL_PROPERTY
G
SciTegic.value.DoubleValue
62.466

@<SCITEGIC>MOL_PROPERTY
E
SciTegic.value.DoubleValue
24.590

@<SCITEGIC>MOL_PROPERTY
-TS
SciTegic.value.DoubleValue
37.876

@<SCITEGIC>MOL_PROPERTY
U+W
SciTegic.value.DoubleValue
0.446

@<SCITEGIC>MOL_PROPERTY
U
SciTegic.value.DoubleValue
52.841

@<SCITEGIC>MOL_PROPERTY
W
SciTegic.value.DoubleValue
-52.395

@<SCITEGIC>MOL_PROPERTY
W(PB)
SciTegic.value.DoubleValue
-54.803

@<SCITEGIC>MOL_PROPERTY
W(SA)
SciTegic.value.DoubleValue
2.408

@<SCITEGIC>MOL_PROPERTY
Valence
SciTegic.value.DoubleValue
6.279

@<SCITEGIC>MOL_PROPERTY
Coulomb
SciTegic.value.DoubleValue
45.781

@<SCITEGIC>MOL_PROPERTY
VdW
SciTegic.value.DoubleValue
0.781

@<SCITEGIC>MOL_PROPERTY
VdW6
SciTegic.value.DoubleValue
-10.171

@<SCITEGIC>MOL_PROPERTY
VdW12
SciTegic.value.DoubleValue
10.953

@<SCITEGIC>MOL_PROPERTY
Bond
SciTegic.value.DoubleValue
0.294

@<SCITEGIC>MOL_PROPERTY
Angle
SciTegic.value.DoubleValue
1.613

@<SCITEGIC>MOL_PROPERTY
Pdih
SciTegic.value.DoubleValue
4.372

@<SCITEGIC>MOL_PROPERTY
Idih
SciTegic.value.DoubleValue
0.000

@<SCITEGIC>MOL_PROPERTY
Tether
SciTegic.value.DoubleValue
0.000

@<TRIPOS>MOLECULE
guest-3_vm2.mol2 : vm2 ligand conformer 309
          29          28           1
SMALL
USER_CHARGES
 
@<TRIPOS>ATOM
       1    C1      19.879667   18.091590   20.274501 C.3        1 MOL1        -0.2427
       2    H1      20.929787   18.255433   20.546090 H          1 MOL1         0.0958
       3    H2      19.837910   17.190419   19.649164 H          1 MOL1         0.0958
       4    H3      19.545193   18.940022   19.663516 H          1 MOL1         0.0958
       5    C2      18.988698   17.922712   21.525946 C.3        1 MOL1        -0.1412
       6    H4      19.363986   17.090195   22.137279 H          1 MOL1         0.0947
       7    H5      17.977893   17.636109   21.203664 H          1 MOL1         0.0947
       8    C3      18.888971   19.202907   22.389871 C.3        1 MOL1        -0.1437
       9    H6      18.498940   20.028646   21.779184 H          1 MOL1         0.0947
      10    H7      18.144855   19.024590   23.175754 H          1 MOL1         0.0947
      11    C4      20.238134   19.620735   23.028304 C.3        1 MOL1        -0.1437
      12    H8      20.956183   19.851026   22.230655 H          1 MOL1         0.0947
      13    H9      20.673813   18.782478   23.585768 H          1 MOL1         0.0947
      14    C5      20.132596   20.867903   23.941763 C.3        1 MOL1        -0.1437
      15    H10     21.141224   21.132310   24.288049 H          1 MOL1         0.0947
      16    H11     19.795269   21.719437   23.334889 H          1 MOL1         0.0947
      17    C6      19.200454   20.742901   25.177722 C.3        1 MOL1        -0.1437
      18    H12     18.156061   20.609625   24.866022 H          1 MOL1         0.0947
      19    H13     19.224855   21.707894   25.702631 H          1 MOL1         0.0947
      20    C7      19.603168   19.641026   26.190375 C.3        1 MOL1        -0.1477
      21    H14     20.696929   19.582759   26.268184 H          1 MOL1         0.0947
      22    H15     19.236737   19.930229   27.184381 H          1 MOL1         0.0947
      23    C8      19.017131   18.257340   25.849702 C.3        1 MOL1         0.0145
      24    H16     19.367089   17.928824   24.869400 H          1 MOL1         0.0921
      25    H17     17.926036   18.319515   25.819519 H          1 MOL1         0.0921
      26    N1      19.395182   17.190886   26.856816 N.4        1 MOL1        -0.5969
      27    H18     18.992496   16.278678   26.615507 H          1 MOL1         0.3603
      28    H19     19.065647   17.422854   27.799683 H          1 MOL1         0.3603
      29    H20     20.410951   17.063805   26.914981 H          1 MOL1         0.3603
@<TRIPOS>BOND
    1     1     2    1
    2     1     3    1
    3     1     4    1
    4     1     5    1
    5     5     6    1
    6     5     7    1
    7     5     8    1
    8     8     9    1
    9     8    10    1
   10     8    11    1
   11    11    12    1
   12    11    13    1
   13    11    14    1
   14    14    15    1
   15    14    16    1
   16    14    17    1
   17    17    18    1
   18    17    19    1
   19    17    20    1
   20    20    21    1
   21    20    22    1
   22    20    23    1
   23    23    24    1
   24    23    25    1
   25    23    26    1
   26    26    27    1
   27    26    28    1
   28    26    29    1
@<TRIPOS>SUBSTRUCTURE
       1 MOL1            1 RESIDUE      1      MOL     
@<SCITEGIC>MOL_PROPERTY
VM2 Rank
SciTegic.value.IntegerValue
309

@<SCITEGIC>MOL_PROPERTY
Conf_Id
SciTegic.value.IntegerValue
2270

@<SCITEGIC>MOL_PROPERTY
Probability
SciTegic.value.DoubleValue
0.00

@<SCITEGIC>MOL_PROPERTY
Sum Probability
SciTegic.value.DoubleValue
99.80

@<SCITEGIC>MOL_PROPERTY
Delta G
SciTegic.value.DoubleValue
4.324

@<SCITEGIC>MOL_PROPERTY
G
SciTegic.value.DoubleValue
62.472

@<SCITEGIC>MOL_PROPERTY
E
SciTegic.value.DoubleValue
24.303

@<SCITEGIC>MOL_PROPERTY
-TS
SciTegic.value.DoubleValue
38.169

@<SCITEGIC>MOL_PROPERTY
U+W
SciTegic.value.DoubleValue
0.158

@<SCITEGIC>MOL_PROPERTY
U
SciTegic.value.DoubleValue
52.832

@<SCITEGIC>MOL_PROPERTY
W
SciTegic.value.DoubleValue
-52.674

@<SCITEGIC>MOL_PROPERTY
W(PB)
SciTegic.value.DoubleValue
-55.111

@<SCITEGIC>MOL_PROPERTY
W(SA)
SciTegic.value.DoubleValue
2.438

@<SCITEGIC>MOL_PROPERTY
Valence
SciTegic.value.DoubleValue
6.054

@<SCITEGIC>MOL_PROPERTY
Coulomb
SciTegic.value.DoubleValue
46.265

@<SCITEGIC>MOL_PROPERTY
VdW
SciTegic.value.DoubleValue
0.513

@<SCITEGIC>MOL_PROPERTY
VdW6
SciTegic.value.DoubleValue
-10.690

@<SCITEGIC>MOL_PROPERTY
VdW12
SciTegic.value.DoubleValue
11.203

@<SCITEGIC>MOL_PROPERTY
Bond
SciTegic.value.DoubleValue
0.303

@<SCITEGIC>MOL_PROPERTY
Angle
SciTegic.value.DoubleValue
2.010

@<SCITEGIC>MOL_PROPERTY
Pdih
SciTegic.value.DoubleValue
3.740

@<SCITEGIC>MOL_PROPERTY
Idih
SciTegic.value.DoubleValue
0.000

@<SCITEGIC>MOL_PROPERTY
Tether
SciTegic.value.DoubleValue
0.000

@<TRIPOS>MOLECULE
guest-3_vm2.mol2 : vm2 ligand conformer 310
          29          28           1
SMALL
USER_CHARGES
 
@<TRIPOS>ATOM
       1    C1      20.700108   20.193339   20.981813 C.3        1 MOL1        -0.2427
       2    H1      21.743642   20.462102   20.772929 H          1 MOL1         0.0958
       3    H2      20.098599   20.476117   20.108215 H          1 MOL1         0.0958
       4    H3      20.368734   20.795123   21.837247 H          1 MOL1         0.0958
       5    C2      20.578482   18.680594   21.272977 C.3        1 MOL1        -0.1412
       6    H4      21.172127   18.424936   22.160594 H          1 MOL1         0.0947
       7    H5      21.029358   18.122932   20.440292 H          1 MOL1         0.0947
       8    C3      19.114778   18.202342   21.450609 C.3        1 MOL1        -0.1437
       9    H6      18.577016   18.348577   20.503760 H          1 MOL1         0.0947
      10    H7      19.116340   17.118525   21.630721 H          1 MOL1         0.0947
      11    C4      18.320466   18.900385   22.584760 C.3        1 MOL1        -0.1437
      12    H8      17.302743   18.486650   22.596755 H          1 MOL1         0.0947
      13    H9      18.208894   19.969515   22.360473 H          1 MOL1         0.0947
      14    C5      18.955004   18.722639   23.984714 C.3        1 MOL1        -0.1437
      15    H10     19.099679   17.652557   24.187323 H          1 MOL1         0.0947
      16    H11     19.942423   19.197851   23.991936 H          1 MOL1         0.0947
      17    C6      18.077202   19.349251   25.093714 C.3        1 MOL1        -0.1437
      18    H12     17.049504   18.974741   24.989378 H          1 MOL1         0.0947
      19    H13     18.023161   20.436863   24.946755 H          1 MOL1         0.0947
      20    C7      18.555049   19.047000   26.537002 C.3        1 MOL1        -0.1477
      21    H14     17.818011   19.472178   27.231143 H          1 MOL1         0.0947
      22    H15     18.553226   17.964485   26.721477 H          1 MOL1         0.0947
      23    C8      19.933338   19.641540   26.893212 C.3        1 MOL1         0.0145
      24    H16     20.011278   19.733581   27.979916 H          1 MOL1         0.0921
      25    H17     20.029934   20.640778   26.460230 H          1 MOL1         0.0921
      26    N1      21.109573   18.800909   26.436199 N.4        1 MOL1        -0.5969
      27    H18     21.096375   17.868315   26.862233 H          1 MOL1         0.3603
      28    H19     22.005683   19.232277   26.688430 H          1 MOL1         0.3603
      29    H20     21.110417   18.670162   25.420731 H          1 MOL1         0.3603
@<TRIPOS>BOND
    1     1     2    1
    2     1     3    1
    3     1     4    1
    4     1     5    1
    5     5     6    1
    6     5     7    1
    7     5     8    1
    8     8     9    1
    9     8    10    1
   10     8    11    1
   11    11    12    1
   12    11    13    1
   13    11    14    1
   14    14    15    1
   15    14    16    1
   16    14    17    1
   17    17    18    1
   18    17    19    1
   19    17    20    1
   20    20    21    1
   21    20    22    1
   22    20    23    1
   23    23    24    1
   24    23    25    1
   25    23    26    1
   26    26    27    1
   27    26    28    1
   28    26    29    1
@<TRIPOS>SUBSTRUCTURE
       1 MOL1            1 RESIDUE      1      MOL     
@<SCITEGIC>MOL_PROPERTY
VM2 Rank
SciTegic.value.IntegerValue
310

@<SCITEGIC>MOL_PROPERTY
Conf_Id
SciTegic.value.IntegerValue
1987

@<SCITEGIC>MOL_PROPERTY
Probability
SciTegic.value.DoubleValue
0.00

@<SCITEGIC>MOL_PROPERTY
Sum Probability
SciTegic.value.DoubleValue
99.80

@<SCITEGIC>MOL_PROPERTY
Delta G
SciTegic.value.DoubleValue
4.324

@<SCITEGIC>MOL_PROPERTY
G
SciTegic.value.DoubleValue
62.472

@<SCITEGIC>MOL_PROPERTY
E
SciTegic.value.DoubleValue
24.699

@<SCITEGIC>MOL_PROPERTY
-TS
SciTegic.value.DoubleValue
37.773

@<SCITEGIC>MOL_PROPERTY
U+W
SciTegic.value.DoubleValue
0.554

@<SCITEGIC>MOL_PROPERTY
U
SciTegic.value.DoubleValue
52.871

@<SCITEGIC>MOL_PROPERTY
W
SciTegic.value.DoubleValue
-52.317

@<SCITEGIC>MOL_PROPERTY
W(PB)
SciTegic.value.DoubleValue
-54.753

@<SCITEGIC>MOL_PROPERTY
W(SA)
SciTegic.value.DoubleValue
2.436

@<SCITEGIC>MOL_PROPERTY
Valence
SciTegic.value.DoubleValue
5.127

@<SCITEGIC>MOL_PROPERTY
Coulomb
SciTegic.value.DoubleValue
47.023

@<SCITEGIC>MOL_PROPERTY
VdW
SciTegic.value.DoubleValue
0.721

@<SCITEGIC>MOL_PROPERTY
VdW6
SciTegic.value.DoubleValue
-10.158

@<SCITEGIC>MOL_PROPERTY
VdW12
SciTegic.value.DoubleValue
10.879

@<SCITEGIC>MOL_PROPERTY
Bond
SciTegic.value.DoubleValue
0.284

@<SCITEGIC>MOL_PROPERTY
Angle
SciTegic.value.DoubleValue
1.604

@<SCITEGIC>MOL_PROPERTY
Pdih
SciTegic.value.DoubleValue
3.239

@<SCITEGIC>MOL_PROPERTY
Idih
SciTegic.value.DoubleValue
0.000

@<SCITEGIC>MOL_PROPERTY
Tether
SciTegic.value.DoubleValue
0.000

@<TRIPOS>MOLECULE
guest-3_vm2.mol2 : vm2 ligand conformer 311
          29          28           1
SMALL
USER_CHARGES
 
@<TRIPOS>ATOM
       1    C1      20.341242   18.252546   19.723115 C.3        1 MOL1        -0.2427
       2    H1      20.410842   19.236263   19.240714 H          1 MOL1         0.0958
       3    H2      21.354769   17.935835   20.001850 H          1 MOL1         0.0958
       4    H3      19.957326   17.539915   18.981627 H          1 MOL1         0.0958
       5    C2      19.417162   18.304719   20.958061 C.3        1 MOL1        -0.1412
       6    H4      19.340505   17.300718   21.398453 H          1 MOL1         0.0947
       7    H5      18.403854   18.591192   20.643346 H          1 MOL1         0.0947
       8    C3      19.935239   19.301681   22.017987 C.3        1 MOL1        -0.1437
       9    H6      20.949522   19.013263   22.326450 H          1 MOL1         0.0947
      10    H7      20.011841   20.302940   21.571815 H          1 MOL1         0.0947
      11    C4      19.012034   19.356845   23.255826 C.3        1 MOL1        -0.1437
      12    H8      18.925669   18.351019   23.685008 H          1 MOL1         0.0947
      13    H9      18.000968   19.654372   22.945120 H          1 MOL1         0.0947
      14    C5      19.535674   20.353539   24.317786 C.3        1 MOL1        -0.1437
      15    H10     20.551744   20.082931   24.630075 H          1 MOL1         0.0947
      16    H11     19.625236   21.345799   23.854223 H          1 MOL1         0.0947
      17    C6      18.613650   20.481960   25.556893 C.3        1 MOL1        -0.1437
      18    H12     17.640287   20.874165   25.231357 H          1 MOL1         0.0947
      19    H13     19.032839   21.244989   26.227263 H          1 MOL1         0.0947
      20    C7      18.374493   19.181994   26.371004 C.3        1 MOL1        -0.1477
      21    H14     17.687204   19.425528   27.192018 H          1 MOL1         0.0947
      22    H15     17.854267   18.429273   25.765192 H          1 MOL1         0.0947
      23    C8      19.649614   18.577306   26.994331 C.3        1 MOL1         0.0145
      24    H16     19.368433   17.935308   27.833498 H          1 MOL1         0.0921
      25    H17     20.288009   19.377494   27.378214 H          1 MOL1         0.0921
      26    N1      20.464892   17.727411   26.039997 N.4        1 MOL1        -0.5969
      27    H18     21.322681   17.376974   26.480616 H          1 MOL1         0.3603
      28    H19     20.741318   18.257649   25.208122 H          1 MOL1         0.3603
      29    H20     19.937650   16.909170   25.718155 H          1 MOL1         0.3603
@<TRIPOS>BOND
    1     1     2    1
    2     1     3    1
    3     1     4    1
    4     1     5    1
    5     5     6    1
    6     5     7    1
    7     5     8    1
    8     8     9    1
    9     8    10    1
   10     8    11    1
   11    11    12    1
   12    11    13    1
   13    11    14    1
   14    14    15    1
   15    14    16    1
   16    14    17    1
   17    17    18    1
   18    17    19    1
   19    17    20    1
   20    20    21    1
   21    20    22    1
   22    20    23    1
   23    23    24    1
   24    23    25    1
   25    23    26    1
   26    26    27    1
   27    26    28    1
   28    26    29    1
@<TRIPOS>SUBSTRUCTURE
       1 MOL1            1 RESIDUE      1      MOL     
@<SCITEGIC>MOL_PROPERTY
VM2 Rank
SciTegic.value.IntegerValue
311

@<SCITEGIC>MOL_PROPERTY
Conf_Id
SciTegic.value.IntegerValue
2123

@<SCITEGIC>MOL_PROPERTY
Probability
SciTegic.value.DoubleValue
0.00

@<SCITEGIC>MOL_PROPERTY
Sum Probability
SciTegic.value.DoubleValue
99.80

@<SCITEGIC>MOL_PROPERTY
Delta G
SciTegic.value.DoubleValue
4.334

@<SCITEGIC>MOL_PROPERTY
G
SciTegic.value.DoubleValue
62.482

@<SCITEGIC>MOL_PROPERTY
E
SciTegic.value.DoubleValue
24.523

@<SCITEGIC>MOL_PROPERTY
-TS
SciTegic.value.DoubleValue
37.959

@<SCITEGIC>MOL_PROPERTY
U+W
SciTegic.value.DoubleValue
0.379

@<SCITEGIC>MOL_PROPERTY
U
SciTegic.value.DoubleValue
52.294

@<SCITEGIC>MOL_PROPERTY
W
SciTegic.value.DoubleValue
-51.916

@<SCITEGIC>MOL_PROPERTY
W(PB)
SciTegic.value.DoubleValue
-54.355

@<SCITEGIC>MOL_PROPERTY
W(SA)
SciTegic.value.DoubleValue
2.439

@<SCITEGIC>MOL_PROPERTY
Valence
SciTegic.value.DoubleValue
4.642

@<SCITEGIC>MOL_PROPERTY
Coulomb
SciTegic.value.DoubleValue
47.211

@<SCITEGIC>MOL_PROPERTY
VdW
SciTegic.value.DoubleValue
0.441

@<SCITEGIC>MOL_PROPERTY
VdW6
SciTegic.value.DoubleValue
-9.834

@<SCITEGIC>MOL_PROPERTY
VdW12
SciTegic.value.DoubleValue
10.275

@<SCITEGIC>MOL_PROPERTY
Bond
SciTegic.value.DoubleValue
0.247

@<SCITEGIC>MOL_PROPERTY
Angle
SciTegic.value.DoubleValue
1.461

@<SCITEGIC>MOL_PROPERTY
Pdih
SciTegic.value.DoubleValue
2.934

@<SCITEGIC>MOL_PROPERTY
Idih
SciTegic.value.DoubleValue
0.000

@<SCITEGIC>MOL_PROPERTY
Tether
SciTegic.value.DoubleValue
0.000

@<TRIPOS>MOLECULE
guest-3_vm2.mol2 : vm2 ligand conformer 312
          29          28           1
SMALL
USER_CHARGES
 
@<TRIPOS>ATOM
       1    C1      20.454217   19.702214   20.310827 C.3        1 MOL1        -0.2427
       2    H1      19.667481   19.281579   19.671199 H          1 MOL1         0.0958
       3    H2      21.000728   20.450687   19.722597 H          1 MOL1         0.0958
       4    H3      21.160090   18.900638   20.560980 H          1 MOL1         0.0958
       5    C2      19.852822   20.346534   21.580327 C.3        1 MOL1        -0.1412
       6    H4      19.255677   21.220185   21.283872 H          1 MOL1         0.0947
       7    H5      20.661102   20.729123   22.219044 H          1 MOL1         0.0947
       8    C3      18.953727   19.384782   22.393882 C.3        1 MOL1        -0.1437
       9    H6      18.478835   19.962048   23.196601 H          1 MOL1         0.0947
      10    H7      18.138247   19.016781   21.756328 H          1 MOL1         0.0947
      11    C4      19.725440   18.183064   22.996174 C.3        1 MOL1        -0.1437
      12    H8      20.585116   18.533981   23.580188 H          1 MOL1         0.0947
      13    H9      20.147216   17.582399   22.179975 H          1 MOL1         0.0947
      14    C5      18.842102   17.248795   23.860949 C.3        1 MOL1        -0.1437
      15    H10     18.050875   16.827378   23.225679 H          1 MOL1         0.0947
      16    H11     19.451205   16.392673   24.182204 H          1 MOL1         0.0947
      17    C6      18.181799   17.886052   25.113953 C.3        1 MOL1        -0.1437
      18    H12     17.583083   17.103283   25.599901 H          1 MOL1         0.0947
      19    H13     17.461538   18.661942   24.822583 H          1 MOL1         0.0947
      20    C7      19.176289   18.443783   26.163575 C.3        1 MOL1        -0.1477
      21    H14     18.695647   18.412401   27.150467 H          1 MOL1         0.0947
      22    H15     20.059207   17.794126   26.228106 H          1 MOL1         0.0947
      23    C8      19.602155   19.898362   25.886221 C.3        1 MOL1         0.0145
      24    H16     18.718180   20.541454   25.869270 H          1 MOL1         0.0921
      25    H17     20.094531   19.970069   24.914722 H          1 MOL1         0.0921
      26    N1      20.555450   20.444413   26.929092 N.4        1 MOL1        -0.5969
      27    H18     20.140485   20.435962   27.866714 H          1 MOL1         0.3603
      28    H19     20.823775   21.414353   26.729774 H          1 MOL1         0.3603
      29    H20     21.421749   19.898070   26.977617 H          1 MOL1         0.3603
@<TRIPOS>BOND
    1     1     2    1
    2     1     3    1
    3     1     4    1
    4     1     5    1
    5     5     6    1
    6     5     7    1
    7     5     8    1
    8     8     9    1
    9     8    10    1
   10     8    11    1
   11    11    12    1
   12    11    13    1
   13    11    14    1
   14    14    15    1
   15    14    16    1
   16    14    17    1
   17    17    18    1
   18    17    19    1
   19    17    20    1
   20    20    21    1
   21    20    22    1
   22    20    23    1
   23    23    24    1
   24    23    25    1
   25    23    26    1
   26    26    27    1
   27    26    28    1
   28    26    29    1
@<TRIPOS>SUBSTRUCTURE
       1 MOL1            1 RESIDUE      1      MOL     
@<SCITEGIC>MOL_PROPERTY
VM2 Rank
SciTegic.value.IntegerValue
312

@<SCITEGIC>MOL_PROPERTY
Conf_Id
SciTegic.value.IntegerValue
1928

@<SCITEGIC>MOL_PROPERTY
Probability
SciTegic.value.DoubleValue
0.00

@<SCITEGIC>MOL_PROPERTY
Sum Probability
SciTegic.value.DoubleValue
99.81

@<SCITEGIC>MOL_PROPERTY
Delta G
SciTegic.value.DoubleValue
4.337

@<SCITEGIC>MOL_PROPERTY
G
SciTegic.value.DoubleValue
62.485

@<SCITEGIC>MOL_PROPERTY
E
SciTegic.value.DoubleValue
24.315

@<SCITEGIC>MOL_PROPERTY
-TS
SciTegic.value.DoubleValue
38.169

@<SCITEGIC>MOL_PROPERTY
U+W
SciTegic.value.DoubleValue
0.171

@<SCITEGIC>MOL_PROPERTY
U
SciTegic.value.DoubleValue
52.832

@<SCITEGIC>MOL_PROPERTY
W
SciTegic.value.DoubleValue
-52.661

@<SCITEGIC>MOL_PROPERTY
W(PB)
SciTegic.value.DoubleValue
-55.092

@<SCITEGIC>MOL_PROPERTY
W(SA)
SciTegic.value.DoubleValue
2.430

@<SCITEGIC>MOL_PROPERTY
Valence
SciTegic.value.DoubleValue
6.054

@<SCITEGIC>MOL_PROPERTY
Coulomb
SciTegic.value.DoubleValue
46.265

@<SCITEGIC>MOL_PROPERTY
VdW
SciTegic.value.DoubleValue
0.513

@<SCITEGIC>MOL_PROPERTY
VdW6
SciTegic.value.DoubleValue
-10.690

@<SCITEGIC>MOL_PROPERTY
VdW12
SciTegic.value.DoubleValue
11.204

@<SCITEGIC>MOL_PROPERTY
Bond
SciTegic.value.DoubleValue
0.304

@<SCITEGIC>MOL_PROPERTY
Angle
SciTegic.value.DoubleValue
2.010

@<SCITEGIC>MOL_PROPERTY
Pdih
SciTegic.value.DoubleValue
3.740

@<SCITEGIC>MOL_PROPERTY
Idih
SciTegic.value.DoubleValue
0.000

@<SCITEGIC>MOL_PROPERTY
Tether
SciTegic.value.DoubleValue
0.000

@<TRIPOS>MOLECULE
guest-3_vm2.mol2 : vm2 ligand conformer 313
          29          28           1
SMALL
USER_CHARGES
 
@<TRIPOS>ATOM
       1    C1      19.826768   18.423495   19.843330 C.3        1 MOL1        -0.2427
       2    H1      18.898699   17.879854   20.059454 H          1 MOL1         0.0958
       3    H2      19.564739   19.376083   19.364859 H          1 MOL1         0.0958
       4    H3      20.396196   17.828546   19.117589 H          1 MOL1         0.0958
       5    C2      20.659629   18.655761   21.124275 C.3        1 MOL1        -0.1412
       6    H4      21.628688   19.090790   20.842477 H          1 MOL1         0.0947
       7    H5      20.882544   17.690491   21.599931 H          1 MOL1         0.0947
       8    C3      19.971736   19.594444   22.144525 C.3        1 MOL1        -0.1437
       9    H6      20.677323   19.793005   22.959656 H          1 MOL1         0.0947
      10    H7      19.774762   20.566007   21.670874 H          1 MOL1         0.0947
      11    C4      18.649467   19.019944   22.714660 C.3        1 MOL1        -0.1437
      12    H8      18.800940   17.993190   23.074746 H          1 MOL1         0.0947
      13    H9      17.918824   18.951610   21.897950 H          1 MOL1         0.0947
      14    C5      18.034163   19.893446   23.838882 C.3        1 MOL1        -0.1437
      15    H10     18.315223   20.946672   23.701253 H          1 MOL1         0.0947
      16    H11     16.940630   19.863612   23.735337 H          1 MOL1         0.0947
      17    C6      18.378571   19.431103   25.278198 C.3        1 MOL1        -0.1437
      18    H12     18.000348   18.410883   25.427180 H          1 MOL1         0.0947
      19    H13     17.830369   20.068422   25.985892 H          1 MOL1         0.0947
      20    C7      19.887097   19.485118   25.620183 C.3        1 MOL1        -0.1477
      21    H14     20.439530   18.755124   25.015163 H          1 MOL1         0.0947
      22    H15     20.283109   20.477513   25.367427 H          1 MOL1         0.0947
      23    C8      20.165455   19.213958   27.110982 C.3        1 MOL1         0.0145
      24    H16     19.619011   19.935233   27.724604 H          1 MOL1         0.0921
      25    H17     21.233639   19.336924   27.309426 H          1 MOL1         0.0921
      26    N1      19.771112   17.820731   27.559964 N.4        1 MOL1        -0.5969
      27    H18     18.768593   17.651249   27.431539 H          1 MOL1         0.3603
      28    H19     19.977251   17.668242   28.553343 H          1 MOL1         0.3603
      29    H20     20.271320   17.095964   27.034928 H          1 MOL1         0.3603
@<TRIPOS>BOND
    1     1     2    1
    2     1     3    1
    3     1     4    1
    4     1     5    1
    5     5     6    1
    6     5     7    1
    7     5     8    1
    8     8     9    1
    9     8    10    1
   10     8    11    1
   11    11    12    1
   12    11    13    1
   13    11    14    1
   14    14    15    1
   15    14    16    1
   16    14    17    1
   17    17    18    1
   18    17    19    1
   19    17    20    1
   20    20    21    1
   21    20    22    1
   22    20    23    1
   23    23    24    1
   24    23    25    1
   25    23    26    1
   26    26    27    1
   27    26    28    1
   28    26    29    1
@<TRIPOS>SUBSTRUCTURE
       1 MOL1            1 RESIDUE      1      MOL     
@<SCITEGIC>MOL_PROPERTY
VM2 Rank
SciTegic.value.IntegerValue
313

@<SCITEGIC>MOL_PROPERTY
Conf_Id
SciTegic.value.IntegerValue
2616

@<SCITEGIC>MOL_PROPERTY
Probability
SciTegic.value.DoubleValue
0.00

@<SCITEGIC>MOL_PROPERTY
Sum Probability
SciTegic.value.DoubleValue
99.81

@<SCITEGIC>MOL_PROPERTY
Delta G
SciTegic.value.DoubleValue
4.338

@<SCITEGIC>MOL_PROPERTY
G
SciTegic.value.DoubleValue
62.486

@<SCITEGIC>MOL_PROPERTY
E
SciTegic.value.DoubleValue
24.670

@<SCITEGIC>MOL_PROPERTY
-TS
SciTegic.value.DoubleValue
37.816

@<SCITEGIC>MOL_PROPERTY
U+W
SciTegic.value.DoubleValue
0.525

@<SCITEGIC>MOL_PROPERTY
U
SciTegic.value.DoubleValue
52.653

@<SCITEGIC>MOL_PROPERTY
W
SciTegic.value.DoubleValue
-52.128

@<SCITEGIC>MOL_PROPERTY
W(PB)
SciTegic.value.DoubleValue
-54.567

@<SCITEGIC>MOL_PROPERTY
W(SA)
SciTegic.value.DoubleValue
2.438

@<SCITEGIC>MOL_PROPERTY
Valence
SciTegic.value.DoubleValue
6.239

@<SCITEGIC>MOL_PROPERTY
Coulomb
SciTegic.value.DoubleValue
45.411

@<SCITEGIC>MOL_PROPERTY
VdW
SciTegic.value.DoubleValue
1.003

@<SCITEGIC>MOL_PROPERTY
VdW6
SciTegic.value.DoubleValue
-9.761

@<SCITEGIC>MOL_PROPERTY
VdW12
SciTegic.value.DoubleValue
10.764

@<SCITEGIC>MOL_PROPERTY
Bond
SciTegic.value.DoubleValue
0.289

@<SCITEGIC>MOL_PROPERTY
Angle
SciTegic.value.DoubleValue
1.372

@<SCITEGIC>MOL_PROPERTY
Pdih
SciTegic.value.DoubleValue
4.578

@<SCITEGIC>MOL_PROPERTY
Idih
SciTegic.value.DoubleValue
0.000

@<SCITEGIC>MOL_PROPERTY
Tether
SciTegic.value.DoubleValue
0.000

@<TRIPOS>MOLECULE
guest-3_vm2.mol2 : vm2 ligand conformer 314
          29          28           1
SMALL
USER_CHARGES
 
@<TRIPOS>ATOM
       1    C1      19.349819   18.292672   19.752733 C.3        1 MOL1        -0.2427
       2    H1      19.554817   19.244355   19.245270 H          1 MOL1         0.0958
       3    H2      20.184543   17.609440   19.548655 H          1 MOL1         0.0958
       4    H3      18.444421   17.860912   19.306792 H          1 MOL1         0.0958
       5    C2      19.162720   18.502988   21.270188 C.3        1 MOL1        -0.1412
       6    H4      18.930185   17.539788   21.745392 H          1 MOL1         0.0947
       7    H5      18.296322   19.157091   21.434905 H          1 MOL1         0.0947
       8    C3      20.425737   19.115065   21.920603 C.3        1 MOL1        -0.1437
       9    H6      21.292741   18.485219   21.677906 H          1 MOL1         0.0947
      10    H7      20.628757   20.101113   21.480492 H          1 MOL1         0.0947
      11    C4      20.327473   19.242383   23.460498 C.3        1 MOL1        -0.1437
      12    H8      21.303865   19.571498   23.841301 H          1 MOL1         0.0947
      13    H9      20.147479   18.249029   23.885761 H          1 MOL1         0.0947
      14    C5      19.240007   20.245604   23.924912 C.3        1 MOL1        -0.1437
      15    H10     19.404961   21.193998   23.395154 H          1 MOL1         0.0947
      16    H11     18.240861   19.901163   23.628135 H          1 MOL1         0.0947
      17    C6      19.257432   20.538201   25.448248 C.3        1 MOL1        -0.1437
      18    H12     18.852279   21.548369   25.599279 H          1 MOL1         0.0947
      19    H13     20.290100   20.581411   25.818994 H          1 MOL1         0.0947
      20    C7      18.404820   19.569305   26.310407 C.3        1 MOL1        -0.1477
      21    H14     18.388515   19.936352   27.345209 H          1 MOL1         0.0947
      22    H15     17.363300   19.598714   25.963876 H          1 MOL1         0.0947
      23    C8      18.880233   18.104056   26.317410 C.3        1 MOL1         0.0145
      24    H16     18.824391   17.691281   25.307875 H          1 MOL1         0.0921
      25    H17     18.219905   17.513384   26.958124 H          1 MOL1         0.0921
      26    N1      20.295758   17.927726   26.830002 N.4        1 MOL1        -0.5969
      27    H18     20.969462   18.444416   26.256466 H          1 MOL1         0.3603
      28    H19     20.583257   16.942989   26.826057 H          1 MOL1         0.3603
      29    H20     20.394477   18.265514   27.793002 H          1 MOL1         0.3603
@<TRIPOS>BOND
    1     1     2    1
    2     1     3    1
    3     1     4    1
    4     1     5    1
    5     5     6    1
    6     5     7    1
    7     5     8    1
    8     8     9    1
    9     8    10    1
   10     8    11    1
   11    11    12    1
   12    11    13    1
   13    11    14    1
   14    14    15    1
   15    14    16    1
   16    14    17    1
   17    17    18    1
   18    17    19    1
   19    17    20    1
   20    20    21    1
   21    20    22    1
   22    20    23    1
   23    23    24    1
   24    23    25    1
   25    23    26    1
   26    26    27    1
   27    26    28    1
   28    26    29    1
@<TRIPOS>SUBSTRUCTURE
       1 MOL1            1 RESIDUE      1      MOL     
@<SCITEGIC>MOL_PROPERTY
VM2 Rank
SciTegic.value.IntegerValue
314

@<SCITEGIC>MOL_PROPERTY
Conf_Id
SciTegic.value.IntegerValue
2617

@<SCITEGIC>MOL_PROPERTY
Probability
SciTegic.value.DoubleValue
0.00

@<SCITEGIC>MOL_PROPERTY
Sum Probability
SciTegic.value.DoubleValue
99.82

@<SCITEGIC>MOL_PROPERTY
Delta G
SciTegic.value.DoubleValue
4.346

@<SCITEGIC>MOL_PROPERTY
G
SciTegic.value.DoubleValue
62.494

@<SCITEGIC>MOL_PROPERTY
E
SciTegic.value.DoubleValue
24.714

@<SCITEGIC>MOL_PROPERTY
-TS
SciTegic.value.DoubleValue
37.779

@<SCITEGIC>MOL_PROPERTY
U+W
SciTegic.value.DoubleValue
0.570

@<SCITEGIC>MOL_PROPERTY
U
SciTegic.value.DoubleValue
53.002

@<SCITEGIC>MOL_PROPERTY
W
SciTegic.value.DoubleValue
-52.433

@<SCITEGIC>MOL_PROPERTY
W(PB)
SciTegic.value.DoubleValue
-54.859

@<SCITEGIC>MOL_PROPERTY
W(SA)
SciTegic.value.DoubleValue
2.426

@<SCITEGIC>MOL_PROPERTY
Valence
SciTegic.value.DoubleValue
5.790

@<SCITEGIC>MOL_PROPERTY
Coulomb
SciTegic.value.DoubleValue
46.543

@<SCITEGIC>MOL_PROPERTY
VdW
SciTegic.value.DoubleValue
0.669

@<SCITEGIC>MOL_PROPERTY
VdW6
SciTegic.value.DoubleValue
-10.153

@<SCITEGIC>MOL_PROPERTY
VdW12
SciTegic.value.DoubleValue
10.822

@<SCITEGIC>MOL_PROPERTY
Bond
SciTegic.value.DoubleValue
0.297

@<SCITEGIC>MOL_PROPERTY
Angle
SciTegic.value.DoubleValue
1.684

@<SCITEGIC>MOL_PROPERTY
Pdih
SciTegic.value.DoubleValue
3.809

@<SCITEGIC>MOL_PROPERTY
Idih
SciTegic.value.DoubleValue
0.000

@<SCITEGIC>MOL_PROPERTY
Tether
SciTegic.value.DoubleValue
0.000

@<TRIPOS>MOLECULE
guest-3_vm2.mol2 : vm2 ligand conformer 315
          29          28           1
SMALL
USER_CHARGES
 
@<TRIPOS>ATOM
       1    C1      20.895892   19.353126   20.567544 C.3        1 MOL1        -0.2427
       2    H1      21.071275   18.271770   20.498715 H          1 MOL1         0.0958
       3    H2      21.469586   19.838136   19.767239 H          1 MOL1         0.0958
       4    H3      21.297323   19.712634   21.523115 H          1 MOL1         0.0958
       5    C2      19.393606   19.683269   20.430774 C.3        1 MOL1        -0.1412
       6    H4      19.073042   19.448397   19.406189 H          1 MOL1         0.0947
       7    H5      19.245717   20.765061   20.555426 H          1 MOL1         0.0947
       8    C3      18.479192   18.917165   21.420503 C.3        1 MOL1        -0.1437
       9    H6      17.440548   19.193758   21.192299 H          1 MOL1         0.0947
      10    H7      18.544857   17.835965   21.236552 H          1 MOL1         0.0947
      11    C4      18.744206   19.225994   22.917077 C.3        1 MOL1        -0.1437
      12    H8      17.779152   19.226623   23.440517 H          1 MOL1         0.0947
      13    H9      19.151488   20.240554   23.025081 H          1 MOL1         0.0947
      14    C5      19.676312   18.192674   23.600400 C.3        1 MOL1        -0.1437
      15    H10     19.193473   17.205793   23.598573 H          1 MOL1         0.0947
      16    H11     20.598019   18.078425   23.017733 H          1 MOL1         0.0947
      17    C6      20.062223   18.575798   25.049987 C.3        1 MOL1        -0.1437
      18    H12     20.570710   19.549160   25.043310 H          1 MOL1         0.0947
      19    H13     20.795323   17.845543   25.419875 H          1 MOL1         0.0947
      20    C7      18.855805   18.613255   26.020878 C.3        1 MOL1        -0.1477
      21    H14     18.157471   19.409927   25.734864 H          1 MOL1         0.0947
      22    H15     18.302196   17.667580   25.950408 H          1 MOL1         0.0947
      23    C8      19.283116   18.820607   27.486465 C.3        1 MOL1         0.0145
      24    H16     19.978044   18.030234   27.782700 H          1 MOL1         0.0921
      25    H17     18.403460   18.761867   28.133209 H          1 MOL1         0.0921
      26    N1      19.953648   20.156112   27.741372 N.4        1 MOL1        -0.5969
      27    H18     20.809380   20.261950   27.187507 H          1 MOL1         0.3603
      28    H19     20.217009   20.268064   28.726599 H          1 MOL1         0.3603
      29    H20     19.339165   20.941732   27.503851 H          1 MOL1         0.3603
@<TRIPOS>BOND
    1     1     2    1
    2     1     3    1
    3     1     4    1
    4     1     5    1
    5     5     6    1
    6     5     7    1
    7     5     8    1
    8     8     9    1
    9     8    10    1
   10     8    11    1
   11    11    12    1
   12    11    13    1
   13    11    14    1
   14    14    15    1
   15    14    16    1
   16    14    17    1
   17    17    18    1
   18    17    19    1
   19    17    20    1
   20    20    21    1
   21    20    22    1
   22    20    23    1
   23    23    24    1
   24    23    25    1
   25    23    26    1
   26    26    27    1
   27    26    28    1
   28    26    29    1
@<TRIPOS>SUBSTRUCTURE
       1 MOL1            1 RESIDUE      1      MOL     
@<SCITEGIC>MOL_PROPERTY
VM2 Rank
SciTegic.value.IntegerValue
315

@<SCITEGIC>MOL_PROPERTY
Conf_Id
SciTegic.value.IntegerValue
1335

@<SCITEGIC>MOL_PROPERTY
Probability
SciTegic.value.DoubleValue
0.00

@<SCITEGIC>MOL_PROPERTY
Sum Probability
SciTegic.value.DoubleValue
99.82

@<SCITEGIC>MOL_PROPERTY
Delta G
SciTegic.value.DoubleValue
4.357

@<SCITEGIC>MOL_PROPERTY
G
SciTegic.value.DoubleValue
62.505

@<SCITEGIC>MOL_PROPERTY
E
SciTegic.value.DoubleValue
24.712

@<SCITEGIC>MOL_PROPERTY
-TS
SciTegic.value.DoubleValue
37.793

@<SCITEGIC>MOL_PROPERTY
U+W
SciTegic.value.DoubleValue
0.567

@<SCITEGIC>MOL_PROPERTY
U
SciTegic.value.DoubleValue
52.514

@<SCITEGIC>MOL_PROPERTY
W
SciTegic.value.DoubleValue
-51.947

@<SCITEGIC>MOL_PROPERTY
W(PB)
SciTegic.value.DoubleValue
-54.383

@<SCITEGIC>MOL_PROPERTY
W(SA)
SciTegic.value.DoubleValue
2.436

@<SCITEGIC>MOL_PROPERTY
Valence
SciTegic.value.DoubleValue
6.227

@<SCITEGIC>MOL_PROPERTY
Coulomb
SciTegic.value.DoubleValue
45.243

@<SCITEGIC>MOL_PROPERTY
VdW
SciTegic.value.DoubleValue
1.045

@<SCITEGIC>MOL_PROPERTY
VdW6
SciTegic.value.DoubleValue
-9.693

@<SCITEGIC>MOL_PROPERTY
VdW12
SciTegic.value.DoubleValue
10.738

@<SCITEGIC>MOL_PROPERTY
Bond
SciTegic.value.DoubleValue
0.292

@<SCITEGIC>MOL_PROPERTY
Angle
SciTegic.value.DoubleValue
1.377

@<SCITEGIC>MOL_PROPERTY
Pdih
SciTegic.value.DoubleValue
4.558

@<SCITEGIC>MOL_PROPERTY
Idih
SciTegic.value.DoubleValue
0.000

@<SCITEGIC>MOL_PROPERTY
Tether
SciTegic.value.DoubleValue
0.000

@<TRIPOS>MOLECULE
guest-3_vm2.mol2 : vm2 ligand conformer 316
          29          28           1
SMALL
USER_CHARGES
 
@<TRIPOS>ATOM
       1    C1      20.482450   20.080176   20.506046 C.3        1 MOL1        -0.2427
       2    H1      21.382714   19.461246   20.612213 H          1 MOL1         0.0958
       3    H2      20.632598   20.747030   19.647203 H          1 MOL1         0.0958
       4    H3      20.384380   20.711120   21.398139 H          1 MOL1         0.0958
       5    C2      19.227075   19.205554   20.297102 C.3        1 MOL1        -0.1412
       6    H4      19.301334   18.710466   19.318800 H          1 MOL1         0.0947
       7    H5      18.338646   19.850291   20.245179 H          1 MOL1         0.0947
       8    C3      19.017548   18.120078   21.383611 C.3        1 MOL1        -0.1437
       9    H6      18.132059   17.534843   21.099391 H          1 MOL1         0.0947
      10    H7      19.856322   17.410463   21.376026 H          1 MOL1         0.0947
      11    C4      18.792763   18.673098   22.815063 C.3        1 MOL1        -0.1437
      12    H8      18.059612   18.028381   23.316989 H          1 MOL1         0.0947
      13    H9      18.338479   19.672100   22.764897 H          1 MOL1         0.0947
      14    C5      20.086846   18.708762   23.668223 C.3        1 MOL1        -0.1437
      15    H10     20.451710   17.684234   23.824111 H          1 MOL1         0.0947
      16    H11     20.879874   19.230737   23.119797 H          1 MOL1         0.0947
      17    C6      19.905806   19.406148   25.038860 C.3        1 MOL1        -0.1437
      18    H12     19.555114   20.435791   24.883155 H          1 MOL1         0.0947
      19    H13     20.892214   19.484830   25.514592 H          1 MOL1         0.0947
      20    C7      18.933960   18.662549   25.989133 C.3        1 MOL1        -0.1477
      21    H14     17.934083   18.620633   25.539693 H          1 MOL1         0.0947
      22    H15     19.262024   17.623606   26.126002 H          1 MOL1         0.0947
      23    C8      18.807820   19.347187   27.363787 C.3        1 MOL1         0.0145
      24    H16     18.040134   18.838032   27.952812 H          1 MOL1         0.0921
      25    H17     18.500722   20.387953   27.230059 H          1 MOL1         0.0921
      26    N1      20.089733   19.334447   28.173173 N.4        1 MOL1        -0.5969
      27    H18     20.846854   19.830383   27.692585 H          1 MOL1         0.3603
      28    H19     20.417630   18.379426   28.351234 H          1 MOL1         0.3603
      29    H20     19.967616   19.785001   29.086775 H          1 MOL1         0.3603
@<TRIPOS>BOND
    1     1     2    1
    2     1     3    1
    3     1     4    1
    4     1     5    1
    5     5     6    1
    6     5     7    1
    7     5     8    1
    8     8     9    1
    9     8    10    1
   10     8    11    1
   11    11    12    1
   12    11    13    1
   13    11    14    1
   14    14    15    1
   15    14    16    1
   16    14    17    1
   17    17    18    1
   18    17    19    1
   19    17    20    1
   20    20    21    1
   21    20    22    1
   22    20    23    1
   23    23    24    1
   24    23    25    1
   25    23    26    1
   26    26    27    1
   27    26    28    1
   28    26    29    1
@<TRIPOS>SUBSTRUCTURE
       1 MOL1            1 RESIDUE      1      MOL     
@<SCITEGIC>MOL_PROPERTY
VM2 Rank
SciTegic.value.IntegerValue
316

@<SCITEGIC>MOL_PROPERTY
Conf_Id
SciTegic.value.IntegerValue
989

@<SCITEGIC>MOL_PROPERTY
Probability
SciTegic.value.DoubleValue
0.00

@<SCITEGIC>MOL_PROPERTY
Sum Probability
SciTegic.value.DoubleValue
99.82

@<SCITEGIC>MOL_PROPERTY
Delta G
SciTegic.value.DoubleValue
4.362

@<SCITEGIC>MOL_PROPERTY
G
SciTegic.value.DoubleValue
62.510

@<SCITEGIC>MOL_PROPERTY
E
SciTegic.value.DoubleValue
24.743

@<SCITEGIC>MOL_PROPERTY
-TS
SciTegic.value.DoubleValue
37.767

@<SCITEGIC>MOL_PROPERTY
U+W
SciTegic.value.DoubleValue
0.599

@<SCITEGIC>MOL_PROPERTY
U
SciTegic.value.DoubleValue
52.368

@<SCITEGIC>MOL_PROPERTY
W
SciTegic.value.DoubleValue
-51.769

@<SCITEGIC>MOL_PROPERTY
W(PB)
SciTegic.value.DoubleValue
-54.214

@<SCITEGIC>MOL_PROPERTY
W(SA)
SciTegic.value.DoubleValue
2.445

@<SCITEGIC>MOL_PROPERTY
Valence
SciTegic.value.DoubleValue
6.262

@<SCITEGIC>MOL_PROPERTY
Coulomb
SciTegic.value.DoubleValue
45.003

@<SCITEGIC>MOL_PROPERTY
VdW
SciTegic.value.DoubleValue
1.103

@<SCITEGIC>MOL_PROPERTY
VdW6
SciTegic.value.DoubleValue
-9.650

@<SCITEGIC>MOL_PROPERTY
VdW12
SciTegic.value.DoubleValue
10.753

@<SCITEGIC>MOL_PROPERTY
Bond
SciTegic.value.DoubleValue
0.297

@<SCITEGIC>MOL_PROPERTY
Angle
SciTegic.value.DoubleValue
1.421

@<SCITEGIC>MOL_PROPERTY
Pdih
SciTegic.value.DoubleValue
4.544

@<SCITEGIC>MOL_PROPERTY
Idih
SciTegic.value.DoubleValue
0.000

@<SCITEGIC>MOL_PROPERTY
Tether
SciTegic.value.DoubleValue
0.000

@<TRIPOS>MOLECULE
guest-3_vm2.mol2 : vm2 ligand conformer 317
          29          28           1
SMALL
USER_CHARGES
 
@<TRIPOS>ATOM
       1    C1      20.000651   18.180878   19.905944 C.3        1 MOL1        -0.2427
       2    H1      19.849092   17.119531   19.670182 H          1 MOL1         0.0958
       3    H2      19.340245   18.768670   19.255078 H          1 MOL1         0.0958
       4    H3      21.039571   18.435451   19.658866 H          1 MOL1         0.0958
       5    C2      19.699944   18.456519   21.394481 C.3        1 MOL1        -0.1412
       6    H4      20.357848   17.838312   22.021011 H          1 MOL1         0.0947
       7    H5      18.666897   18.152305   21.605043 H          1 MOL1         0.0947
       8    C3      19.887646   19.949135   21.747210 C.3        1 MOL1        -0.1437
       9    H6      20.860895   20.284915   21.363375 H          1 MOL1         0.0947
      10    H7      19.130589   20.546114   21.220344 H          1 MOL1         0.0947
      11    C4      19.835007   20.267220   23.263972 C.3        1 MOL1        -0.1437
      12    H8      20.033661   21.342133   23.374947 H          1 MOL1         0.0947
      13    H9      20.663860   19.768366   23.779727 H          1 MOL1         0.0947
      14    C5      18.477726   19.965071   23.957485 C.3        1 MOL1        -0.1437
      15    H10     18.325996   20.702255   24.757167 H          1 MOL1         0.0947
      16    H11     17.659573   20.143914   23.246455 H          1 MOL1         0.0947
      17    C6      18.325344   18.542880   24.567587 C.3        1 MOL1        -0.1437
      18    H12     18.364143   17.783036   23.779365 H          1 MOL1         0.0947
      19    H13     17.318944   18.463120   25.001290 H          1 MOL1         0.0947
      20    C7      19.359213   18.176511   25.662326 C.3        1 MOL1        -0.1477
      21    H14     19.109658   17.185267   26.063553 H          1 MOL1         0.0947
      22    H15     20.359895   18.082541   25.222945 H          1 MOL1         0.0947
      23    C8      19.393138   19.191639   26.819671 C.3        1 MOL1         0.0145
      24    H16     18.397970   19.276095   27.264424 H          1 MOL1         0.0921
      25    H17     19.686182   20.173929   26.439958 H          1 MOL1         0.0921
      26    N1      20.365331   18.808148   27.916323 N.4        1 MOL1        -0.5969
      27    H18     20.129475   17.902705   28.335804 H          1 MOL1         0.3603
      28    H19     20.372703   19.496922   28.676670 H          1 MOL1         0.3603
      29    H20     21.326749   18.738107   27.566906 H          1 MOL1         0.3603
@<TRIPOS>BOND
    1     1     2    1
    2     1     3    1
    3     1     4    1
    4     1     5    1
    5     5     6    1
    6     5     7    1
    7     5     8    1
    8     8     9    1
    9     8    10    1
   10     8    11    1
   11    11    12    1
   12    11    13    1
   13    11    14    1
   14    14    15    1
   15    14    16    1
   16    14    17    1
   17    17    18    1
   18    17    19    1
   19    17    20    1
   20    20    21    1
   21    20    22    1
   22    20    23    1
   23    23    24    1
   24    23    25    1
   25    23    26    1
   26    26    27    1
   27    26    28    1
   28    26    29    1
@<TRIPOS>SUBSTRUCTURE
       1 MOL1            1 RESIDUE      1      MOL     
@<SCITEGIC>MOL_PROPERTY
VM2 Rank
SciTegic.value.IntegerValue
317

@<SCITEGIC>MOL_PROPERTY
Conf_Id
SciTegic.value.IntegerValue
2286

@<SCITEGIC>MOL_PROPERTY
Probability
SciTegic.value.DoubleValue
0.00

@<SCITEGIC>MOL_PROPERTY
Sum Probability
SciTegic.value.DoubleValue
99.83

@<SCITEGIC>MOL_PROPERTY
Delta G
SciTegic.value.DoubleValue
4.378

@<SCITEGIC>MOL_PROPERTY
G
SciTegic.value.DoubleValue
62.526

@<SCITEGIC>MOL_PROPERTY
E
SciTegic.value.DoubleValue
25.144

@<SCITEGIC>MOL_PROPERTY
-TS
SciTegic.value.DoubleValue
37.382

@<SCITEGIC>MOL_PROPERTY
U+W
SciTegic.value.DoubleValue
1.000

@<SCITEGIC>MOL_PROPERTY
U
SciTegic.value.DoubleValue
53.178

@<SCITEGIC>MOL_PROPERTY
W
SciTegic.value.DoubleValue
-52.179

@<SCITEGIC>MOL_PROPERTY
W(PB)
SciTegic.value.DoubleValue
-54.627

@<SCITEGIC>MOL_PROPERTY
W(SA)
SciTegic.value.DoubleValue
2.449

@<SCITEGIC>MOL_PROPERTY
Valence
SciTegic.value.DoubleValue
6.655

@<SCITEGIC>MOL_PROPERTY
Coulomb
SciTegic.value.DoubleValue
45.658

@<SCITEGIC>MOL_PROPERTY
VdW
SciTegic.value.DoubleValue
0.864

@<SCITEGIC>MOL_PROPERTY
VdW6
SciTegic.value.DoubleValue
-10.083

@<SCITEGIC>MOL_PROPERTY
VdW12
SciTegic.value.DoubleValue
10.947

@<SCITEGIC>MOL_PROPERTY
Bond
SciTegic.value.DoubleValue
0.343

@<SCITEGIC>MOL_PROPERTY
Angle
SciTegic.value.DoubleValue
2.219

@<SCITEGIC>MOL_PROPERTY
Pdih
SciTegic.value.DoubleValue
4.094

@<SCITEGIC>MOL_PROPERTY
Idih
SciTegic.value.DoubleValue
0.000

@<SCITEGIC>MOL_PROPERTY
Tether
SciTegic.value.DoubleValue
0.000

@<TRIPOS>MOLECULE
guest-3_vm2.mol2 : vm2 ligand conformer 318
          29          28           1
SMALL
USER_CHARGES
 
@<TRIPOS>ATOM
       1    C1      19.923973   19.901765   19.788522 C.3        1 MOL1        -0.2427
       2    H1      21.005447   19.910452   19.599964 H          1 MOL1         0.0958
       3    H2      19.488064   19.055898   19.241040 H          1 MOL1         0.0958
       4    H3      19.502139   20.825969   19.372676 H          1 MOL1         0.0958
       5    C2      19.624528   19.797550   21.298945 C.3        1 MOL1        -0.1412
       6    H4      18.537503   19.833044   21.449763 H          1 MOL1         0.0947
       7    H5      20.046903   20.670975   21.815060 H          1 MOL1         0.0947
       8    C3      20.206306   18.499556   21.906926 C.3        1 MOL1        -0.1437
       9    H6      19.746156   17.625754   21.425328 H          1 MOL1         0.0947
      10    H7      21.279576   18.448014   21.677278 H          1 MOL1         0.0947
      11    C4      20.027737   18.402373   23.441789 C.3        1 MOL1        -0.1437
      12    H8      20.510750   19.267719   23.908556 H          1 MOL1         0.0947
      13    H9      20.570126   17.515052   23.795546 H          1 MOL1         0.0947
      14    C5      18.544397   18.296093   23.881248 C.3        1 MOL1        -0.1437
      15    H10     17.992952   19.206433   23.612543 H          1 MOL1         0.0947
      16    H11     18.079612   17.479308   23.311914 H          1 MOL1         0.0947
      17    C6      18.351052   17.998264   25.391340 C.3        1 MOL1        -0.1437
      18    H12     19.117898   17.296627   25.745431 H          1 MOL1         0.0947
      19    H13     17.395998   17.467499   25.507780 H          1 MOL1         0.0947
      20    C7      18.291829   19.252772   26.303332 C.3        1 MOL1        -0.1477
      21    H14     17.471835   19.902889   25.970665 H          1 MOL1         0.0947
      22    H15     18.032195   18.938123   27.322836 H          1 MOL1         0.0947
      23    C8      19.587003   20.084709   26.361916 C.3        1 MOL1         0.0145
      24    H16     19.440455   20.933828   27.034940 H          1 MOL1         0.0921
      25    H17     19.819329   20.479423   25.370509 H          1 MOL1         0.0921
      26    N1      20.787175   19.304918   26.860982 N.4        1 MOL1        -0.5969
      27    H18     20.636174   18.942950   27.808291 H          1 MOL1         0.3603
      28    H19     21.632958   19.884623   26.892127 H          1 MOL1         0.3603
      29    H20     20.989918   18.501845   26.257856 H          1 MOL1         0.3603
@<TRIPOS>BOND
    1     1     2    1
    2     1     3    1
    3     1     4    1
    4     1     5    1
    5     5     6    1
    6     5     7    1
    7     5     8    1
    8     8     9    1
    9     8    10    1
   10     8    11    1
   11    11    12    1
   12    11    13    1
   13    11    14    1
   14    14    15    1
   15    14    16    1
   16    14    17    1
   17    17    18    1
   18    17    19    1
   19    17    20    1
   20    20    21    1
   21    20    22    1
   22    20    23    1
   23    23    24    1
   24    23    25    1
   25    23    26    1
   26    26    27    1
   27    26    28    1
   28    26    29    1
@<TRIPOS>SUBSTRUCTURE
       1 MOL1            1 RESIDUE      1      MOL     
@<SCITEGIC>MOL_PROPERTY
VM2 Rank
SciTegic.value.IntegerValue
318

@<SCITEGIC>MOL_PROPERTY
Conf_Id
SciTegic.value.IntegerValue
2235

@<SCITEGIC>MOL_PROPERTY
Probability
SciTegic.value.DoubleValue
0.00

@<SCITEGIC>MOL_PROPERTY
Sum Probability
SciTegic.value.DoubleValue
99.83

@<SCITEGIC>MOL_PROPERTY
Delta G
SciTegic.value.DoubleValue
4.389

@<SCITEGIC>MOL_PROPERTY
G
SciTegic.value.DoubleValue
62.537

@<SCITEGIC>MOL_PROPERTY
E
SciTegic.value.DoubleValue
24.758

@<SCITEGIC>MOL_PROPERTY
-TS
SciTegic.value.DoubleValue
37.779

@<SCITEGIC>MOL_PROPERTY
U+W
SciTegic.value.DoubleValue
0.614

@<SCITEGIC>MOL_PROPERTY
U
SciTegic.value.DoubleValue
53.002

@<SCITEGIC>MOL_PROPERTY
W
SciTegic.value.DoubleValue
-52.389

@<SCITEGIC>MOL_PROPERTY
W(PB)
SciTegic.value.DoubleValue
-54.841

@<SCITEGIC>MOL_PROPERTY
W(SA)
SciTegic.value.DoubleValue
2.453

@<SCITEGIC>MOL_PROPERTY
Valence
SciTegic.value.DoubleValue
5.790

@<SCITEGIC>MOL_PROPERTY
Coulomb
SciTegic.value.DoubleValue
46.543

@<SCITEGIC>MOL_PROPERTY
VdW
SciTegic.value.DoubleValue
0.669

@<SCITEGIC>MOL_PROPERTY
VdW6
SciTegic.value.DoubleValue
-10.153

@<SCITEGIC>MOL_PROPERTY
VdW12
SciTegic.value.DoubleValue
10.822

@<SCITEGIC>MOL_PROPERTY
Bond
SciTegic.value.DoubleValue
0.297

@<SCITEGIC>MOL_PROPERTY
Angle
SciTegic.value.DoubleValue
1.685

@<SCITEGIC>MOL_PROPERTY
Pdih
SciTegic.value.DoubleValue
3.808

@<SCITEGIC>MOL_PROPERTY
Idih
SciTegic.value.DoubleValue
0.000

@<SCITEGIC>MOL_PROPERTY
Tether
SciTegic.value.DoubleValue
0.000

@<TRIPOS>MOLECULE
guest-3_vm2.mol2 : vm2 ligand conformer 319
          29          28           1
SMALL
USER_CHARGES
 
@<TRIPOS>ATOM
       1    C1      19.246959   19.067657   19.688853 C.3        1 MOL1        -0.2427
       2    H1      20.294872   18.975118   19.375271 H          1 MOL1         0.0958
       3    H2      18.615533   18.758326   18.845926 H          1 MOL1         0.0958
       4    H3      19.038606   20.126631   19.885721 H          1 MOL1         0.0958
       5    C2      18.959071   18.192714   20.929815 C.3        1 MOL1        -0.1412
       6    H4      19.064339   17.135249   20.649779 H          1 MOL1         0.0947
       7    H5      17.913537   18.325848   21.240971 H          1 MOL1         0.0947
       8    C3      19.900543   18.486890   22.122392 C.3        1 MOL1        -0.1437
       9    H6      19.701899   17.749365   22.908970 H          1 MOL1         0.0947
      10    H7      20.942319   18.325843   21.812767 H          1 MOL1         0.0947
      11    C4      19.746105   19.921848   22.688640 C.3        1 MOL1        -0.1437
      12    H8      18.687634   20.149918   22.874299 H          1 MOL1         0.0947
      13    H9      20.081831   20.635669   21.924869 H          1 MOL1         0.0947
      14    C5      20.577508   20.165303   23.975047 C.3        1 MOL1        -0.1437
      15    H10     21.459786   19.510585   23.988617 H          1 MOL1         0.0947
      16    H11     20.971269   21.190533   23.939108 H          1 MOL1         0.0947
      17    C6      19.782708   20.017238   25.298249 C.3        1 MOL1        -0.1437
      18    H12     18.965817   20.751934   25.316141 H          1 MOL1         0.0947
      19    H13     20.452033   20.284183   26.126576 H          1 MOL1         0.0947
      20    C7      19.203973   18.601685   25.539324 C.3        1 MOL1        -0.1477
      21    H14     18.470631   18.368175   24.757459 H          1 MOL1         0.0947
      22    H15     20.000966   17.849955   25.466477 H          1 MOL1         0.0947
      23    C8      18.497536   18.472361   26.902565 C.3        1 MOL1         0.0145
      24    H16     18.020309   17.491008   26.971318 H          1 MOL1         0.0921
      25    H17     17.720214   19.236400   26.988592 H          1 MOL1         0.0921
      26    N1      19.429598   18.612305   28.090114 N.4        1 MOL1        -0.5969
      27    H18     18.930413   18.507402   28.980268 H          1 MOL1         0.3603
      28    H19     19.886125   19.529574   28.108215 H          1 MOL1         0.3603
      29    H20     20.171300   17.904522   28.077020 H          1 MOL1         0.3603
@<TRIPOS>BOND
    1     1     2    1
    2     1     3    1
    3     1     4    1
    4     1     5    1
    5     5     6    1
    6     5     7    1
    7     5     8    1
    8     8     9    1
    9     8    10    1
   10     8    11    1
   11    11    12    1
   12    11    13    1
   13    11    14    1
   14    14    15    1
   15    14    16    1
   16    14    17    1
   17    17    18    1
   18    17    19    1
   19    17    20    1
   20    20    21    1
   21    20    22    1
   22    20    23    1
   23    23    24    1
   24    23    25    1
   25    23    26    1
   26    26    27    1
   27    26    28    1
   28    26    29    1
@<TRIPOS>SUBSTRUCTURE
       1 MOL1            1 RESIDUE      1      MOL     
@<SCITEGIC>MOL_PROPERTY
VM2 Rank
SciTegic.value.IntegerValue
319

@<SCITEGIC>MOL_PROPERTY
Conf_Id
SciTegic.value.IntegerValue
1332

@<SCITEGIC>MOL_PROPERTY
Probability
SciTegic.value.DoubleValue
0.00

@<SCITEGIC>MOL_PROPERTY
Sum Probability
SciTegic.value.DoubleValue
99.83

@<SCITEGIC>MOL_PROPERTY
Delta G
SciTegic.value.DoubleValue
4.394

@<SCITEGIC>MOL_PROPERTY
G
SciTegic.value.DoubleValue
62.542

@<SCITEGIC>MOL_PROPERTY
E
SciTegic.value.DoubleValue
24.728

@<SCITEGIC>MOL_PROPERTY
-TS
SciTegic.value.DoubleValue
37.814

@<SCITEGIC>MOL_PROPERTY
U+W
SciTegic.value.DoubleValue
0.583

@<SCITEGIC>MOL_PROPERTY
U
SciTegic.value.DoubleValue
52.521

@<SCITEGIC>MOL_PROPERTY
W
SciTegic.value.DoubleValue
-51.938

@<SCITEGIC>MOL_PROPERTY
W(PB)
SciTegic.value.DoubleValue
-54.382

@<SCITEGIC>MOL_PROPERTY
W(SA)
SciTegic.value.DoubleValue
2.444

@<SCITEGIC>MOL_PROPERTY
Valence
SciTegic.value.DoubleValue
6.295

@<SCITEGIC>MOL_PROPERTY
Coulomb
SciTegic.value.DoubleValue
45.163

@<SCITEGIC>MOL_PROPERTY
VdW
SciTegic.value.DoubleValue
1.063

@<SCITEGIC>MOL_PROPERTY
VdW6
SciTegic.value.DoubleValue
-9.724

@<SCITEGIC>MOL_PROPERTY
VdW12
SciTegic.value.DoubleValue
10.787

@<SCITEGIC>MOL_PROPERTY
Bond
SciTegic.value.DoubleValue
0.294

@<SCITEGIC>MOL_PROPERTY
Angle
SciTegic.value.DoubleValue
1.414

@<SCITEGIC>MOL_PROPERTY
Pdih
SciTegic.value.DoubleValue
4.588

@<SCITEGIC>MOL_PROPERTY
Idih
SciTegic.value.DoubleValue
0.000

@<SCITEGIC>MOL_PROPERTY
Tether
SciTegic.value.DoubleValue
0.000

@<TRIPOS>MOLECULE
guest-3_vm2.mol2 : vm2 ligand conformer 320
          29          28           1
SMALL
USER_CHARGES
 
@<TRIPOS>ATOM
       1    C1      20.905823   18.467105   20.898402 C.3        1 MOL1        -0.2427
       2    H1      20.331543   17.556209   21.107255 H          1 MOL1         0.0958
       3    H2      21.536243   18.263543   20.023204 H          1 MOL1         0.0958
       4    H3      21.567898   18.667011   21.750818 H          1 MOL1         0.0958
       5    C2      19.973093   19.666717   20.624225 C.3        1 MOL1        -0.1412
       6    H4      19.278712   19.410999   19.811751 H          1 MOL1         0.0947
       7    H5      20.578590   20.505801   20.254069 H          1 MOL1         0.0947
       8    C3      19.172828   20.146817   21.861662 C.3        1 MOL1        -0.1437
       9    H6      19.864723   20.500078   22.635894 H          1 MOL1         0.0947
      10    H7      18.595818   21.030969   21.557500 H          1 MOL1         0.0947
      11    C4      18.179634   19.099786   22.436139 C.3        1 MOL1        -0.1437
      12    H8      17.833023   18.444539   21.625298 H          1 MOL1         0.0947
      13    H9      17.281711   19.621645   22.794676 H          1 MOL1         0.0947
      14    C5      18.735996   18.234729   23.597220 C.3        1 MOL1        -0.1437
      15    H10     18.038926   17.403719   23.772245 H          1 MOL1         0.0947
      16    H11     19.690680   17.777068   23.312329 H          1 MOL1         0.0947
      17    C6      18.910745   19.021546   24.918948 C.3        1 MOL1        -0.1437
      18    H12     17.953702   19.482257   25.200300 H          1 MOL1         0.0947
      19    H13     19.626931   19.839394   24.774809 H          1 MOL1         0.0947
      20    C7      19.396777   18.106542   26.067805 C.3        1 MOL1        -0.1477
      21    H14     18.693630   17.272052   26.190838 H          1 MOL1         0.0947
      22    H15     20.367759   17.662899   25.810185 H          1 MOL1         0.0947
      23    C8      19.511055   18.849162   27.412996 C.3        1 MOL1         0.0145
      24    H16     19.774176   18.136567   28.199449 H          1 MOL1         0.0921
      25    H17     18.547717   19.298792   27.668340 H          1 MOL1         0.0921
      26    N1      20.558048   19.945597   27.417603 N.4        1 MOL1        -0.5969
      27    H18     20.617950   20.410698   28.330127 H          1 MOL1         0.3603
      28    H19     20.350616   20.670716   26.723825 H          1 MOL1         0.3603
      29    H20     21.492256   19.580258   27.205323 H          1 MOL1         0.3603
@<TRIPOS>BOND
    1     1     2    1
    2     1     3    1
    3     1     4    1
    4     1     5    1
    5     5     6    1
    6     5     7    1
    7     5     8    1
    8     8     9    1
    9     8    10    1
   10     8    11    1
   11    11    12    1
   12    11    13    1
   13    11    14    1
   14    14    15    1
   15    14    16    1
   16    14    17    1
   17    17    18    1
   18    17    19    1
   19    17    20    1
   20    20    21    1
   21    20    22    1
   22    20    23    1
   23    23    24    1
   24    23    25    1
   25    23    26    1
   26    26    27    1
   27    26    28    1
   28    26    29    1
@<TRIPOS>SUBSTRUCTURE
       1 MOL1            1 RESIDUE      1      MOL     
@<SCITEGIC>MOL_PROPERTY
VM2 Rank
SciTegic.value.IntegerValue
320

@<SCITEGIC>MOL_PROPERTY
Conf_Id
SciTegic.value.IntegerValue
2612

@<SCITEGIC>MOL_PROPERTY
Probability
SciTegic.value.DoubleValue
0.00

@<SCITEGIC>MOL_PROPERTY
Sum Probability
SciTegic.value.DoubleValue
99.84

@<SCITEGIC>MOL_PROPERTY
Delta G
SciTegic.value.DoubleValue
4.412

@<SCITEGIC>MOL_PROPERTY
G
SciTegic.value.DoubleValue
62.560

@<SCITEGIC>MOL_PROPERTY
E
SciTegic.value.DoubleValue
24.883

@<SCITEGIC>MOL_PROPERTY
-TS
SciTegic.value.DoubleValue
37.677

@<SCITEGIC>MOL_PROPERTY
U+W
SciTegic.value.DoubleValue
0.739

@<SCITEGIC>MOL_PROPERTY
U
SciTegic.value.DoubleValue
52.951

@<SCITEGIC>MOL_PROPERTY
W
SciTegic.value.DoubleValue
-52.212

@<SCITEGIC>MOL_PROPERTY
W(PB)
SciTegic.value.DoubleValue
-54.646

@<SCITEGIC>MOL_PROPERTY
W(SA)
SciTegic.value.DoubleValue
2.434

@<SCITEGIC>MOL_PROPERTY
Valence
SciTegic.value.DoubleValue
6.394

@<SCITEGIC>MOL_PROPERTY
Coulomb
SciTegic.value.DoubleValue
45.524

@<SCITEGIC>MOL_PROPERTY
VdW
SciTegic.value.DoubleValue
1.033

@<SCITEGIC>MOL_PROPERTY
VdW6
SciTegic.value.DoubleValue
-9.609

@<SCITEGIC>MOL_PROPERTY
VdW12
SciTegic.value.DoubleValue
10.641

@<SCITEGIC>MOL_PROPERTY
Bond
SciTegic.value.DoubleValue
0.304

@<SCITEGIC>MOL_PROPERTY
Angle
SciTegic.value.DoubleValue
1.489

@<SCITEGIC>MOL_PROPERTY
Pdih
SciTegic.value.DoubleValue
4.601

@<SCITEGIC>MOL_PROPERTY
Idih
SciTegic.value.DoubleValue
0.000

@<SCITEGIC>MOL_PROPERTY
Tether
SciTegic.value.DoubleValue
0.000

@<TRIPOS>MOLECULE
guest-3_vm2.mol2 : vm2 ligand conformer 321
          29          28           1
SMALL
USER_CHARGES
 
@<TRIPOS>ATOM
       1    C1      20.696762   20.469342   20.789001 C.3        1 MOL1        -0.2427
       2    H1      20.897579   21.540569   20.919983 H          1 MOL1         0.0958
       3    H2      21.649489   19.933047   20.888527 H          1 MOL1         0.0958
       4    H3      20.324620   20.318792   19.767207 H          1 MOL1         0.0958
       5    C2      19.671738   19.975627   21.831649 C.3        1 MOL1        -0.1412
       6    H4      18.742531   20.552797   21.726882 H          1 MOL1         0.0947
       7    H5      20.058599   20.183297   22.835737 H          1 MOL1         0.0947
       8    C3      19.368647   18.467492   21.661863 C.3        1 MOL1        -0.1437
       9    H6      18.997395   18.309350   20.639826 H          1 MOL1         0.0947
      10    H7      20.293892   17.880513   21.741405 H          1 MOL1         0.0947
      11    C4      18.305688   17.925269   22.653401 C.3        1 MOL1        -0.1437
      12    H8      17.724247   17.153154   22.130830 H          1 MOL1         0.0947
      13    H9      17.579453   18.708363   22.907240 H          1 MOL1         0.0947
      14    C5      18.883889   17.269339   23.936658 C.3        1 MOL1        -0.1437
      15    H10     18.055623   16.828126   24.508045 H          1 MOL1         0.0947
      16    H11     19.523340   16.425583   23.642824 H          1 MOL1         0.0947
      17    C6      19.692784   18.198876   24.875069 C.3        1 MOL1        -0.1437
      18    H12     20.570687   18.592279   24.347362 H          1 MOL1         0.0947
      19    H13     20.088414   17.587288   25.696641 H          1 MOL1         0.0947
      20    C7      18.853311   19.359305   25.466297 C.3        1 MOL1        -0.1477
      21    H14     18.437068   19.971742   24.657518 H          1 MOL1         0.0947
      22    H15     17.997578   18.956197   26.023870 H          1 MOL1         0.0947
      23    C8      19.678814   20.279762   26.385475 C.3        1 MOL1         0.0145
      24    H16     19.060900   21.124422   26.702112 H          1 MOL1         0.0921
      25    H17     20.538726   20.672881   25.836500 H          1 MOL1         0.0921
      26    N1      20.192367   19.592987   27.635588 N.4        1 MOL1        -0.5969
      27    H18     19.426524   19.220638   28.206619 H          1 MOL1         0.3603
      28    H19     20.725932   20.235604   28.231291 H          1 MOL1         0.3603
      29    H20     20.811554   18.808260   27.409886 H          1 MOL1         0.3603
@<TRIPOS>BOND
    1     1     2    1
    2     1     3    1
    3     1     4    1
    4     1     5    1
    5     5     6    1
    6     5     7    1
    7     5     8    1
    8     8     9    1
    9     8    10    1
   10     8    11    1
   11    11    12    1
   12    11    13    1
   13    11    14    1
   14    14    15    1
   15    14    16    1
   16    14    17    1
   17    17    18    1
   18    17    19    1
   19    17    20    1
   20    20    21    1
   21    20    22    1
   22    20    23    1
   23    23    24    1
   24    23    25    1
   25    23    26    1
   26    26    27    1
   27    26    28    1
   28    26    29    1
@<TRIPOS>SUBSTRUCTURE
       1 MOL1            1 RESIDUE      1      MOL     
@<SCITEGIC>MOL_PROPERTY
VM2 Rank
SciTegic.value.IntegerValue
321

@<SCITEGIC>MOL_PROPERTY
Conf_Id
SciTegic.value.IntegerValue
1978

@<SCITEGIC>MOL_PROPERTY
Probability
SciTegic.value.DoubleValue
0.00

@<SCITEGIC>MOL_PROPERTY
Sum Probability
SciTegic.value.DoubleValue
99.84

@<SCITEGIC>MOL_PROPERTY
Delta G
SciTegic.value.DoubleValue
4.414

@<SCITEGIC>MOL_PROPERTY
G
SciTegic.value.DoubleValue
62.562

@<SCITEGIC>MOL_PROPERTY
E
SciTegic.value.DoubleValue
24.429

@<SCITEGIC>MOL_PROPERTY
-TS
SciTegic.value.DoubleValue
38.133

@<SCITEGIC>MOL_PROPERTY
U+W
SciTegic.value.DoubleValue
0.285

@<SCITEGIC>MOL_PROPERTY
U
SciTegic.value.DoubleValue
52.641

@<SCITEGIC>MOL_PROPERTY
W
SciTegic.value.DoubleValue
-52.357

@<SCITEGIC>MOL_PROPERTY
W(PB)
SciTegic.value.DoubleValue
-54.772

@<SCITEGIC>MOL_PROPERTY
W(SA)
SciTegic.value.DoubleValue
2.416

@<SCITEGIC>MOL_PROPERTY
Valence
SciTegic.value.DoubleValue
6.340

@<SCITEGIC>MOL_PROPERTY
Coulomb
SciTegic.value.DoubleValue
45.688

@<SCITEGIC>MOL_PROPERTY
VdW
SciTegic.value.DoubleValue
0.614

@<SCITEGIC>MOL_PROPERTY
VdW6
SciTegic.value.DoubleValue
-10.365

@<SCITEGIC>MOL_PROPERTY
VdW12
SciTegic.value.DoubleValue
10.979

@<SCITEGIC>MOL_PROPERTY
Bond
SciTegic.value.DoubleValue
0.304

@<SCITEGIC>MOL_PROPERTY
Angle
SciTegic.value.DoubleValue
1.852

@<SCITEGIC>MOL_PROPERTY
Pdih
SciTegic.value.DoubleValue
4.183

@<SCITEGIC>MOL_PROPERTY
Idih
SciTegic.value.DoubleValue
0.000

@<SCITEGIC>MOL_PROPERTY
Tether
SciTegic.value.DoubleValue
0.000

@<TRIPOS>MOLECULE
guest-3_vm2.mol2 : vm2 ligand conformer 322
          29          28           1
SMALL
USER_CHARGES
 
@<TRIPOS>ATOM
       1    C1      20.696514   17.855611   20.511627 C.3        1 MOL1        -0.2427
       2    H1      21.552742   17.670429   21.173264 H          1 MOL1         0.0958
       3    H2      20.404314   16.897615   20.062311 H          1 MOL1         0.0958
       4    H3      21.026759   18.520402   19.702786 H          1 MOL1         0.0958
       5    C2      19.517107   18.473958   21.291509 C.3        1 MOL1        -0.1412
       6    H4      19.185315   17.766523   22.060730 H          1 MOL1         0.0947
       7    H5      18.666720   18.614694   20.609789 H          1 MOL1         0.0947
       8    C3      19.902701   19.832471   21.924876 C.3        1 MOL1        -0.1437
       9    H6      20.791561   19.720903   22.560729 H          1 MOL1         0.0947
      10    H7      20.194190   20.515216   21.114756 H          1 MOL1         0.0947
      11    C4      18.750428   20.489642   22.728633 C.3        1 MOL1        -0.1437
      12    H8      17.777318   20.190451   22.315523 H          1 MOL1         0.0947
      13    H9      18.810634   21.577254   22.584253 H          1 MOL1         0.0947
      14    C5      18.788685   20.220178   24.254912 C.3        1 MOL1        -0.1437
      15    H10     19.726393   20.618133   24.665247 H          1 MOL1         0.0947
      16    H11     17.979638   20.795224   24.726052 H          1 MOL1         0.0947
      17    C6      18.636063   18.728987   24.641932 C.3        1 MOL1        -0.1437
      18    H12     19.507746   18.161175   24.293507 H          1 MOL1         0.0947
      19    H13     17.761904   18.309099   24.125726 H          1 MOL1         0.0947
      20    C7      18.460104   18.514019   26.165923 C.3        1 MOL1        -0.1477
      21    H14     17.535863   19.006168   26.496688 H          1 MOL1         0.0947
      22    H15     18.326065   17.443221   26.368909 H          1 MOL1         0.0947
      23    C8      19.634006   19.046124   27.012568 C.3        1 MOL1         0.0145
      24    H16     19.419565   18.885341   28.072579 H          1 MOL1         0.0921
      25    H17     19.750688   20.120506   26.848802 H          1 MOL1         0.0921
      26    N1      20.958392   18.377009   26.703019 N.4        1 MOL1        -0.5969
      27    H18     21.717630   18.747447   27.285085 H          1 MOL1         0.3603
      28    H19     21.231084   18.516527   25.725107 H          1 MOL1         0.3603
      29    H20     20.920297   17.365662   26.867053 H          1 MOL1         0.3603
@<TRIPOS>BOND
    1     1     2    1
    2     1     3    1
    3     1     4    1
    4     1     5    1
    5     5     6    1
    6     5     7    1
    7     5     8    1
    8     8     9    1
    9     8    10    1
   10     8    11    1
   11    11    12    1
   12    11    13    1
   13    11    14    1
   14    14    15    1
   15    14    16    1
   16    14    17    1
   17    17    18    1
   18    17    19    1
   19    17    20    1
   20    20    21    1
   21    20    22    1
   22    20    23    1
   23    23    24    1
   24    23    25    1
   25    23    26    1
   26    26    27    1
   27    26    28    1
   28    26    29    1
@<TRIPOS>SUBSTRUCTURE
       1 MOL1            1 RESIDUE      1      MOL     
@<SCITEGIC>MOL_PROPERTY
VM2 Rank
SciTegic.value.IntegerValue
322

@<SCITEGIC>MOL_PROPERTY
Conf_Id
SciTegic.value.IntegerValue
1686

@<SCITEGIC>MOL_PROPERTY
Probability
SciTegic.value.DoubleValue
0.00

@<SCITEGIC>MOL_PROPERTY
Sum Probability
SciTegic.value.DoubleValue
99.84

@<SCITEGIC>MOL_PROPERTY
Delta G
SciTegic.value.DoubleValue
4.432

@<SCITEGIC>MOL_PROPERTY
G
SciTegic.value.DoubleValue
62.580

@<SCITEGIC>MOL_PROPERTY
E
SciTegic.value.DoubleValue
24.726

@<SCITEGIC>MOL_PROPERTY
-TS
SciTegic.value.DoubleValue
37.854

@<SCITEGIC>MOL_PROPERTY
U+W
SciTegic.value.DoubleValue
0.582

@<SCITEGIC>MOL_PROPERTY
U
SciTegic.value.DoubleValue
52.923

@<SCITEGIC>MOL_PROPERTY
W
SciTegic.value.DoubleValue
-52.342

@<SCITEGIC>MOL_PROPERTY
W(PB)
SciTegic.value.DoubleValue
-54.773

@<SCITEGIC>MOL_PROPERTY
W(SA)
SciTegic.value.DoubleValue
2.432

@<SCITEGIC>MOL_PROPERTY
Valence
SciTegic.value.DoubleValue
5.967

@<SCITEGIC>MOL_PROPERTY
Coulomb
SciTegic.value.DoubleValue
46.185

@<SCITEGIC>MOL_PROPERTY
VdW
SciTegic.value.DoubleValue
0.771

@<SCITEGIC>MOL_PROPERTY
VdW6
SciTegic.value.DoubleValue
-10.004

@<SCITEGIC>MOL_PROPERTY
VdW12
SciTegic.value.DoubleValue
10.775

@<SCITEGIC>MOL_PROPERTY
Bond
SciTegic.value.DoubleValue
0.276

@<SCITEGIC>MOL_PROPERTY
Angle
SciTegic.value.DoubleValue
1.354

@<SCITEGIC>MOL_PROPERTY
Pdih
SciTegic.value.DoubleValue
4.338

@<SCITEGIC>MOL_PROPERTY
Idih
SciTegic.value.DoubleValue
0.000

@<SCITEGIC>MOL_PROPERTY
Tether
SciTegic.value.DoubleValue
0.000

@<TRIPOS>MOLECULE
guest-3_vm2.mol2 : vm2 ligand conformer 323
          29          28           1
SMALL
USER_CHARGES
 
@<TRIPOS>ATOM
       1    C1      20.870328   19.257319   20.677464 C.3        1 MOL1        -0.2427
       2    H1      21.422620   19.374563   19.736152 H          1 MOL1         0.0958
       3    H2      21.336450   19.912284   21.424907 H          1 MOL1         0.0958
       4    H3      20.991110   18.216037   21.000374 H          1 MOL1         0.0958
       5    C2      19.381044   19.612362   20.477026 C.3        1 MOL1        -0.1412
       6    H4      18.926513   18.897832   19.776656 H          1 MOL1         0.0947
       7    H5      19.316133   20.596527   19.992349 H          1 MOL1         0.0947
       8    C3      18.554501   19.654872   21.787457 C.3        1 MOL1        -0.1437
       9    H6      18.943908   20.440922   22.445862 H          1 MOL1         0.0947
      10    H7      17.535760   19.970658   21.523594 H          1 MOL1         0.0947
      11    C4      18.457368   18.297315   22.535974 C.3        1 MOL1        -0.1437
      12    H8      18.520133   17.476009   21.809018 H          1 MOL1         0.0947
      13    H9      17.459647   18.212180   22.988116 H          1 MOL1         0.0947
      14    C5      19.516021   18.083736   23.649400 C.3        1 MOL1        -0.1437
      15    H10     19.483603   17.029824   23.958223 H          1 MOL1         0.0947
      16    H11     20.525491   18.255716   23.257776 H          1 MOL1         0.0947
      17    C6      19.283260   18.971804   24.895873 C.3        1 MOL1        -0.1437
      18    H12     18.265401   18.805569   25.272736 H          1 MOL1         0.0947
      19    H13     19.352540   20.032696   24.623555 H          1 MOL1         0.0947
      20    C7      20.311205   18.669526   26.011736 C.3        1 MOL1        -0.1477
      21    H14     20.229593   17.620228   26.325222 H          1 MOL1         0.0947
      22    H15     21.326875   18.800213   25.615109 H          1 MOL1         0.0947
      23    C8      20.145012   19.586915   27.238406 C.3        1 MOL1         0.0145
      24    H16     20.220287   20.632824   26.928902 H          1 MOL1         0.0921
      25    H17     20.946225   19.384305   27.954326 H          1 MOL1         0.0921
      26    N1      18.825261   19.404151   27.961666 N.4        1 MOL1        -0.5969
      27    H18     18.027562   19.613888   27.353453 H          1 MOL1         0.3603
      28    H19     18.750527   20.019713   28.779027 H          1 MOL1         0.3603
      29    H20     18.705908   18.442987   28.298124 H          1 MOL1         0.3603
@<TRIPOS>BOND
    1     1     2    1
    2     1     3    1
    3     1     4    1
    4     1     5    1
    5     5     6    1
    6     5     7    1
    7     5     8    1
    8     8     9    1
    9     8    10    1
   10     8    11    1
   11    11    12    1
   12    11    13    1
   13    11    14    1
   14    14    15    1
   15    14    16    1
   16    14    17    1
   17    17    18    1
   18    17    19    1
   19    17    20    1
   20    20    21    1
   21    20    22    1
   22    20    23    1
   23    23    24    1
   24    23    25    1
   25    23    26    1
   26    26    27    1
   27    26    28    1
   28    26    29    1
@<TRIPOS>SUBSTRUCTURE
       1 MOL1            1 RESIDUE      1      MOL     
@<SCITEGIC>MOL_PROPERTY
VM2 Rank
SciTegic.value.IntegerValue
323

@<SCITEGIC>MOL_PROPERTY
Conf_Id
SciTegic.value.IntegerValue
2011

@<SCITEGIC>MOL_PROPERTY
Probability
SciTegic.value.DoubleValue
0.00

@<SCITEGIC>MOL_PROPERTY
Sum Probability
SciTegic.value.DoubleValue
99.85

@<SCITEGIC>MOL_PROPERTY
Delta G
SciTegic.value.DoubleValue
4.437

@<SCITEGIC>MOL_PROPERTY
G
SciTegic.value.DoubleValue
62.585

@<SCITEGIC>MOL_PROPERTY
E
SciTegic.value.DoubleValue
24.910

@<SCITEGIC>MOL_PROPERTY
-TS
SciTegic.value.DoubleValue
37.675

@<SCITEGIC>MOL_PROPERTY
U+W
SciTegic.value.DoubleValue
0.765

@<SCITEGIC>MOL_PROPERTY
U
SciTegic.value.DoubleValue
52.622

@<SCITEGIC>MOL_PROPERTY
W
SciTegic.value.DoubleValue
-51.857

@<SCITEGIC>MOL_PROPERTY
W(PB)
SciTegic.value.DoubleValue
-54.288

@<SCITEGIC>MOL_PROPERTY
W(SA)
SciTegic.value.DoubleValue
2.430

@<SCITEGIC>MOL_PROPERTY
Valence
SciTegic.value.DoubleValue
6.392

@<SCITEGIC>MOL_PROPERTY
Coulomb
SciTegic.value.DoubleValue
45.185

@<SCITEGIC>MOL_PROPERTY
VdW
SciTegic.value.DoubleValue
1.045

@<SCITEGIC>MOL_PROPERTY
VdW6
SciTegic.value.DoubleValue
-9.593

@<SCITEGIC>MOL_PROPERTY
VdW12
SciTegic.value.DoubleValue
10.638

@<SCITEGIC>MOL_PROPERTY
Bond
SciTegic.value.DoubleValue
0.303

@<SCITEGIC>MOL_PROPERTY
Angle
SciTegic.value.DoubleValue
1.505

@<SCITEGIC>MOL_PROPERTY
Pdih
SciTegic.value.DoubleValue
4.584

@<SCITEGIC>MOL_PROPERTY
Idih
SciTegic.value.DoubleValue
0.000

@<SCITEGIC>MOL_PROPERTY
Tether
SciTegic.value.DoubleValue
0.000

@<TRIPOS>MOLECULE
guest-3_vm2.mol2 : vm2 ligand conformer 324
          29          28           1
SMALL
USER_CHARGES
 
@<TRIPOS>ATOM
       1    C1      21.232354   19.359178   20.545268 C.3        1 MOL1        -0.2427
       2    H1      21.617799   20.303012   20.138286 H          1 MOL1         0.0958
       3    H2      22.003449   18.935222   21.201662 H          1 MOL1         0.0958
       4    H3      21.079507   18.667864   19.706248 H          1 MOL1         0.0958
       5    C2      19.916682   19.595280   21.316526 C.3        1 MOL1        -0.1412
       6    H4      19.178522   20.050811   20.641756 H          1 MOL1         0.0947
       7    H5      20.095863   20.322082   22.117716 H          1 MOL1         0.0947
       8    C3      19.347783   18.275170   21.890166 C.3        1 MOL1        -0.1437
       9    H6      19.153544   17.594575   21.049652 H          1 MOL1         0.0947
      10    H7      20.097972   17.774550   22.517401 H          1 MOL1         0.0947
      11    C4      18.028267   18.463145   22.683376 C.3        1 MOL1        -0.1437
      12    H8      17.389456   17.589151   22.495160 H          1 MOL1         0.0947
      13    H9      17.469333   19.326161   22.296189 H          1 MOL1         0.0947
      14    C5      18.206618   18.587041   24.218448 C.3        1 MOL1        -0.1437
      15    H10     17.209649   18.634849   24.677767 H          1 MOL1         0.0947
      16    H11     18.675687   17.670065   24.599456 H          1 MOL1         0.0947
      17    C6      19.025568   19.822125   24.666347 C.3        1 MOL1        -0.1437
      18    H12     18.621034   20.720092   24.179586 H          1 MOL1         0.0947
      19    H13     20.064726   19.724303   24.328378 H          1 MOL1         0.0947
      20    C7      19.003685   20.039339   26.199990 C.3        1 MOL1        -0.1477
      21    H14     19.573887   20.944656   26.447071 H          1 MOL1         0.0947
      22    H15     17.971890   20.229653   26.524056 H          1 MOL1         0.0947
      23    C8      19.564851   18.851976   27.008230 C.3        1 MOL1         0.0145
      24    H16     18.978342   17.953320   26.800493 H          1 MOL1         0.0921
      25    H17     19.485496   19.070013   28.076698 H          1 MOL1         0.0921
      26    N1      21.018193   18.544747   26.706651 N.4        1 MOL1        -0.5969
      27    H18     21.154963   18.303069   25.720232 H          1 MOL1         0.3603
      28    H19     21.364021   17.755103   27.262829 H          1 MOL1         0.3603
      29    H20     21.625731   19.344939   26.911036 H          1 MOL1         0.3603
@<TRIPOS>BOND
    1     1     2    1
    2     1     3    1
    3     1     4    1
    4     1     5    1
    5     5     6    1
    6     5     7    1
    7     5     8    1
    8     8     9    1
    9     8    10    1
   10     8    11    1
   11    11    12    1
   12    11    13    1
   13    11    14    1
   14    14    15    1
   15    14    16    1
   16    14    17    1
   17    17    18    1
   18    17    19    1
   19    17    20    1
   20    20    21    1
   21    20    22    1
   22    20    23    1
   23    23    24    1
   24    23    25    1
   25    23    26    1
   26    26    27    1
   27    26    28    1
   28    26    29    1
@<TRIPOS>SUBSTRUCTURE
       1 MOL1            1 RESIDUE      1      MOL     
@<SCITEGIC>MOL_PROPERTY
VM2 Rank
SciTegic.value.IntegerValue
324

@<SCITEGIC>MOL_PROPERTY
Conf_Id
SciTegic.value.IntegerValue
1981

@<SCITEGIC>MOL_PROPERTY
Probability
SciTegic.value.DoubleValue
0.00

@<SCITEGIC>MOL_PROPERTY
Sum Probability
SciTegic.value.DoubleValue
99.85

@<SCITEGIC>MOL_PROPERTY
Delta G
SciTegic.value.DoubleValue
4.437

@<SCITEGIC>MOL_PROPERTY
G
SciTegic.value.DoubleValue
62.585

@<SCITEGIC>MOL_PROPERTY
E
SciTegic.value.DoubleValue
24.731

@<SCITEGIC>MOL_PROPERTY
-TS
SciTegic.value.DoubleValue
37.854

@<SCITEGIC>MOL_PROPERTY
U+W
SciTegic.value.DoubleValue
0.587

@<SCITEGIC>MOL_PROPERTY
U
SciTegic.value.DoubleValue
52.923

@<SCITEGIC>MOL_PROPERTY
W
SciTegic.value.DoubleValue
-52.337

@<SCITEGIC>MOL_PROPERTY
W(PB)
SciTegic.value.DoubleValue
-54.761

@<SCITEGIC>MOL_PROPERTY
W(SA)
SciTegic.value.DoubleValue
2.424

@<SCITEGIC>MOL_PROPERTY
Valence
SciTegic.value.DoubleValue
5.968

@<SCITEGIC>MOL_PROPERTY
Coulomb
SciTegic.value.DoubleValue
46.185

@<SCITEGIC>MOL_PROPERTY
VdW
SciTegic.value.DoubleValue
0.771

@<SCITEGIC>MOL_PROPERTY
VdW6
SciTegic.value.DoubleValue
-10.004

@<SCITEGIC>MOL_PROPERTY
VdW12
SciTegic.value.DoubleValue
10.775

@<SCITEGIC>MOL_PROPERTY
Bond
SciTegic.value.DoubleValue
0.276

@<SCITEGIC>MOL_PROPERTY
Angle
SciTegic.value.DoubleValue
1.354

@<SCITEGIC>MOL_PROPERTY
Pdih
SciTegic.value.DoubleValue
4.338

@<SCITEGIC>MOL_PROPERTY
Idih
SciTegic.value.DoubleValue
0.000

@<SCITEGIC>MOL_PROPERTY
Tether
SciTegic.value.DoubleValue
0.000

@<TRIPOS>MOLECULE
guest-3_vm2.mol2 : vm2 ligand conformer 325
          29          28           1
SMALL
USER_CHARGES
 
@<TRIPOS>ATOM
       1    C1      19.613372   17.330856   21.433644 C.3        1 MOL1        -0.2427
       2    H1      20.200593   17.311444   22.359465 H          1 MOL1         0.0958
       3    H2      18.968967   16.442320   21.430385 H          1 MOL1         0.0958
       4    H3      20.307738   17.244898   20.587853 H          1 MOL1         0.0958
       5    C2      18.763175   18.616949   21.321747 C.3        1 MOL1        -0.1412
       6    H4      18.058128   18.682803   22.159968 H          1 MOL1         0.0947
       7    H5      18.142525   18.547494   20.417565 H          1 MOL1         0.0947
       8    C3      19.613062   19.907985   21.233989 C.3        1 MOL1        -0.1437
       9    H6      20.243332   19.850446   20.335904 H          1 MOL1         0.0947
      10    H7      18.941535   20.762056   21.070701 H          1 MOL1         0.0947
      11    C4      20.522179   20.211539   22.455514 C.3        1 MOL1        -0.1437
      12    H8      21.109191   21.106283   22.206329 H          1 MOL1         0.0947
      13    H9      21.261427   19.412563   22.598737 H          1 MOL1         0.0947
      14    C5      19.763649   20.497981   23.778251 C.3        1 MOL1        -0.1437
      15    H10     20.324721   21.259223   24.337851 H          1 MOL1         0.0947
      16    H11     18.782969   20.943232   23.561470 H          1 MOL1         0.0947
      17    C6      19.603094   19.256177   24.688601 C.3        1 MOL1        -0.1437
      18    H12     20.595233   18.838650   24.905258 H          1 MOL1         0.0947
      19    H13     19.036978   18.473086   24.171824 H          1 MOL1         0.0947
      20    C7      18.883443   19.607836   26.011912 C.3        1 MOL1        -0.1477
      21    H14     19.459551   20.360947   26.565877 H          1 MOL1         0.0947
      22    H15     17.909407   20.061875   25.785973 H          1 MOL1         0.0947
      23    C8      18.650988   18.376310   26.908145 C.3        1 MOL1         0.0145
      24    H16     18.082688   17.621998   26.357296 H          1 MOL1         0.0921
      25    H17     18.067440   18.670498   27.784765 H          1 MOL1         0.0921
      26    N1      19.931037   17.732368   27.403196 N.4        1 MOL1        -0.5969
      27    H18     20.499584   18.387714   27.949612 H          1 MOL1         0.3603
      28    H19     20.512540   17.399585   26.627805 H          1 MOL1         0.3603
      29    H20     19.742057   16.924137   28.006208 H          1 MOL1         0.3603
@<TRIPOS>BOND
    1     1     2    1
    2     1     3    1
    3     1     4    1
    4     1     5    1
    5     5     6    1
    6     5     7    1
    7     5     8    1
    8     8     9    1
    9     8    10    1
   10     8    11    1
   11    11    12    1
   12    11    13    1
   13    11    14    1
   14    14    15    1
   15    14    16    1
   16    14    17    1
   17    17    18    1
   18    17    19    1
   19    17    20    1
   20    20    21    1
   21    20    22    1
   22    20    23    1
   23    23    24    1
   24    23    25    1
   25    23    26    1
   26    26    27    1
   27    26    28    1
   28    26    29    1
@<TRIPOS>SUBSTRUCTURE
       1 MOL1            1 RESIDUE      1      MOL     
@<SCITEGIC>MOL_PROPERTY
VM2 Rank
SciTegic.value.IntegerValue
325

@<SCITEGIC>MOL_PROPERTY
Conf_Id
SciTegic.value.IntegerValue
351

@<SCITEGIC>MOL_PROPERTY
Probability
SciTegic.value.DoubleValue
0.00

@<SCITEGIC>MOL_PROPERTY
Sum Probability
SciTegic.value.DoubleValue
99.85

@<SCITEGIC>MOL_PROPERTY
Delta G
SciTegic.value.DoubleValue
4.448

@<SCITEGIC>MOL_PROPERTY
G
SciTegic.value.DoubleValue
62.596

@<SCITEGIC>MOL_PROPERTY
E
SciTegic.value.DoubleValue
24.491

@<SCITEGIC>MOL_PROPERTY
-TS
SciTegic.value.DoubleValue
38.104

@<SCITEGIC>MOL_PROPERTY
U+W
SciTegic.value.DoubleValue
0.347

@<SCITEGIC>MOL_PROPERTY
U
SciTegic.value.DoubleValue
52.599

@<SCITEGIC>MOL_PROPERTY
W
SciTegic.value.DoubleValue
-52.252

@<SCITEGIC>MOL_PROPERTY
W(PB)
SciTegic.value.DoubleValue
-54.666

@<SCITEGIC>MOL_PROPERTY
W(SA)
SciTegic.value.DoubleValue
2.414

@<SCITEGIC>MOL_PROPERTY
Valence
SciTegic.value.DoubleValue
6.291

@<SCITEGIC>MOL_PROPERTY
Coulomb
SciTegic.value.DoubleValue
45.618

@<SCITEGIC>MOL_PROPERTY
VdW
SciTegic.value.DoubleValue
0.690

@<SCITEGIC>MOL_PROPERTY
VdW6
SciTegic.value.DoubleValue
-10.178

@<SCITEGIC>MOL_PROPERTY
VdW12
SciTegic.value.DoubleValue
10.868

@<SCITEGIC>MOL_PROPERTY
Bond
SciTegic.value.DoubleValue
0.295

@<SCITEGIC>MOL_PROPERTY
Angle
SciTegic.value.DoubleValue
1.800

@<SCITEGIC>MOL_PROPERTY
Pdih
SciTegic.value.DoubleValue
4.197

@<SCITEGIC>MOL_PROPERTY
Idih
SciTegic.value.DoubleValue
0.000

@<SCITEGIC>MOL_PROPERTY
Tether
SciTegic.value.DoubleValue
0.000

@<TRIPOS>MOLECULE
guest-3_vm2.mol2 : vm2 ligand conformer 326
          29          28           1
SMALL
USER_CHARGES
 
@<TRIPOS>ATOM
       1    C1      20.546467   18.936731   19.883240 C.3        1 MOL1        -0.2427
       2    H1      19.690840   18.477571   19.371074 H          1 MOL1         0.0958
       3    H2      21.080516   19.560368   19.154617 H          1 MOL1         0.0958
       4    H3      21.224933   18.134658   20.201972 H          1 MOL1         0.0958
       5    C2      20.082749   19.782406   21.088063 C.3        1 MOL1        -0.1412
       6    H4      19.434319   20.596064   20.734033 H          1 MOL1         0.0947
       7    H5      20.955888   20.254759   21.559604 H          1 MOL1         0.0947
       8    C3      19.326806   18.927790   22.129197 C.3        1 MOL1        -0.1437
       9    H6      18.453895   18.459122   21.654345 H          1 MOL1         0.0947
      10    H7      19.981531   18.114222   22.468058 H          1 MOL1         0.0947
      11    C4      18.865734   19.773087   23.340267 C.3        1 MOL1        -0.1437
      12    H8      18.267055   20.619556   22.976458 H          1 MOL1         0.0947
      13    H9      19.741087   20.211568   23.835214 H          1 MOL1         0.0947
      14    C5      18.012926   18.974642   24.360321 C.3        1 MOL1        -0.1437
      15    H10     17.655681   19.650298   25.147053 H          1 MOL1         0.0947
      16    H11     17.104806   18.619256   23.854033 H          1 MOL1         0.0947
      17    C6      18.720933   17.753616   25.005859 C.3        1 MOL1        -0.1437
      18    H12     18.901355   16.995603   24.232176 H          1 MOL1         0.0947
      19    H13     18.027756   17.282996   25.716656 H          1 MOL1         0.0947
      20    C7      20.059584   18.045572   25.735029 C.3        1 MOL1        -0.1477
      21    H14     20.480214   17.083233   26.055387 H          1 MOL1         0.0947
      22    H15     20.797594   18.475431   25.046005 H          1 MOL1         0.0947
      23    C8      19.919443   18.930368   26.991085 C.3        1 MOL1         0.0145
      24    H16     20.799462   18.792775   27.625154 H          1 MOL1         0.0921
      25    H17     19.039118   18.623266   27.561969 H          1 MOL1         0.0921
      26    N1      19.809358   20.413788   26.701938 N.4        1 MOL1        -0.5969
      27    H18     19.689528   20.960864   27.561585 H          1 MOL1         0.3603
      28    H19     19.010470   20.619414   26.094965 H          1 MOL1         0.3603
      29    H20     20.648350   20.771079   26.233656 H          1 MOL1         0.3603
@<TRIPOS>BOND
    1     1     2    1
    2     1     3    1
    3     1     4    1
    4     1     5    1
    5     5     6    1
    6     5     7    1
    7     5     8    1
    8     8     9    1
    9     8    10    1
   10     8    11    1
   11    11    12    1
   12    11    13    1
   13    11    14    1
   14    14    15    1
   15    14    16    1
   16    14    17    1
   17    17    18    1
   18    17    19    1
   19    17    20    1
   20    20    21    1
   21    20    22    1
   22    20    23    1
   23    23    24    1
   24    23    25    1
   25    23    26    1
   26    26    27    1
   27    26    28    1
   28    26    29    1
@<TRIPOS>SUBSTRUCTURE
       1 MOL1            1 RESIDUE      1      MOL     
@<SCITEGIC>MOL_PROPERTY
VM2 Rank
SciTegic.value.IntegerValue
326

@<SCITEGIC>MOL_PROPERTY
Conf_Id
SciTegic.value.IntegerValue
2506

@<SCITEGIC>MOL_PROPERTY
Probability
SciTegic.value.DoubleValue
0.00

@<SCITEGIC>MOL_PROPERTY
Sum Probability
SciTegic.value.DoubleValue
99.86

@<SCITEGIC>MOL_PROPERTY
Delta G
SciTegic.value.DoubleValue
4.450

@<SCITEGIC>MOL_PROPERTY
G
SciTegic.value.DoubleValue
62.598

@<SCITEGIC>MOL_PROPERTY
E
SciTegic.value.DoubleValue
24.427

@<SCITEGIC>MOL_PROPERTY
-TS
SciTegic.value.DoubleValue
38.171

@<SCITEGIC>MOL_PROPERTY
U+W
SciTegic.value.DoubleValue
0.283

@<SCITEGIC>MOL_PROPERTY
U
SciTegic.value.DoubleValue
52.614

@<SCITEGIC>MOL_PROPERTY
W
SciTegic.value.DoubleValue
-52.332

@<SCITEGIC>MOL_PROPERTY
W(PB)
SciTegic.value.DoubleValue
-54.768

@<SCITEGIC>MOL_PROPERTY
W(SA)
SciTegic.value.DoubleValue
2.437

@<SCITEGIC>MOL_PROPERTY
Valence
SciTegic.value.DoubleValue
5.081

@<SCITEGIC>MOL_PROPERTY
Coulomb
SciTegic.value.DoubleValue
47.115

@<SCITEGIC>MOL_PROPERTY
VdW
SciTegic.value.DoubleValue
0.418

@<SCITEGIC>MOL_PROPERTY
VdW6
SciTegic.value.DoubleValue
-10.638

@<SCITEGIC>MOL_PROPERTY
VdW12
SciTegic.value.DoubleValue
11.056

@<SCITEGIC>MOL_PROPERTY
Bond
SciTegic.value.DoubleValue
0.294

@<SCITEGIC>MOL_PROPERTY
Angle
SciTegic.value.DoubleValue
1.796

@<SCITEGIC>MOL_PROPERTY
Pdih
SciTegic.value.DoubleValue
2.991

@<SCITEGIC>MOL_PROPERTY
Idih
SciTegic.value.DoubleValue
0.000

@<SCITEGIC>MOL_PROPERTY
Tether
SciTegic.value.DoubleValue
0.000

@<TRIPOS>MOLECULE
guest-3_vm2.mol2 : vm2 ligand conformer 327
          29          28           1
SMALL
USER_CHARGES
 
@<TRIPOS>ATOM
       1    C1      20.717496   19.307890   19.746917 C.3        1 MOL1        -0.2427
       2    H1      20.880964   20.131405   19.039712 H          1 MOL1         0.0958
       3    H2      21.699006   18.901428   20.023799 H          1 MOL1         0.0958
       4    H3      20.156586   18.521633   19.224964 H          1 MOL1         0.0958
       5    C2      19.950925   19.802671   20.991622 C.3        1 MOL1        -0.1412
       6    H4      18.989218   20.233853   20.680001 H          1 MOL1         0.0947
       7    H5      20.519803   20.610719   21.472535 H          1 MOL1         0.0947
       8    C3      19.707149   18.661682   22.003793 C.3        1 MOL1        -0.1437
       9    H6      19.139985   17.856051   21.517233 H          1 MOL1         0.0947
      10    H7      20.670927   18.231592   22.309175 H          1 MOL1         0.0947
      11    C4      18.939425   19.153487   23.251315 C.3        1 MOL1        -0.1437
      12    H8      17.972421   19.574609   22.943300 H          1 MOL1         0.0947
      13    H9      19.502173   19.969480   23.721218 H          1 MOL1         0.0947
      14    C5      18.700087   18.009098   24.265438 C.3        1 MOL1        -0.1437
      15    H10     18.148742   17.203012   23.761714 H          1 MOL1         0.0947
      16    H11     19.653922   17.563818   24.573778 H          1 MOL1         0.0947
      17    C6      17.887167   18.443466   25.511426 C.3        1 MOL1        -0.1437
      18    H12     17.720146   17.561447   26.145047 H          1 MOL1         0.0947
      19    H13     16.889731   18.768182   25.184446 H          1 MOL1         0.0947
      20    C7      18.512226   19.568330   26.379681 C.3        1 MOL1        -0.1477
      21    H14     18.593425   20.503719   25.811626 H          1 MOL1         0.0947
      22    H15     17.814344   19.781712   27.200148 H          1 MOL1         0.0947
      23    C8      19.873671   19.205547   27.008157 C.3        1 MOL1         0.0145
      24    H16     19.857122   18.167533   27.350893 H          1 MOL1         0.0921
      25    H17     20.049910   19.846782   27.876019 H          1 MOL1         0.0921
      26    N1      21.055854   19.385829   26.076651 N.4        1 MOL1        -0.5969
      27    H18     21.169024   20.365079   25.794965 H          1 MOL1         0.3603
      28    H19     20.946490   18.833739   25.220601 H          1 MOL1         0.3603
      29    H20     21.935809   19.097391   26.518507 H          1 MOL1         0.3603
@<TRIPOS>BOND
    1     1     2    1
    2     1     3    1
    3     1     4    1
    4     1     5    1
    5     5     6    1
    6     5     7    1
    7     5     8    1
    8     8     9    1
    9     8    10    1
   10     8    11    1
   11    11    12    1
   12    11    13    1
   13    11    14    1
   14    14    15    1
   15    14    16    1
   16    14    17    1
   17    17    18    1
   18    17    19    1
   19    17    20    1
   20    20    21    1
   21    20    22    1
   22    20    23    1
   23    23    24    1
   24    23    25    1
   25    23    26    1
   26    26    27    1
   27    26    28    1
   28    26    29    1
@<TRIPOS>SUBSTRUCTURE
       1 MOL1            1 RESIDUE      1      MOL     
@<SCITEGIC>MOL_PROPERTY
VM2 Rank
SciTegic.value.IntegerValue
327

@<SCITEGIC>MOL_PROPERTY
Conf_Id
SciTegic.value.IntegerValue
2442

@<SCITEGIC>MOL_PROPERTY
Probability
SciTegic.value.DoubleValue
0.00

@<SCITEGIC>MOL_PROPERTY
Sum Probability
SciTegic.value.DoubleValue
99.86

@<SCITEGIC>MOL_PROPERTY
Delta G
SciTegic.value.DoubleValue
4.453

@<SCITEGIC>MOL_PROPERTY
G
SciTegic.value.DoubleValue
62.601

@<SCITEGIC>MOL_PROPERTY
E
SciTegic.value.DoubleValue
24.642

@<SCITEGIC>MOL_PROPERTY
-TS
SciTegic.value.DoubleValue
37.959

@<SCITEGIC>MOL_PROPERTY
U+W
SciTegic.value.DoubleValue
0.497

@<SCITEGIC>MOL_PROPERTY
U
SciTegic.value.DoubleValue
52.295

@<SCITEGIC>MOL_PROPERTY
W
SciTegic.value.DoubleValue
-51.798

@<SCITEGIC>MOL_PROPERTY
W(PB)
SciTegic.value.DoubleValue
-54.264

@<SCITEGIC>MOL_PROPERTY
W(SA)
SciTegic.value.DoubleValue
2.466

@<SCITEGIC>MOL_PROPERTY
Valence
SciTegic.value.DoubleValue
4.642

@<SCITEGIC>MOL_PROPERTY
Coulomb
SciTegic.value.DoubleValue
47.212

@<SCITEGIC>MOL_PROPERTY
VdW
SciTegic.value.DoubleValue
0.441

@<SCITEGIC>MOL_PROPERTY
VdW6
SciTegic.value.DoubleValue
-9.835

@<SCITEGIC>MOL_PROPERTY
VdW12
SciTegic.value.DoubleValue
10.276

@<SCITEGIC>MOL_PROPERTY
Bond
SciTegic.value.DoubleValue
0.247

@<SCITEGIC>MOL_PROPERTY
Angle
SciTegic.value.DoubleValue
1.461

@<SCITEGIC>MOL_PROPERTY
Pdih
SciTegic.value.DoubleValue
2.934

@<SCITEGIC>MOL_PROPERTY
Idih
SciTegic.value.DoubleValue
0.000

@<SCITEGIC>MOL_PROPERTY
Tether
SciTegic.value.DoubleValue
0.000

@<TRIPOS>MOLECULE
guest-3_vm2.mol2 : vm2 ligand conformer 328
          29          28           1
SMALL
USER_CHARGES
 
@<TRIPOS>ATOM
       1    C1      21.247044   18.605206   21.772835 C.3        1 MOL1        -0.2427
       2    H1      21.201532   18.441947   22.856046 H          1 MOL1         0.0958
       3    H2      22.073858   17.996330   21.384904 H          1 MOL1         0.0958
       4    H3      21.489376   19.659411   21.586341 H          1 MOL1         0.0958
       5    C2      19.919698   18.209048   21.090775 C.3        1 MOL1        -0.1412
       6    H4      19.667198   17.173655   21.358852 H          1 MOL1         0.0947
       7    H5      20.068749   18.213503   20.001983 H          1 MOL1         0.0947
       8    C3      18.725729   19.138981   21.425925 C.3        1 MOL1        -0.1437
       9    H6      18.927465   20.156808   21.065031 H          1 MOL1         0.0947
      10    H7      17.860938   18.786413   20.847001 H          1 MOL1         0.0947
      11    C4      18.323769   19.166628   22.923711 C.3        1 MOL1        -0.1437
      12    H8      18.561798   18.199889   23.385794 H          1 MOL1         0.0947
      13    H9      17.232416   19.275817   22.987885 H          1 MOL1         0.0947
      14    C5      18.971642   20.332745   23.713985 C.3        1 MOL1        -0.1437
      15    H10     20.064465   20.255980   23.690469 H          1 MOL1         0.0947
      16    H11     18.728979   21.279057   23.211395 H          1 MOL1         0.0947
      17    C6      18.485945   20.427927   25.183461 C.3        1 MOL1        -0.1437
      18    H12     17.403622   20.616719   25.194182 H          1 MOL1         0.0947
      19    H13     18.950339   21.307214   25.650997 H          1 MOL1         0.0947
      20    C7      18.787922   19.181655   26.052377 C.3        1 MOL1        -0.1477
      21    H14     18.433156   19.368880   27.074577 H          1 MOL1         0.0947
      22    H15     18.218960   18.318819   25.683613 H          1 MOL1         0.0947
      23    C8      20.287468   18.834708   26.095654 C.3        1 MOL1         0.0145
      24    H16     20.852388   19.690020   26.475966 H          1 MOL1         0.0921
      25    H17     20.642131   18.607477   25.087247 H          1 MOL1         0.0921
      26    N1      20.594782   17.641102   26.976277 N.4        1 MOL1        -0.5969
      27    H18     20.309017   17.800721   27.948021 H          1 MOL1         0.3603
      28    H19     21.597977   17.426845   26.991297 H          1 MOL1         0.3603
      29    H20     20.112748   16.795167   26.654846 H          1 MOL1         0.3603
@<TRIPOS>BOND
    1     1     2    1
    2     1     3    1
    3     1     4    1
    4     1     5    1
    5     5     6    1
    6     5     7    1
    7     5     8    1
    8     8     9    1
    9     8    10    1
   10     8    11    1
   11    11    12    1
   12    11    13    1
   13    11    14    1
   14    14    15    1
   15    14    16    1
   16    14    17    1
   17    17    18    1
   18    17    19    1
   19    17    20    1
   20    20    21    1
   21    20    22    1
   22    20    23    1
   23    23    24    1
   24    23    25    1
   25    23    26    1
   26    26    27    1
   27    26    28    1
   28    26    29    1
@<TRIPOS>SUBSTRUCTURE
       1 MOL1            1 RESIDUE      1      MOL     
@<SCITEGIC>MOL_PROPERTY
VM2 Rank
SciTegic.value.IntegerValue
328

@<SCITEGIC>MOL_PROPERTY
Conf_Id
SciTegic.value.IntegerValue
1633

@<SCITEGIC>MOL_PROPERTY
Probability
SciTegic.value.DoubleValue
0.00

@<SCITEGIC>MOL_PROPERTY
Sum Probability
SciTegic.value.DoubleValue
99.86

@<SCITEGIC>MOL_PROPERTY
Delta G
SciTegic.value.DoubleValue
4.454

@<SCITEGIC>MOL_PROPERTY
G
SciTegic.value.DoubleValue
62.602

@<SCITEGIC>MOL_PROPERTY
E
SciTegic.value.DoubleValue
24.627

@<SCITEGIC>MOL_PROPERTY
-TS
SciTegic.value.DoubleValue
37.975

@<SCITEGIC>MOL_PROPERTY
U+W
SciTegic.value.DoubleValue
0.482

@<SCITEGIC>MOL_PROPERTY
U
SciTegic.value.DoubleValue
53.131

@<SCITEGIC>MOL_PROPERTY
W
SciTegic.value.DoubleValue
-52.649

@<SCITEGIC>MOL_PROPERTY
W(PB)
SciTegic.value.DoubleValue
-55.048

@<SCITEGIC>MOL_PROPERTY
W(SA)
SciTegic.value.DoubleValue
2.399

@<SCITEGIC>MOL_PROPERTY
Valence
SciTegic.value.DoubleValue
6.303

@<SCITEGIC>MOL_PROPERTY
Coulomb
SciTegic.value.DoubleValue
46.251

@<SCITEGIC>MOL_PROPERTY
VdW
SciTegic.value.DoubleValue
0.577

@<SCITEGIC>MOL_PROPERTY
VdW6
SciTegic.value.DoubleValue
-10.485

@<SCITEGIC>MOL_PROPERTY
VdW12
SciTegic.value.DoubleValue
11.062

@<SCITEGIC>MOL_PROPERTY
Bond
SciTegic.value.DoubleValue
0.303

@<SCITEGIC>MOL_PROPERTY
Angle
SciTegic.value.DoubleValue
1.680

@<SCITEGIC>MOL_PROPERTY
Pdih
SciTegic.value.DoubleValue
4.320

@<SCITEGIC>MOL_PROPERTY
Idih
SciTegic.value.DoubleValue
0.000

@<SCITEGIC>MOL_PROPERTY
Tether
SciTegic.value.DoubleValue
0.000

@<TRIPOS>MOLECULE
guest-3_vm2.mol2 : vm2 ligand conformer 329
          29          28           1
SMALL
USER_CHARGES
 
@<TRIPOS>ATOM
       1    C1      19.661791   17.773298   20.454556 C.3        1 MOL1        -0.2427
       2    H1      20.749089   17.680148   20.572580 H          1 MOL1         0.0958
       3    H2      19.174760   17.311163   21.322179 H          1 MOL1         0.0958
       4    H3      19.369446   17.196047   19.567898 H          1 MOL1         0.0958
       5    C2      19.243440   19.251505   20.298116 C.3        1 MOL1        -0.1412
       6    H4      18.148251   19.315045   20.233216 H          1 MOL1         0.0947
       7    H5      19.627354   19.626829   19.339240 H          1 MOL1         0.0947
       8    C3      19.750907   20.181498   21.429600 C.3        1 MOL1        -0.1437
       9    H6      20.849388   20.201913   21.438321 H          1 MOL1         0.0947
      10    H7      19.437739   21.205033   21.181257 H          1 MOL1         0.0947
      11    C4      19.207303   19.838424   22.841057 C.3        1 MOL1        -0.1437
      12    H8      18.224999   19.353617   22.757777 H          1 MOL1         0.0947
      13    H9      19.038912   20.780747   23.378429 H          1 MOL1         0.0947
      14    C5      20.176080   18.959874   23.673783 C.3        1 MOL1        -0.1437
      15    H10     20.468961   18.076580   23.094016 H          1 MOL1         0.0947
      16    H11     21.103733   19.516674   23.864879 H          1 MOL1         0.0947
      17    C6      19.576111   18.479919   25.018197 C.3        1 MOL1        -0.1437
      18    H12     20.284397   17.777128   25.476376 H          1 MOL1         0.0947
      19    H13     18.656116   17.910353   24.826890 H          1 MOL1         0.0947
      20    C7      19.279165   19.631821   26.010863 C.3        1 MOL1        -0.1477
      21    H14     20.187813   20.223498   26.184186 H          1 MOL1         0.0947
      22    H15     18.536999   20.313731   25.577630 H          1 MOL1         0.0947
      23    C8      18.729515   19.126904   27.358921 C.3        1 MOL1         0.0145
      24    H16     17.835870   18.520524   27.188368 H          1 MOL1         0.0921
      25    H17     18.447896   19.982662   27.978517 H          1 MOL1         0.0921
      26    N1      19.719688   18.294757   28.149907 N.4        1 MOL1        -0.5969
      27    H18     19.999915   17.451583   27.639337 H          1 MOL1         0.3603
      28    H19     19.327543   17.986847   29.046564 H          1 MOL1         0.3603
      29    H20     20.574670   18.819846   28.361027 H          1 MOL1         0.3603
@<TRIPOS>BOND
    1     1     2    1
    2     1     3    1
    3     1     4    1
    4     1     5    1
    5     5     6    1
    6     5     7    1
    7     5     8    1
    8     8     9    1
    9     8    10    1
   10     8    11    1
   11    11    12    1
   12    11    13    1
   13    11    14    1
   14    14    15    1
   15    14    16    1
   16    14    17    1
   17    17    18    1
   18    17    19    1
   19    17    20    1
   20    20    21    1
   21    20    22    1
   22    20    23    1
   23    23    24    1
   24    23    25    1
   25    23    26    1
   26    26    27    1
   27    26    28    1
   28    26    29    1
@<TRIPOS>SUBSTRUCTURE
       1 MOL1            1 RESIDUE      1      MOL     
@<SCITEGIC>MOL_PROPERTY
VM2 Rank
SciTegic.value.IntegerValue
329

@<SCITEGIC>MOL_PROPERTY
Conf_Id
SciTegic.value.IntegerValue
1351

@<SCITEGIC>MOL_PROPERTY
Probability
SciTegic.value.DoubleValue
0.00

@<SCITEGIC>MOL_PROPERTY
Sum Probability
SciTegic.value.DoubleValue
99.86

@<SCITEGIC>MOL_PROPERTY
Delta G
SciTegic.value.DoubleValue
4.456

@<SCITEGIC>MOL_PROPERTY
G
SciTegic.value.DoubleValue
62.604

@<SCITEGIC>MOL_PROPERTY
E
SciTegic.value.DoubleValue
24.838

@<SCITEGIC>MOL_PROPERTY
-TS
SciTegic.value.DoubleValue
37.767

@<SCITEGIC>MOL_PROPERTY
U+W
SciTegic.value.DoubleValue
0.693

@<SCITEGIC>MOL_PROPERTY
U
SciTegic.value.DoubleValue
52.368

@<SCITEGIC>MOL_PROPERTY
W
SciTegic.value.DoubleValue
-51.675

@<SCITEGIC>MOL_PROPERTY
W(PB)
SciTegic.value.DoubleValue
-54.138

@<SCITEGIC>MOL_PROPERTY
W(SA)
SciTegic.value.DoubleValue
2.463

@<SCITEGIC>MOL_PROPERTY
Valence
SciTegic.value.DoubleValue
6.262

@<SCITEGIC>MOL_PROPERTY
Coulomb
SciTegic.value.DoubleValue
45.003

@<SCITEGIC>MOL_PROPERTY
VdW
SciTegic.value.DoubleValue
1.103

@<SCITEGIC>MOL_PROPERTY
VdW6
SciTegic.value.DoubleValue
-9.650

@<SCITEGIC>MOL_PROPERTY
VdW12
SciTegic.value.DoubleValue
10.753

@<SCITEGIC>MOL_PROPERTY
Bond
SciTegic.value.DoubleValue
0.297

@<SCITEGIC>MOL_PROPERTY
Angle
SciTegic.value.DoubleValue
1.422

@<SCITEGIC>MOL_PROPERTY
Pdih
SciTegic.value.DoubleValue
4.543

@<SCITEGIC>MOL_PROPERTY
Idih
SciTegic.value.DoubleValue
0.000

@<SCITEGIC>MOL_PROPERTY
Tether
SciTegic.value.DoubleValue
0.000

@<TRIPOS>MOLECULE
guest-3_vm2.mol2 : vm2 ligand conformer 330
          29          28           1
SMALL
USER_CHARGES
 
@<TRIPOS>ATOM
       1    C1      20.441199   18.641855   19.876569 C.3        1 MOL1        -0.2427
       2    H1      21.469428   18.820708   20.217133 H          1 MOL1         0.0958
       3    H2      20.470690   17.850448   19.116418 H          1 MOL1         0.0958
       4    H3      20.076082   19.558412   19.395060 H          1 MOL1         0.0958
       5    C2      19.530288   18.233257   21.053466 C.3        1 MOL1        -0.1412
       6    H4      19.901171   17.296999   21.493584 H          1 MOL1         0.0947
       7    H5      18.518483   18.027883   20.676757 H          1 MOL1         0.0947
       8    C3      19.470657   19.331304   22.138143 C.3        1 MOL1        -0.1437
       9    H6      20.487491   19.533226   22.499610 H          1 MOL1         0.0947
      10    H7      19.097667   20.264699   21.694569 H          1 MOL1         0.0947
      11    C4      18.561934   18.921068   23.321245 C.3        1 MOL1        -0.1437
      12    H8      18.955552   18.008618   23.785981 H          1 MOL1         0.0947
      13    H9      17.568023   18.659345   22.932756 H          1 MOL1         0.0947
      14    C5      18.392150   20.037687   24.384092 C.3        1 MOL1        -0.1437
      15    H10     17.920874   20.907081   23.905173 H          1 MOL1         0.0947
      16    H11     17.676989   19.709855   25.148392 H          1 MOL1         0.0947
      17    C6      19.703645   20.508710   25.067478 C.3        1 MOL1        -0.1437
      18    H12     19.454483   21.283054   25.806070 H          1 MOL1         0.0947
      19    H13     20.333824   21.011543   24.321990 H          1 MOL1         0.0947
      20    C7      20.545235   19.407212   25.765576 C.3        1 MOL1        -0.1477
      21    H14     20.854663   18.635218   25.049705 H          1 MOL1         0.0947
      22    H15     21.475122   19.872823   26.117956 H          1 MOL1         0.0947
      23    C8      19.859148   18.761647   26.987344 C.3        1 MOL1         0.0145
      24    H16     19.363497   19.533391   27.582268 H          1 MOL1         0.0921
      25    H17     20.618636   18.286327   27.613968 H          1 MOL1         0.0921
      26    N1      18.839743   17.695259   26.641086 N.4        1 MOL1        -0.5969
      27    H18     18.099672   18.065557   26.037684 H          1 MOL1         0.3603
      28    H19     18.388644   17.313815   27.479927 H          1 MOL1         0.3603
      29    H20     19.270166   16.906757   26.147271 H          1 MOL1         0.3603
@<TRIPOS>BOND
    1     1     2    1
    2     1     3    1
    3     1     4    1
    4     1     5    1
    5     5     6    1
    6     5     7    1
    7     5     8    1
    8     8     9    1
    9     8    10    1
   10     8    11    1
   11    11    12    1
   12    11    13    1
   13    11    14    1
   14    14    15    1
   15    14    16    1
   16    14    17    1
   17    17    18    1
   18    17    19    1
   19    17    20    1
   20    20    21    1
   21    20    22    1
   22    20    23    1
   23    23    24    1
   24    23    25    1
   25    23    26    1
   26    26    27    1
   27    26    28    1
   28    26    29    1
@<TRIPOS>SUBSTRUCTURE
       1 MOL1            1 RESIDUE      1      MOL     
@<SCITEGIC>MOL_PROPERTY
VM2 Rank
SciTegic.value.IntegerValue
330

@<SCITEGIC>MOL_PROPERTY
Conf_Id
SciTegic.value.IntegerValue
2624

@<SCITEGIC>MOL_PROPERTY
Probability
SciTegic.value.DoubleValue
0.00

@<SCITEGIC>MOL_PROPERTY
Sum Probability
SciTegic.value.DoubleValue
99.87

@<SCITEGIC>MOL_PROPERTY
Delta G
SciTegic.value.DoubleValue
4.475

@<SCITEGIC>MOL_PROPERTY
G
SciTegic.value.DoubleValue
62.623

@<SCITEGIC>MOL_PROPERTY
E
SciTegic.value.DoubleValue
24.453

@<SCITEGIC>MOL_PROPERTY
-TS
SciTegic.value.DoubleValue
38.171

@<SCITEGIC>MOL_PROPERTY
U+W
SciTegic.value.DoubleValue
0.308

@<SCITEGIC>MOL_PROPERTY
U
SciTegic.value.DoubleValue
52.614

@<SCITEGIC>MOL_PROPERTY
W
SciTegic.value.DoubleValue
-52.306

@<SCITEGIC>MOL_PROPERTY
W(PB)
SciTegic.value.DoubleValue
-54.731

@<SCITEGIC>MOL_PROPERTY
W(SA)
SciTegic.value.DoubleValue
2.425

@<SCITEGIC>MOL_PROPERTY
Valence
SciTegic.value.DoubleValue
5.081

@<SCITEGIC>MOL_PROPERTY
Coulomb
SciTegic.value.DoubleValue
47.116

@<SCITEGIC>MOL_PROPERTY
VdW
SciTegic.value.DoubleValue
0.418

@<SCITEGIC>MOL_PROPERTY
VdW6
SciTegic.value.DoubleValue
-10.638

@<SCITEGIC>MOL_PROPERTY
VdW12
SciTegic.value.DoubleValue
11.055

@<SCITEGIC>MOL_PROPERTY
Bond
SciTegic.value.DoubleValue
0.294

@<SCITEGIC>MOL_PROPERTY
Angle
SciTegic.value.DoubleValue
1.796

@<SCITEGIC>MOL_PROPERTY
Pdih
SciTegic.value.DoubleValue
2.991

@<SCITEGIC>MOL_PROPERTY
Idih
SciTegic.value.DoubleValue
0.000

@<SCITEGIC>MOL_PROPERTY
Tether
SciTegic.value.DoubleValue
0.000

@<TRIPOS>MOLECULE
guest-3_vm2.mol2 : vm2 ligand conformer 331
          29          28           1
SMALL
USER_CHARGES
 
@<TRIPOS>ATOM
       1    C1      20.753543   20.163938   20.695361 C.3        1 MOL1        -0.2427
       2    H1      20.548490   19.830723   19.669736 H          1 MOL1         0.0958
       3    H2      21.180670   21.173582   20.639786 H          1 MOL1         0.0958
       4    H3      21.519289   19.505179   21.122253 H          1 MOL1         0.0958
       5    C2      19.462655   20.169639   21.545973 C.3        1 MOL1        -0.1412
       6    H4      18.772880   20.914871   21.125920 H          1 MOL1         0.0947
       7    H5      19.695606   20.510268   22.561818 H          1 MOL1         0.0947
       8    C3      18.744127   18.795773   21.575470 C.3        1 MOL1        -0.1437
       9    H6      17.730401   18.919670   21.980382 H          1 MOL1         0.0947
      10    H7      18.606120   18.459453   20.538617 H          1 MOL1         0.0947
      11    C4      19.484951   17.683433   22.366828 C.3        1 MOL1        -0.1437
      12    H8      20.571021   17.833328   22.331067 H          1 MOL1         0.0947
      13    H9      19.304308   16.726930   21.857290 H          1 MOL1         0.0947
      14    C5      19.025280   17.519270   23.838453 C.3        1 MOL1        -0.1437
      15    H10     17.957929   17.259462   23.860910 H          1 MOL1         0.0947
      16    H11     19.557874   16.660906   24.270747 H          1 MOL1         0.0947
      17    C6      19.271818   18.761975   24.724625 C.3        1 MOL1        -0.1437
      18    H12     18.642436   19.592175   24.378609 H          1 MOL1         0.0947
      19    H13     20.317922   19.079254   24.621208 H          1 MOL1         0.0947
      20    C7      18.951980   18.477891   26.211161 C.3        1 MOL1        -0.1477
      21    H14     17.917617   18.119416   26.298198 H          1 MOL1         0.0947
      22    H15     19.595951   17.672194   26.588134 H          1 MOL1         0.0947
      23    C8      19.113281   19.724223   27.102520 C.3        1 MOL1         0.0145
      24    H16     18.795376   19.485509   28.121091 H          1 MOL1         0.0921
      25    H17     18.477586   20.530478   26.726722 H          1 MOL1         0.0921
      26    N1      20.536365   20.241858   27.174609 N.4        1 MOL1        -0.5969
      27    H18     21.179928   19.534269   27.544003 H          1 MOL1         0.3603
      28    H19     20.612029   21.063599   27.784212 H          1 MOL1         0.3603
      29    H20     20.886417   20.518459   26.252078 H          1 MOL1         0.3603
@<TRIPOS>BOND
    1     1     2    1
    2     1     3    1
    3     1     4    1
    4     1     5    1
    5     5     6    1
    6     5     7    1
    7     5     8    1
    8     8     9    1
    9     8    10    1
   10     8    11    1
   11    11    12    1
   12    11    13    1
   13    11    14    1
   14    14    15    1
   15    14    16    1
   16    14    17    1
   17    17    18    1
   18    17    19    1
   19    17    20    1
   20    20    21    1
   21    20    22    1
   22    20    23    1
   23    23    24    1
   24    23    25    1
   25    23    26    1
   26    26    27    1
   27    26    28    1
   28    26    29    1
@<TRIPOS>SUBSTRUCTURE
       1 MOL1            1 RESIDUE      1      MOL     
@<SCITEGIC>MOL_PROPERTY
VM2 Rank
SciTegic.value.IntegerValue
331

@<SCITEGIC>MOL_PROPERTY
Conf_Id
SciTegic.value.IntegerValue
2653

@<SCITEGIC>MOL_PROPERTY
Probability
SciTegic.value.DoubleValue
0.00

@<SCITEGIC>MOL_PROPERTY
Sum Probability
SciTegic.value.DoubleValue
99.87

@<SCITEGIC>MOL_PROPERTY
Delta G
SciTegic.value.DoubleValue
4.479

@<SCITEGIC>MOL_PROPERTY
G
SciTegic.value.DoubleValue
62.627

@<SCITEGIC>MOL_PROPERTY
E
SciTegic.value.DoubleValue
24.921

@<SCITEGIC>MOL_PROPERTY
-TS
SciTegic.value.DoubleValue
37.705

@<SCITEGIC>MOL_PROPERTY
U+W
SciTegic.value.DoubleValue
0.777

@<SCITEGIC>MOL_PROPERTY
U
SciTegic.value.DoubleValue
53.031

@<SCITEGIC>MOL_PROPERTY
W
SciTegic.value.DoubleValue
-52.254

@<SCITEGIC>MOL_PROPERTY
W(PB)
SciTegic.value.DoubleValue
-54.696

@<SCITEGIC>MOL_PROPERTY
W(SA)
SciTegic.value.DoubleValue
2.442

@<SCITEGIC>MOL_PROPERTY
Valence
SciTegic.value.DoubleValue
6.405

@<SCITEGIC>MOL_PROPERTY
Coulomb
SciTegic.value.DoubleValue
45.638

@<SCITEGIC>MOL_PROPERTY
VdW
SciTegic.value.DoubleValue
0.988

@<SCITEGIC>MOL_PROPERTY
VdW6
SciTegic.value.DoubleValue
-9.679

@<SCITEGIC>MOL_PROPERTY
VdW12
SciTegic.value.DoubleValue
10.666

@<SCITEGIC>MOL_PROPERTY
Bond
SciTegic.value.DoubleValue
0.299

@<SCITEGIC>MOL_PROPERTY
Angle
SciTegic.value.DoubleValue
1.528

@<SCITEGIC>MOL_PROPERTY
Pdih
SciTegic.value.DoubleValue
4.579

@<SCITEGIC>MOL_PROPERTY
Idih
SciTegic.value.DoubleValue
0.000

@<SCITEGIC>MOL_PROPERTY
Tether
SciTegic.value.DoubleValue
0.000

@<TRIPOS>MOLECULE
guest-3_vm2.mol2 : vm2 ligand conformer 332
          29          28           1
SMALL
USER_CHARGES
 
@<TRIPOS>ATOM
       1    C1      20.030529   18.814514   19.527764 C.3        1 MOL1        -0.2427
       2    H1      21.033594   19.260593   19.538879 H          1 MOL1         0.0958
       3    H2      20.135777   17.741026   19.323387 H          1 MOL1         0.0958
       4    H3      19.471477   19.262442   18.695984 H          1 MOL1         0.0958
       5    C2      19.301838   19.056104   20.866677 C.3        1 MOL1        -0.1412
       6    H4      18.292520   18.624542   20.814932 H          1 MOL1         0.0947
       7    H5      19.179625   20.137173   21.014490 H          1 MOL1         0.0947
       8    C3      20.074626   18.437225   22.055410 C.3        1 MOL1        -0.1437
       9    H6      20.259953   17.374941   21.844384 H          1 MOL1         0.0947
      10    H7      21.062402   18.910545   22.141874 H          1 MOL1         0.0947
      11    C4      19.327965   18.543980   23.407879 C.3        1 MOL1        -0.1437
      12    H8      19.888103   17.961115   24.146596 H          1 MOL1         0.0947
      13    H9      18.343704   18.063951   23.319784 H          1 MOL1         0.0947
      14    C5      19.153793   20.002854   23.903386 C.3        1 MOL1        -0.1437
      15    H10     20.124209   20.517454   23.923358 H          1 MOL1         0.0947
      16    H11     18.536223   20.546091   23.176524 H          1 MOL1         0.0947
      17    C6      18.462428   20.119372   25.287110 C.3        1 MOL1        -0.1437
      18    H12     17.700243   19.337238   25.402123 H          1 MOL1         0.0947
      19    H13     17.910473   21.069309   25.307474 H          1 MOL1         0.0947
      20    C7      19.431268   20.126402   26.499523 C.3        1 MOL1        -0.1477
      21    H14     20.143968   20.954119   26.386915 H          1 MOL1         0.0947
      22    H15     18.859311   20.343254   27.411476 H          1 MOL1         0.0947
      23    C8      20.221450   18.821530   26.713173 C.3        1 MOL1         0.0145
      24    H16     20.885694   18.938151   27.573768 H          1 MOL1         0.0921
      25    H17     20.839917   18.614781   25.836765 H          1 MOL1         0.0921
      26    N1      19.340105   17.616020   26.974077 N.4        1 MOL1        -0.5969
      27    H18     18.765490   17.741895   27.813844 H          1 MOL1         0.3603
      28    H19     19.892151   16.762638   27.113333 H          1 MOL1         0.3603
      29    H20     18.700717   17.441333   26.192721 H          1 MOL1         0.3603
@<TRIPOS>BOND
    1     1     2    1
    2     1     3    1
    3     1     4    1
    4     1     5    1
    5     5     6    1
    6     5     7    1
    7     5     8    1
    8     8     9    1
    9     8    10    1
   10     8    11    1
   11    11    12    1
   12    11    13    1
   13    11    14    1
   14    14    15    1
   15    14    16    1
   16    14    17    1
   17    17    18    1
   18    17    19    1
   19    17    20    1
   20    20    21    1
   21    20    22    1
   22    20    23    1
   23    23    24    1
   24    23    25    1
   25    23    26    1
   26    26    27    1
   27    26    28    1
   28    26    29    1
@<TRIPOS>SUBSTRUCTURE
       1 MOL1            1 RESIDUE      1      MOL     
@<SCITEGIC>MOL_PROPERTY
VM2 Rank
SciTegic.value.IntegerValue
332

@<SCITEGIC>MOL_PROPERTY
Conf_Id
SciTegic.value.IntegerValue
859

@<SCITEGIC>MOL_PROPERTY
Probability
SciTegic.value.DoubleValue
0.00

@<SCITEGIC>MOL_PROPERTY
Sum Probability
SciTegic.value.DoubleValue
99.87

@<SCITEGIC>MOL_PROPERTY
Delta G
SciTegic.value.DoubleValue
4.480

@<SCITEGIC>MOL_PROPERTY
G
SciTegic.value.DoubleValue
62.628

@<SCITEGIC>MOL_PROPERTY
E
SciTegic.value.DoubleValue
24.814

@<SCITEGIC>MOL_PROPERTY
-TS
SciTegic.value.DoubleValue
37.814

@<SCITEGIC>MOL_PROPERTY
U+W
SciTegic.value.DoubleValue
0.669

@<SCITEGIC>MOL_PROPERTY
U
SciTegic.value.DoubleValue
53.045

@<SCITEGIC>MOL_PROPERTY
W
SciTegic.value.DoubleValue
-52.376

@<SCITEGIC>MOL_PROPERTY
W(PB)
SciTegic.value.DoubleValue
-54.825

@<SCITEGIC>MOL_PROPERTY
W(SA)
SciTegic.value.DoubleValue
2.449

@<SCITEGIC>MOL_PROPERTY
Valence
SciTegic.value.DoubleValue
5.932

@<SCITEGIC>MOL_PROPERTY
Coulomb
SciTegic.value.DoubleValue
46.352

@<SCITEGIC>MOL_PROPERTY
VdW
SciTegic.value.DoubleValue
0.761

@<SCITEGIC>MOL_PROPERTY
VdW6
SciTegic.value.DoubleValue
-9.984

@<SCITEGIC>MOL_PROPERTY
VdW12
SciTegic.value.DoubleValue
10.746

@<SCITEGIC>MOL_PROPERTY
Bond
SciTegic.value.DoubleValue
0.298

@<SCITEGIC>MOL_PROPERTY
Angle
SciTegic.value.DoubleValue
1.643

@<SCITEGIC>MOL_PROPERTY
Pdih
SciTegic.value.DoubleValue
3.991

@<SCITEGIC>MOL_PROPERTY
Idih
SciTegic.value.DoubleValue
0.000

@<SCITEGIC>MOL_PROPERTY
Tether
SciTegic.value.DoubleValue
0.000

@<TRIPOS>MOLECULE
guest-3_vm2.mol2 : vm2 ligand conformer 333
          29          28           1
SMALL
USER_CHARGES
 
@<TRIPOS>ATOM
       1    C1      21.473142   19.107417   21.091990 C.3        1 MOL1        -0.2427
       2    H1      22.084627   18.746885   21.929396 H          1 MOL1         0.0958
       3    H2      21.448231   18.323264   20.324083 H          1 MOL1         0.0958
       4    H3      21.973870   19.984466   20.661819 H          1 MOL1         0.0958
       5    C2      20.048506   19.469369   21.561749 C.3        1 MOL1        -0.1412
       6    H4      19.471051   19.856390   20.710686 H          1 MOL1         0.0947
       7    H5      20.110393   20.282489   22.296204 H          1 MOL1         0.0947
       8    C3      19.321387   18.246487   22.169348 C.3        1 MOL1        -0.1437
       9    H6      19.292413   17.445804   21.417556 H          1 MOL1         0.0947
      10    H7      19.893915   17.840347   23.012277 H          1 MOL1         0.0947
      11    C4      17.868369   18.548725   22.611999 C.3        1 MOL1        -0.1437
      12    H8      17.401041   17.612043   22.945611 H          1 MOL1         0.0947
      13    H9      17.293529   18.869544   21.732355 H          1 MOL1         0.0947
      14    C5      17.700532   19.615337   23.727944 C.3        1 MOL1        -0.1437
      15    H10     18.066056   20.593965   23.390428 H          1 MOL1         0.0947
      16    H11     16.621444   19.750255   23.885128 H          1 MOL1         0.0947
      17    C6      18.332932   19.236758   25.093181 C.3        1 MOL1        -0.1437
      18    H12     18.317027   18.146315   25.220541 H          1 MOL1         0.0947
      19    H13     17.696836   19.644831   25.890985 H          1 MOL1         0.0947
      20    C7      19.765643   19.792772   25.294517 C.3        1 MOL1        -0.1477
      21    H14     20.455008   19.385753   24.547120 H          1 MOL1         0.0947
      22    H15     19.755295   20.880903   25.148060 H          1 MOL1         0.0947
      23    C8      20.319929   19.499070   26.701486 C.3        1 MOL1         0.0145
      24    H16     19.639879   19.902089   27.456779 H          1 MOL1         0.0921
      25    H17     21.290197   19.989184   26.819315 H          1 MOL1         0.0921
      26    N1      20.513559   18.022065   26.982787 N.4        1 MOL1        -0.5969
      27    H18     20.891057   17.860245   27.922922 H          1 MOL1         0.3603
      28    H19     21.165216   17.590599   26.319326 H          1 MOL1         0.3603
      29    H20     19.630389   17.506009   26.920658 H          1 MOL1         0.3603
@<TRIPOS>BOND
    1     1     2    1
    2     1     3    1
    3     1     4    1
    4     1     5    1
    5     5     6    1
    6     5     7    1
    7     5     8    1
    8     8     9    1
    9     8    10    1
   10     8    11    1
   11    11    12    1
   12    11    13    1
   13    11    14    1
   14    14    15    1
   15    14    16    1
   16    14    17    1
   17    17    18    1
   18    17    19    1
   19    17    20    1
   20    20    21    1
   21    20    22    1
   22    20    23    1
   23    23    24    1
   24    23    25    1
   25    23    26    1
   26    26    27    1
   27    26    28    1
   28    26    29    1
@<TRIPOS>SUBSTRUCTURE
       1 MOL1            1 RESIDUE      1      MOL     
@<SCITEGIC>MOL_PROPERTY
VM2 Rank
SciTegic.value.IntegerValue
333

@<SCITEGIC>MOL_PROPERTY
Conf_Id
SciTegic.value.IntegerValue
2148

@<SCITEGIC>MOL_PROPERTY
Probability
SciTegic.value.DoubleValue
0.00

@<SCITEGIC>MOL_PROPERTY
Sum Probability
SciTegic.value.DoubleValue
99.88

@<SCITEGIC>MOL_PROPERTY
Delta G
SciTegic.value.DoubleValue
4.482

@<SCITEGIC>MOL_PROPERTY
G
SciTegic.value.DoubleValue
62.630

@<SCITEGIC>MOL_PROPERTY
E
SciTegic.value.DoubleValue
24.486

@<SCITEGIC>MOL_PROPERTY
-TS
SciTegic.value.DoubleValue
38.144

@<SCITEGIC>MOL_PROPERTY
U+W
SciTegic.value.DoubleValue
0.342

@<SCITEGIC>MOL_PROPERTY
U
SciTegic.value.DoubleValue
52.959

@<SCITEGIC>MOL_PROPERTY
W
SciTegic.value.DoubleValue
-52.617

@<SCITEGIC>MOL_PROPERTY
W(PB)
SciTegic.value.DoubleValue
-55.049

@<SCITEGIC>MOL_PROPERTY
W(SA)
SciTegic.value.DoubleValue
2.431

@<SCITEGIC>MOL_PROPERTY
Valence
SciTegic.value.DoubleValue
6.290

@<SCITEGIC>MOL_PROPERTY
Coulomb
SciTegic.value.DoubleValue
46.161

@<SCITEGIC>MOL_PROPERTY
VdW
SciTegic.value.DoubleValue
0.509

@<SCITEGIC>MOL_PROPERTY
VdW6
SciTegic.value.DoubleValue
-10.494

@<SCITEGIC>MOL_PROPERTY
VdW12
SciTegic.value.DoubleValue
11.002

@<SCITEGIC>MOL_PROPERTY
Bond
SciTegic.value.DoubleValue
0.303

@<SCITEGIC>MOL_PROPERTY
Angle
SciTegic.value.DoubleValue
1.848

@<SCITEGIC>MOL_PROPERTY
Pdih
SciTegic.value.DoubleValue
4.138

@<SCITEGIC>MOL_PROPERTY
Idih
SciTegic.value.DoubleValue
0.000

@<SCITEGIC>MOL_PROPERTY
Tether
SciTegic.value.DoubleValue
0.000

@<TRIPOS>MOLECULE
guest-3_vm2.mol2 : vm2 ligand conformer 334
          29          28           1
SMALL
USER_CHARGES
 
@<TRIPOS>ATOM
       1    C1      21.034955   17.876593   21.065302 C.3        1 MOL1        -0.2427
       2    H1      21.522557   18.529577   20.329740 H          1 MOL1         0.0958
       3    H2      21.724354   17.735856   21.907958 H          1 MOL1         0.0958
       4    H3      20.874774   16.898412   20.593610 H          1 MOL1         0.0958
       5    C2      19.695578   18.478452   21.539755 C.3        1 MOL1        -0.1412
       6    H4      19.218776   17.780974   22.240183 H          1 MOL1         0.0947
       7    H5      19.016016   18.577764   20.681920 H          1 MOL1         0.0947
       8    C3      19.896384   19.860302   22.205700 C.3        1 MOL1        -0.1437
       9    H6      20.584518   19.779275   23.056098 H          1 MOL1         0.0947
      10    H7      20.390853   20.528104   21.486906 H          1 MOL1         0.0947
      11    C4      18.573180   20.527212   22.656158 C.3        1 MOL1        -0.1437
      12    H8      17.937575   20.676947   21.772573 H          1 MOL1         0.0947
      13    H9      18.798284   21.534342   23.033096 H          1 MOL1         0.0947
      14    C5      17.753135   19.763692   23.731207 C.3        1 MOL1        -0.1437
      15    H10     16.829562   20.335105   23.898059 H          1 MOL1         0.0947
      16    H11     17.422583   18.788644   23.350083 H          1 MOL1         0.0947
      17    C6      18.463089   19.602932   25.101333 C.3        1 MOL1        -0.1437
      18    H12     17.701099   19.657915   25.891258 H          1 MOL1         0.0947
      19    H13     19.138435   20.451679   25.271843 H          1 MOL1         0.0947
      20    C7      19.218479   18.258903   25.260425 C.3        1 MOL1        -0.1477
      21    H14     18.524375   17.429311   25.071799 H          1 MOL1         0.0947
      22    H15     20.020011   18.167202   24.519730 H          1 MOL1         0.0947
      23    C8      19.814334   18.080487   26.669740 C.3        1 MOL1         0.0145
      24    H16     20.253980   17.082984   26.754674 H          1 MOL1         0.0921
      25    H17     19.022517   18.169490   27.418383 H          1 MOL1         0.0921
      26    N1      20.894865   19.089427   27.005381 N.4        1 MOL1        -0.5969
      27    H18     21.681441   19.036770   26.349996 H          1 MOL1         0.3603
      28    H19     21.276770   18.939085   27.945641 H          1 MOL1         0.3603
      29    H20     20.538343   20.049731   26.975850 H          1 MOL1         0.3603
@<TRIPOS>BOND
    1     1     2    1
    2     1     3    1
    3     1     4    1
    4     1     5    1
    5     5     6    1
    6     5     7    1
    7     5     8    1
    8     8     9    1
    9     8    10    1
   10     8    11    1
   11    11    12    1
   12    11    13    1
   13    11    14    1
   14    14    15    1
   15    14    16    1
   16    14    17    1
   17    17    18    1
   18    17    19    1
   19    17    20    1
   20    20    21    1
   21    20    22    1
   22    20    23    1
   23    23    24    1
   24    23    25    1
   25    23    26    1
   26    26    27    1
   27    26    28    1
   28    26    29    1
@<TRIPOS>SUBSTRUCTURE
       1 MOL1            1 RESIDUE      1      MOL     
@<SCITEGIC>MOL_PROPERTY
VM2 Rank
SciTegic.value.IntegerValue
334

@<SCITEGIC>MOL_PROPERTY
Conf_Id
SciTegic.value.IntegerValue
1594

@<SCITEGIC>MOL_PROPERTY
Probability
SciTegic.value.DoubleValue
0.00

@<SCITEGIC>MOL_PROPERTY
Sum Probability
SciTegic.value.DoubleValue
99.88

@<SCITEGIC>MOL_PROPERTY
Delta G
SciTegic.value.DoubleValue
4.483

@<SCITEGIC>MOL_PROPERTY
G
SciTegic.value.DoubleValue
62.631

@<SCITEGIC>MOL_PROPERTY
E
SciTegic.value.DoubleValue
24.487

@<SCITEGIC>MOL_PROPERTY
-TS
SciTegic.value.DoubleValue
38.144

@<SCITEGIC>MOL_PROPERTY
U+W
SciTegic.value.DoubleValue
0.343

@<SCITEGIC>MOL_PROPERTY
U
SciTegic.value.DoubleValue
52.960

@<SCITEGIC>MOL_PROPERTY
W
SciTegic.value.DoubleValue
-52.618

@<SCITEGIC>MOL_PROPERTY
W(PB)
SciTegic.value.DoubleValue
-55.012

@<SCITEGIC>MOL_PROPERTY
W(SA)
SciTegic.value.DoubleValue
2.395

@<SCITEGIC>MOL_PROPERTY
Valence
SciTegic.value.DoubleValue
6.290

@<SCITEGIC>MOL_PROPERTY
Coulomb
SciTegic.value.DoubleValue
46.162

@<SCITEGIC>MOL_PROPERTY
VdW
SciTegic.value.DoubleValue
0.509

@<SCITEGIC>MOL_PROPERTY
VdW6
SciTegic.value.DoubleValue
-10.494

@<SCITEGIC>MOL_PROPERTY
VdW12
SciTegic.value.DoubleValue
11.003

@<SCITEGIC>MOL_PROPERTY
Bond
SciTegic.value.DoubleValue
0.303

@<SCITEGIC>MOL_PROPERTY
Angle
SciTegic.value.DoubleValue
1.847

@<SCITEGIC>MOL_PROPERTY
Pdih
SciTegic.value.DoubleValue
4.139

@<SCITEGIC>MOL_PROPERTY
Idih
SciTegic.value.DoubleValue
0.000

@<SCITEGIC>MOL_PROPERTY
Tether
SciTegic.value.DoubleValue
0.000

@<TRIPOS>MOLECULE
guest-3_vm2.mol2 : vm2 ligand conformer 335
          29          28           1
SMALL
USER_CHARGES
 
@<TRIPOS>ATOM
       1    C1      21.369109   18.956976   20.851062 C.3        1 MOL1        -0.2427
       2    H1      22.012121   19.436418   21.600615 H          1 MOL1         0.0958
       3    H2      21.888857   18.062829   20.483151 H          1 MOL1         0.0958
       4    H3      21.251978   19.649666   20.007459 H          1 MOL1         0.0958
       5    C2      19.999525   18.581298   21.454729 C.3        1 MOL1        -0.1412
       6    H4      20.152691   17.857559   22.265392 H          1 MOL1         0.0947
       7    H5      19.391107   18.075869   20.691884 H          1 MOL1         0.0947
       8    C3      19.246421   19.827580   21.977370 C.3        1 MOL1        -0.1437
       9    H6      19.849163   20.352393   22.728996 H          1 MOL1         0.0947
      10    H7      19.123476   20.536974   21.147442 H          1 MOL1         0.0947
      11    C4      17.844673   19.505529   22.551841 C.3        1 MOL1        -0.1437
      12    H8      17.237055   19.048455   21.758728 H          1 MOL1         0.0947
      13    H9      17.342332   20.449910   22.802619 H          1 MOL1         0.0947
      14    C5      17.813008   18.577887   23.796668 C.3        1 MOL1        -0.1437
      15    H10     16.756193   18.398186   24.037958 H          1 MOL1         0.0947
      16    H11     18.225419   17.588859   23.557869 H          1 MOL1         0.0947
      17    C6      18.494176   19.162419   25.062128 C.3        1 MOL1        -0.1437
      18    H12     17.916059   18.838250   25.937637 H          1 MOL1         0.0947
      19    H13     18.436046   20.259527   25.049075 H          1 MOL1         0.0947
      20    C7      19.963044   18.704039   25.247716 C.3        1 MOL1        -0.1477
      21    H14     20.007101   17.609240   25.319497 H          1 MOL1         0.0947
      22    H15     20.560962   18.980775   24.373044 H          1 MOL1         0.0947
      23    C8      20.624880   19.325178   26.492725 C.3        1 MOL1         0.0145
      24    H16     20.573567   20.415579   26.431325 H          1 MOL1         0.0921
      25    H17     21.678427   19.034577   26.526183 H          1 MOL1         0.0921
      26    N1      19.989163   18.897093   27.800761 N.4        1 MOL1        -0.5969
      27    H18     20.460845   19.317652   28.608952 H          1 MOL1         0.3603
      28    H19     20.026715   17.880315   27.927144 H          1 MOL1         0.3603
      29    H20     19.003469   19.172874   27.851212 H          1 MOL1         0.3603
@<TRIPOS>BOND
    1     1     2    1
    2     1     3    1
    3     1     4    1
    4     1     5    1
    5     5     6    1
    6     5     7    1
    7     5     8    1
    8     8     9    1
    9     8    10    1
   10     8    11    1
   11    11    12    1
   12    11    13    1
   13    11    14    1
   14    14    15    1
   15    14    16    1
   16    14    17    1
   17    17    18    1
   18    17    19    1
   19    17    20    1
   20    20    21    1
   21    20    22    1
   22    20    23    1
   23    23    24    1
   24    23    25    1
   25    23    26    1
   26    26    27    1
   27    26    28    1
   28    26    29    1
@<TRIPOS>SUBSTRUCTURE
       1 MOL1            1 RESIDUE      1      MOL     
@<SCITEGIC>MOL_PROPERTY
VM2 Rank
SciTegic.value.IntegerValue
335

@<SCITEGIC>MOL_PROPERTY
Conf_Id
SciTegic.value.IntegerValue
1634

@<SCITEGIC>MOL_PROPERTY
Probability
SciTegic.value.DoubleValue
0.00

@<SCITEGIC>MOL_PROPERTY
Sum Probability
SciTegic.value.DoubleValue
99.88

@<SCITEGIC>MOL_PROPERTY
Delta G
SciTegic.value.DoubleValue
4.485

@<SCITEGIC>MOL_PROPERTY
G
SciTegic.value.DoubleValue
62.633

@<SCITEGIC>MOL_PROPERTY
E
SciTegic.value.DoubleValue
24.491

@<SCITEGIC>MOL_PROPERTY
-TS
SciTegic.value.DoubleValue
38.143

@<SCITEGIC>MOL_PROPERTY
U+W
SciTegic.value.DoubleValue
0.346

@<SCITEGIC>MOL_PROPERTY
U
SciTegic.value.DoubleValue
52.497

@<SCITEGIC>MOL_PROPERTY
W
SciTegic.value.DoubleValue
-52.151

@<SCITEGIC>MOL_PROPERTY
W(PB)
SciTegic.value.DoubleValue
-54.588

@<SCITEGIC>MOL_PROPERTY
W(SA)
SciTegic.value.DoubleValue
2.437

@<SCITEGIC>MOL_PROPERTY
Valence
SciTegic.value.DoubleValue
6.347

@<SCITEGIC>MOL_PROPERTY
Coulomb
SciTegic.value.DoubleValue
45.529

@<SCITEGIC>MOL_PROPERTY
VdW
SciTegic.value.DoubleValue
0.620

@<SCITEGIC>MOL_PROPERTY
VdW6
SciTegic.value.DoubleValue
-10.347

@<SCITEGIC>MOL_PROPERTY
VdW12
SciTegic.value.DoubleValue
10.967

@<SCITEGIC>MOL_PROPERTY
Bond
SciTegic.value.DoubleValue
0.304

@<SCITEGIC>MOL_PROPERTY
Angle
SciTegic.value.DoubleValue
1.794

@<SCITEGIC>MOL_PROPERTY
Pdih
SciTegic.value.DoubleValue
4.250

@<SCITEGIC>MOL_PROPERTY
Idih
SciTegic.value.DoubleValue
0.000

@<SCITEGIC>MOL_PROPERTY
Tether
SciTegic.value.DoubleValue
0.000

@<TRIPOS>MOLECULE
guest-3_vm2.mol2 : vm2 ligand conformer 336
          29          28           1
SMALL
USER_CHARGES
 
@<TRIPOS>ATOM
       1    C1      20.851024   19.886257   20.561704 C.3        1 MOL1        -0.2427
       2    H1      21.480752   19.973727   21.455674 H          1 MOL1         0.0958
       3    H2      21.061035   18.919765   20.085451 H          1 MOL1         0.0958
       4    H3      21.156216   20.677432   19.864696 H          1 MOL1         0.0958
       5    C2      19.350943   20.020374   20.908444 C.3        1 MOL1        -0.1412
       6    H4      18.772895   20.050271   19.974256 H          1 MOL1         0.0947
       7    H5      19.172426   20.981107   21.411277 H          1 MOL1         0.0947
       8    C3      18.816400   18.862895   21.785969 C.3        1 MOL1        -0.1437
       9    H6      17.729329   18.980824   21.893996 H          1 MOL1         0.0947
      10    H7      18.973839   17.907037   21.267546 H          1 MOL1         0.0947
      11    C4      19.460381   18.807453   23.191850 C.3        1 MOL1        -0.1437
      12    H8      19.355065   19.788408   23.667246 H          1 MOL1         0.0947
      13    H9      20.536016   18.609869   23.097712 H          1 MOL1         0.0947
      14    C5      18.818047   17.705147   24.069324 C.3        1 MOL1        -0.1437
      15    H10     17.741964   17.891429   24.189405 H          1 MOL1         0.0947
      16    H11     18.901873   16.751277   23.530209 H          1 MOL1         0.0947
      17    C6      19.484879   17.530891   25.459011 C.3        1 MOL1        -0.1437
      18    H12     20.572163   17.663573   25.381560 H          1 MOL1         0.0947
      19    H13     19.340930   16.486987   25.770378 H          1 MOL1         0.0947
      20    C7      18.900660   18.428465   26.582432 C.3        1 MOL1        -0.1477
      21    H14     17.825775   18.227810   26.682811 H          1 MOL1         0.0947
      22    H15     19.352211   18.137110   27.540045 H          1 MOL1         0.0947
      23    C8      19.102812   19.942955   26.385953 C.3        1 MOL1         0.0145
      24    H16     18.662512   20.478536   27.231369 H          1 MOL1         0.0921
      25    H17     18.591008   20.270760   25.478530 H          1 MOL1         0.0921
      26    N1      20.558855   20.353563   26.290313 N.4        1 MOL1        -0.5969
      27    H18     21.079298   20.102484   27.137272 H          1 MOL1         0.3603
      28    H19     20.662129   21.366295   26.163412 H          1 MOL1         0.3603
      29    H20     21.026055   19.897908   25.500421 H          1 MOL1         0.3603
@<TRIPOS>BOND
    1     1     2    1
    2     1     3    1
    3     1     4    1
    4     1     5    1
    5     5     6    1
    6     5     7    1
    7     5     8    1
    8     8     9    1
    9     8    10    1
   10     8    11    1
   11    11    12    1
   12    11    13    1
   13    11    14    1
   14    14    15    1
   15    14    16    1
   16    14    17    1
   17    17    18    1
   18    17    19    1
   19    17    20    1
   20    20    21    1
   21    20    22    1
   22    20    23    1
   23    23    24    1
   24    23    25    1
   25    23    26    1
   26    26    27    1
   27    26    28    1
   28    26    29    1
@<TRIPOS>SUBSTRUCTURE
       1 MOL1            1 RESIDUE      1      MOL     
@<SCITEGIC>MOL_PROPERTY
VM2 Rank
SciTegic.value.IntegerValue
336

@<SCITEGIC>MOL_PROPERTY
Conf_Id
SciTegic.value.IntegerValue
1050

@<SCITEGIC>MOL_PROPERTY
Probability
SciTegic.value.DoubleValue
0.00

@<SCITEGIC>MOL_PROPERTY
Sum Probability
SciTegic.value.DoubleValue
99.89

@<SCITEGIC>MOL_PROPERTY
Delta G
SciTegic.value.DoubleValue
4.489

@<SCITEGIC>MOL_PROPERTY
G
SciTegic.value.DoubleValue
62.637

@<SCITEGIC>MOL_PROPERTY
E
SciTegic.value.DoubleValue
24.821

@<SCITEGIC>MOL_PROPERTY
-TS
SciTegic.value.DoubleValue
37.816

@<SCITEGIC>MOL_PROPERTY
U+W
SciTegic.value.DoubleValue
0.676

@<SCITEGIC>MOL_PROPERTY
U
SciTegic.value.DoubleValue
53.088

@<SCITEGIC>MOL_PROPERTY
W
SciTegic.value.DoubleValue
-52.412

@<SCITEGIC>MOL_PROPERTY
W(PB)
SciTegic.value.DoubleValue
-54.872

@<SCITEGIC>MOL_PROPERTY
W(SA)
SciTegic.value.DoubleValue
2.460

@<SCITEGIC>MOL_PROPERTY
Valence
SciTegic.value.DoubleValue
5.783

@<SCITEGIC>MOL_PROPERTY
Coulomb
SciTegic.value.DoubleValue
46.617

@<SCITEGIC>MOL_PROPERTY
VdW
SciTegic.value.DoubleValue
0.688

@<SCITEGIC>MOL_PROPERTY
VdW6
SciTegic.value.DoubleValue
-10.105

@<SCITEGIC>MOL_PROPERTY
VdW12
SciTegic.value.DoubleValue
10.792

@<SCITEGIC>MOL_PROPERTY
Bond
SciTegic.value.DoubleValue
0.290

@<SCITEGIC>MOL_PROPERTY
Angle
SciTegic.value.DoubleValue
1.682

@<SCITEGIC>MOL_PROPERTY
Pdih
SciTegic.value.DoubleValue
3.811

@<SCITEGIC>MOL_PROPERTY
Idih
SciTegic.value.DoubleValue
0.000

@<SCITEGIC>MOL_PROPERTY
Tether
SciTegic.value.DoubleValue
0.000

@<TRIPOS>MOLECULE
guest-3_vm2.mol2 : vm2 ligand conformer 337
          29          28           1
SMALL
USER_CHARGES
 
@<TRIPOS>ATOM
       1    C1      21.009069   19.264069   20.141424 C.3        1 MOL1        -0.2427
       2    H1      21.015357   19.978612   19.308103 H          1 MOL1         0.0958
       3    H2      21.870664   19.487854   20.783914 H          1 MOL1         0.0958
       4    H3      21.145968   18.258135   19.723597 H          1 MOL1         0.0958
       5    C2      19.687523   19.361527   20.932656 C.3        1 MOL1        -0.1412
       6    H4      18.844189   19.164131   20.256311 H          1 MOL1         0.0947
       7    H5      19.565790   20.389384   21.297897 H          1 MOL1         0.0947
       8    C3      19.655369   18.360950   22.112594 C.3        1 MOL1        -0.1437
       9    H6      19.820616   17.348996   21.717893 H          1 MOL1         0.0947
      10    H7      20.493574   18.564158   22.789160 H          1 MOL1         0.0947
      11    C4      18.312125   18.367604   22.888482 C.3        1 MOL1        -0.1437
      12    H8      18.255324   17.477748   23.530249 H          1 MOL1         0.0947
      13    H9      17.495316   18.256374   22.162062 H          1 MOL1         0.0947
      14    C5      18.051835   19.637824   23.743768 C.3        1 MOL1        -0.1437
      15    H10     18.528104   20.518726   23.296147 H          1 MOL1         0.0947
      16    H11     16.973081   19.845441   23.722791 H          1 MOL1         0.0947
      17    C6      18.471227   19.512708   25.231063 C.3        1 MOL1        -0.1437
      18    H12     17.908506   18.692293   25.696243 H          1 MOL1         0.0947
      19    H13     18.165243   20.429900   25.753260 H          1 MOL1         0.0947
      20    C7      19.988287   19.296024   25.447188 C.3        1 MOL1        -0.1477
      21    H14     20.288593   18.312601   25.064548 H          1 MOL1         0.0947
      22    H15     20.549576   20.048077   24.877026 H          1 MOL1         0.0947
      23    C8      20.395278   19.402062   26.929266 C.3        1 MOL1         0.0145
      24    H16     20.101684   20.379030   27.322591 H          1 MOL1         0.0921
      25    H17     21.481541   19.311788   27.015285 H          1 MOL1         0.0921
      26    N1      19.773289   18.335230   27.808559 N.4        1 MOL1        -0.5969
      27    H18     18.749774   18.386267   27.798929 H          1 MOL1         0.3603
      28    H19     20.070028   18.427015   28.786341 H          1 MOL1         0.3603
      29    H20     20.033089   17.391555   27.503377 H          1 MOL1         0.3603
@<TRIPOS>BOND
    1     1     2    1
    2     1     3    1
    3     1     4    1
    4     1     5    1
    5     5     6    1
    6     5     7    1
    7     5     8    1
    8     8     9    1
    9     8    10    1
   10     8    11    1
   11    11    12    1
   12    11    13    1
   13    11    14    1
   14    14    15    1
   15    14    16    1
   16    14    17    1
   17    17    18    1
   18    17    19    1
   19    17    20    1
   20    20    21    1
   21    20    22    1
   22    20    23    1
   23    23    24    1
   24    23    25    1
   25    23    26    1
   26    26    27    1
   27    26    28    1
   28    26    29    1
@<TRIPOS>SUBSTRUCTURE
       1 MOL1            1 RESIDUE      1      MOL     
@<SCITEGIC>MOL_PROPERTY
VM2 Rank
SciTegic.value.IntegerValue
337

@<SCITEGIC>MOL_PROPERTY
Conf_Id
SciTegic.value.IntegerValue
1968

@<SCITEGIC>MOL_PROPERTY
Probability
SciTegic.value.DoubleValue
0.00

@<SCITEGIC>MOL_PROPERTY
Sum Probability
SciTegic.value.DoubleValue
99.89

@<SCITEGIC>MOL_PROPERTY
Delta G
SciTegic.value.DoubleValue
4.503

@<SCITEGIC>MOL_PROPERTY
G
SciTegic.value.DoubleValue
62.651

@<SCITEGIC>MOL_PROPERTY
E
SciTegic.value.DoubleValue
24.940

@<SCITEGIC>MOL_PROPERTY
-TS
SciTegic.value.DoubleValue
37.711

@<SCITEGIC>MOL_PROPERTY
U+W
SciTegic.value.DoubleValue
0.795

@<SCITEGIC>MOL_PROPERTY
U
SciTegic.value.DoubleValue
52.817

@<SCITEGIC>MOL_PROPERTY
W
SciTegic.value.DoubleValue
-52.022

@<SCITEGIC>MOL_PROPERTY
W(PB)
SciTegic.value.DoubleValue
-54.465

@<SCITEGIC>MOL_PROPERTY
W(SA)
SciTegic.value.DoubleValue
2.444

@<SCITEGIC>MOL_PROPERTY
Valence
SciTegic.value.DoubleValue
6.436

@<SCITEGIC>MOL_PROPERTY
Coulomb
SciTegic.value.DoubleValue
45.404

@<SCITEGIC>MOL_PROPERTY
VdW
SciTegic.value.DoubleValue
0.977

@<SCITEGIC>MOL_PROPERTY
VdW6
SciTegic.value.DoubleValue
-9.703

@<SCITEGIC>MOL_PROPERTY
VdW12
SciTegic.value.DoubleValue
10.681

@<SCITEGIC>MOL_PROPERTY
Bond
SciTegic.value.DoubleValue
0.304

@<SCITEGIC>MOL_PROPERTY
Angle
SciTegic.value.DoubleValue
1.504

@<SCITEGIC>MOL_PROPERTY
Pdih
SciTegic.value.DoubleValue
4.628

@<SCITEGIC>MOL_PROPERTY
Idih
SciTegic.value.DoubleValue
0.000

@<SCITEGIC>MOL_PROPERTY
Tether
SciTegic.value.DoubleValue
0.000

@<TRIPOS>MOLECULE
guest-3_vm2.mol2 : vm2 ligand conformer 338
          29          28           1
SMALL
USER_CHARGES
 
@<TRIPOS>ATOM
       1    C1      20.644492   17.628276   21.021020 C.3        1 MOL1        -0.2427
       2    H1      20.474668   17.079789   21.955696 H          1 MOL1         0.0958
       3    H2      20.739225   16.887178   20.216833 H          1 MOL1         0.0958
       4    H3      21.601564   18.159727   21.102219 H          1 MOL1         0.0958
       5    C2      19.488391   18.608627   20.718917 C.3        1 MOL1        -0.1412
       6    H4      18.538261   18.058008   20.676857 H          1 MOL1         0.0947
       7    H5      19.640125   19.036721   19.718191 H          1 MOL1         0.0947
       8    C3      19.378416   19.765324   21.741488 C.3        1 MOL1        -0.1437
       9    H6      20.323624   20.325021   21.764906 H          1 MOL1         0.0947
      10    H7      18.611052   20.468916   21.390265 H          1 MOL1         0.0947
      11    C4      19.016757   19.292848   23.169860 C.3        1 MOL1        -0.1437
      12    H8      19.808096   18.635772   23.542597 H          1 MOL1         0.0947
      13    H9      18.095191   18.696183   23.132190 H          1 MOL1         0.0947
      14    C5      18.818668   20.488724   24.133241 C.3        1 MOL1        -0.1437
      15    H10     19.732929   21.096250   24.179591 H          1 MOL1         0.0947
      16    H11     18.042541   21.141360   23.709963 H          1 MOL1         0.0947
      17    C6      18.376852   20.083601   25.563932 C.3        1 MOL1        -0.1437
      18    H12     17.684938   19.231836   25.524388 H          1 MOL1         0.0947
      19    H13     17.791461   20.914641   25.981184 H          1 MOL1         0.0947
      20    C7      19.539969   19.801233   26.552172 C.3        1 MOL1        -0.1477
      21    H14     20.178734   20.691645   26.621913 H          1 MOL1         0.0947
      22    H15     19.123175   19.650117   27.556789 H          1 MOL1         0.0947
      23    C8      20.422284   18.588471   26.199999 C.3        1 MOL1         0.0145
      24    H16     21.203008   18.478045   26.957440 H          1 MOL1         0.0921
      25    H17     20.910649   18.752235   25.236877 H          1 MOL1         0.0921
      26    N1      19.658172   17.280897   26.134371 N.4        1 MOL1        -0.5969
      27    H18     20.271149   16.491981   25.901522 H          1 MOL1         0.3603
      28    H19     18.919194   17.313133   25.425338 H          1 MOL1         0.3603
      29    H20     19.210531   17.059070   27.029726 H          1 MOL1         0.3603
@<TRIPOS>BOND
    1     1     2    1
    2     1     3    1
    3     1     4    1
    4     1     5    1
    5     5     6    1
    6     5     7    1
    7     5     8    1
    8     8     9    1
    9     8    10    1
   10     8    11    1
   11    11    12    1
   12    11    13    1
   13    11    14    1
   14    14    15    1
   15    14    16    1
   16    14    17    1
   17    17    18    1
   18    17    19    1
   19    17    20    1
   20    20    21    1
   21    20    22    1
   22    20    23    1
   23    23    24    1
   24    23    25    1
   25    23    26    1
   26    26    27    1
   27    26    28    1
   28    26    29    1
@<TRIPOS>SUBSTRUCTURE
       1 MOL1            1 RESIDUE      1      MOL     
@<SCITEGIC>MOL_PROPERTY
VM2 Rank
SciTegic.value.IntegerValue
338

@<SCITEGIC>MOL_PROPERTY
Conf_Id
SciTegic.value.IntegerValue
2571

@<SCITEGIC>MOL_PROPERTY
Probability
SciTegic.value.DoubleValue
0.00

@<SCITEGIC>MOL_PROPERTY
Sum Probability
SciTegic.value.DoubleValue
99.89

@<SCITEGIC>MOL_PROPERTY
Delta G
SciTegic.value.DoubleValue
4.504

@<SCITEGIC>MOL_PROPERTY
G
SciTegic.value.DoubleValue
62.652

@<SCITEGIC>MOL_PROPERTY
E
SciTegic.value.DoubleValue
24.827

@<SCITEGIC>MOL_PROPERTY
-TS
SciTegic.value.DoubleValue
37.826

@<SCITEGIC>MOL_PROPERTY
U+W
SciTegic.value.DoubleValue
0.682

@<SCITEGIC>MOL_PROPERTY
U
SciTegic.value.DoubleValue
53.213

@<SCITEGIC>MOL_PROPERTY
W
SciTegic.value.DoubleValue
-52.531

@<SCITEGIC>MOL_PROPERTY
W(PB)
SciTegic.value.DoubleValue
-54.961

@<SCITEGIC>MOL_PROPERTY
W(SA)
SciTegic.value.DoubleValue
2.430

@<SCITEGIC>MOL_PROPERTY
Valence
SciTegic.value.DoubleValue
5.781

@<SCITEGIC>MOL_PROPERTY
Coulomb
SciTegic.value.DoubleValue
46.780

@<SCITEGIC>MOL_PROPERTY
VdW
SciTegic.value.DoubleValue
0.652

@<SCITEGIC>MOL_PROPERTY
VdW6
SciTegic.value.DoubleValue
-10.174

@<SCITEGIC>MOL_PROPERTY
VdW12
SciTegic.value.DoubleValue
10.827

@<SCITEGIC>MOL_PROPERTY
Bond
SciTegic.value.DoubleValue
0.293

@<SCITEGIC>MOL_PROPERTY
Angle
SciTegic.value.DoubleValue
1.656

@<SCITEGIC>MOL_PROPERTY
Pdih
SciTegic.value.DoubleValue
3.831

@<SCITEGIC>MOL_PROPERTY
Idih
SciTegic.value.DoubleValue
0.000

@<SCITEGIC>MOL_PROPERTY
Tether
SciTegic.value.DoubleValue
0.000

@<TRIPOS>MOLECULE
guest-3_vm2.mol2 : vm2 ligand conformer 339
          29          28           1
SMALL
USER_CHARGES
 
@<TRIPOS>ATOM
       1    C1      20.505772   19.707894   20.152521 C.3        1 MOL1        -0.2427
       2    H1      21.027440   18.863181   19.684138 H          1 MOL1         0.0958
       3    H2      20.522649   20.544707   19.442348 H          1 MOL1         0.0958
       4    H3      21.079470   20.009549   21.035854 H          1 MOL1         0.0958
       5    C2      19.049105   19.327839   20.506504 C.3        1 MOL1        -0.1412
       6    H4      18.535397   19.051447   19.575068 H          1 MOL1         0.0947
       7    H5      18.510924   20.201216   20.900360 H          1 MOL1         0.0947
       8    C3      18.948892   18.140102   21.497996 C.3        1 MOL1        -0.1437
       9    H6      18.081656   17.528894   21.212187 H          1 MOL1         0.0947
      10    H7      19.821943   17.481559   21.391905 H          1 MOL1         0.0947
      11    C4      18.764701   18.543905   22.983804 C.3        1 MOL1        -0.1437
      12    H8      18.633987   17.622943   23.565653 H          1 MOL1         0.0947
      13    H9      17.830458   19.111411   23.093745 H          1 MOL1         0.0947
      14    C5      19.938062   19.367120   23.570261 C.3        1 MOL1        -0.1437
      15    H10     20.885493   18.835125   23.408193 H          1 MOL1         0.0947
      16    H11     20.013897   20.318126   23.028028 H          1 MOL1         0.0947
      17    C6      19.774432   19.693069   25.075245 C.3        1 MOL1        -0.1437
      18    H12     18.819855   20.212830   25.232440 H          1 MOL1         0.0947
      19    H13     20.563744   20.400959   25.364126 H          1 MOL1         0.0947
      20    C7      19.861192   18.447605   25.992607 C.3        1 MOL1        -0.1477
      21    H14     19.018355   17.770809   25.805312 H          1 MOL1         0.0947
      22    H15     20.775176   17.885825   25.758566 H          1 MOL1         0.0947
      23    C8      19.885371   18.816910   27.488136 C.3        1 MOL1         0.0145
      24    H16     20.724359   19.488883   27.687947 H          1 MOL1         0.0921
      25    H17     20.024295   17.910746   28.084034 H          1 MOL1         0.0921
      26    N1      18.616471   19.493555   27.967926 N.4        1 MOL1        -0.5969
      27    H18     18.444471   20.372472   27.469742 H          1 MOL1         0.3603
      28    H19     18.659291   19.717884   28.968129 H          1 MOL1         0.3603
      29    H20     17.792538   18.899470   27.828604 H          1 MOL1         0.3603
@<TRIPOS>BOND
    1     1     2    1
    2     1     3    1
    3     1     4    1
    4     1     5    1
    5     5     6    1
    6     5     7    1
    7     5     8    1
    8     8     9    1
    9     8    10    1
   10     8    11    1
   11    11    12    1
   12    11    13    1
   13    11    14    1
   14    14    15    1
   15    14    16    1
   16    14    17    1
   17    17    18    1
   18    17    19    1
   19    17    20    1
   20    20    21    1
   21    20    22    1
   22    20    23    1
   23    23    24    1
   24    23    25    1
   25    23    26    1
   26    26    27    1
   27    26    28    1
   28    26    29    1
@<TRIPOS>SUBSTRUCTURE
       1 MOL1            1 RESIDUE      1      MOL     
@<SCITEGIC>MOL_PROPERTY
VM2 Rank
SciTegic.value.IntegerValue
339

@<SCITEGIC>MOL_PROPERTY
Conf_Id
SciTegic.value.IntegerValue
2241

@<SCITEGIC>MOL_PROPERTY
Probability
SciTegic.value.DoubleValue
0.00

@<SCITEGIC>MOL_PROPERTY
Sum Probability
SciTegic.value.DoubleValue
99.89

@<SCITEGIC>MOL_PROPERTY
Delta G
SciTegic.value.DoubleValue
4.505

@<SCITEGIC>MOL_PROPERTY
G
SciTegic.value.DoubleValue
62.653

@<SCITEGIC>MOL_PROPERTY
E
SciTegic.value.DoubleValue
24.959

@<SCITEGIC>MOL_PROPERTY
-TS
SciTegic.value.DoubleValue
37.693

@<SCITEGIC>MOL_PROPERTY
U+W
SciTegic.value.DoubleValue
0.815

@<SCITEGIC>MOL_PROPERTY
U
SciTegic.value.DoubleValue
52.595

@<SCITEGIC>MOL_PROPERTY
W
SciTegic.value.DoubleValue
-51.780

@<SCITEGIC>MOL_PROPERTY
W(PB)
SciTegic.value.DoubleValue
-54.223

@<SCITEGIC>MOL_PROPERTY
W(SA)
SciTegic.value.DoubleValue
2.442

@<SCITEGIC>MOL_PROPERTY
Valence
SciTegic.value.DoubleValue
6.347

@<SCITEGIC>MOL_PROPERTY
Coulomb
SciTegic.value.DoubleValue
45.124

@<SCITEGIC>MOL_PROPERTY
VdW
SciTegic.value.DoubleValue
1.124

@<SCITEGIC>MOL_PROPERTY
VdW6
SciTegic.value.DoubleValue
-9.586

@<SCITEGIC>MOL_PROPERTY
VdW12
SciTegic.value.DoubleValue
10.710

@<SCITEGIC>MOL_PROPERTY
Bond
SciTegic.value.DoubleValue
0.296

@<SCITEGIC>MOL_PROPERTY
Angle
SciTegic.value.DoubleValue
1.512

@<SCITEGIC>MOL_PROPERTY
Pdih
SciTegic.value.DoubleValue
4.539

@<SCITEGIC>MOL_PROPERTY
Idih
SciTegic.value.DoubleValue
0.000

@<SCITEGIC>MOL_PROPERTY
Tether
SciTegic.value.DoubleValue
0.000

@<TRIPOS>MOLECULE
guest-3_vm2.mol2 : vm2 ligand conformer 340
          29          28           1
SMALL
USER_CHARGES
 
@<TRIPOS>ATOM
       1    C1      20.124665   19.076313   19.533901 C.3        1 MOL1        -0.2427
       2    H1      20.886943   19.849257   19.370459 H          1 MOL1         0.0958
       3    H2      20.620610   18.097086   19.513851 H          1 MOL1         0.0958
       4    H3      19.420278   19.114841   18.692836 H          1 MOL1         0.0958
       5    C2      19.388012   19.296988   20.872065 C.3        1 MOL1        -0.1412
       6    H4      18.608575   18.531113   20.978904 H          1 MOL1         0.0947
       7    H5      18.878673   20.270528   20.851075 H          1 MOL1         0.0947
       8    C3      20.360950   19.241879   22.073583 C.3        1 MOL1        -0.1437
       9    H6      20.826695   18.248229   22.127906 H          1 MOL1         0.0947
      10    H7      21.178392   19.955792   21.902003 H          1 MOL1         0.0947
      11    C4      19.695320   19.577765   23.430851 C.3        1 MOL1        -0.1437
      12    H8      19.236846   20.574595   23.375249 H          1 MOL1         0.0947
      13    H9      20.487035   19.646260   24.184302 H          1 MOL1         0.0947
      14    C5      18.631708   18.538792   23.870656 C.3        1 MOL1        -0.1437
      15    H10     17.820053   18.537234   23.131705 H          1 MOL1         0.0947
      16    H11     19.058409   17.526545   23.856472 H          1 MOL1         0.0947
      17    C6      18.002942   18.830545   25.258381 C.3        1 MOL1        -0.1437
      18    H12     16.974554   18.443536   25.248875 H          1 MOL1         0.0947
      19    H13     17.905262   19.913008   25.415289 H          1 MOL1         0.0947
      20    C7      18.732099   18.164371   26.455533 C.3        1 MOL1        -0.1477
      21    H14     18.139255   18.321934   27.366316 H          1 MOL1         0.0947
      22    H15     18.762422   17.077804   26.299997 H          1 MOL1         0.0947
      23    C8      20.166253   18.665919   26.709240 C.3        1 MOL1         0.0145
      24    H16     20.788117   18.470044   25.832732 H          1 MOL1         0.0921
      25    H17     20.595257   18.121249   27.554658 H          1 MOL1         0.0921
      26    N1      20.242051   20.145428   27.030791 N.4        1 MOL1        -0.5969
      27    H18     19.867944   20.716146   26.266475 H          1 MOL1         0.3603
      28    H19     21.207310   20.451157   27.195759 H          1 MOL1         0.3603
      29    H20     19.705769   20.377631   27.873240 H          1 MOL1         0.3603
@<TRIPOS>BOND
    1     1     2    1
    2     1     3    1
    3     1     4    1
    4     1     5    1
    5     5     6    1
    6     5     7    1
    7     5     8    1
    8     8     9    1
    9     8    10    1
   10     8    11    1
   11    11    12    1
   12    11    13    1
   13    11    14    1
   14    14    15    1
   15    14    16    1
   16    14    17    1
   17    17    18    1
   18    17    19    1
   19    17    20    1
   20    20    21    1
   21    20    22    1
   22    20    23    1
   23    23    24    1
   24    23    25    1
   25    23    26    1
   26    26    27    1
   27    26    28    1
   28    26    29    1
@<TRIPOS>SUBSTRUCTURE
       1 MOL1            1 RESIDUE      1      MOL     
@<SCITEGIC>MOL_PROPERTY
VM2 Rank
SciTegic.value.IntegerValue
340

@<SCITEGIC>MOL_PROPERTY
Conf_Id
SciTegic.value.IntegerValue
243

@<SCITEGIC>MOL_PROPERTY
Probability
SciTegic.value.DoubleValue
0.00

@<SCITEGIC>MOL_PROPERTY
Sum Probability
SciTegic.value.DoubleValue
99.90

@<SCITEGIC>MOL_PROPERTY
Delta G
SciTegic.value.DoubleValue
4.516

@<SCITEGIC>MOL_PROPERTY
G
SciTegic.value.DoubleValue
62.664

@<SCITEGIC>MOL_PROPERTY
E
SciTegic.value.DoubleValue
24.849

@<SCITEGIC>MOL_PROPERTY
-TS
SciTegic.value.DoubleValue
37.815

@<SCITEGIC>MOL_PROPERTY
U+W
SciTegic.value.DoubleValue
0.705

@<SCITEGIC>MOL_PROPERTY
U
SciTegic.value.DoubleValue
53.045

@<SCITEGIC>MOL_PROPERTY
W
SciTegic.value.DoubleValue
-52.341

@<SCITEGIC>MOL_PROPERTY
W(PB)
SciTegic.value.DoubleValue
-54.798

@<SCITEGIC>MOL_PROPERTY
W(SA)
SciTegic.value.DoubleValue
2.457

@<SCITEGIC>MOL_PROPERTY
Valence
SciTegic.value.DoubleValue
5.932

@<SCITEGIC>MOL_PROPERTY
Coulomb
SciTegic.value.DoubleValue
46.352

@<SCITEGIC>MOL_PROPERTY
VdW
SciTegic.value.DoubleValue
0.761

@<SCITEGIC>MOL_PROPERTY
VdW6
SciTegic.value.DoubleValue
-9.985

@<SCITEGIC>MOL_PROPERTY
VdW12
SciTegic.value.DoubleValue
10.746

@<SCITEGIC>MOL_PROPERTY
Bond
SciTegic.value.DoubleValue
0.298

@<SCITEGIC>MOL_PROPERTY
Angle
SciTegic.value.DoubleValue
1.641

@<SCITEGIC>MOL_PROPERTY
Pdih
SciTegic.value.DoubleValue
3.993

@<SCITEGIC>MOL_PROPERTY
Idih
SciTegic.value.DoubleValue
0.000

@<SCITEGIC>MOL_PROPERTY
Tether
SciTegic.value.DoubleValue
0.000

@<TRIPOS>MOLECULE
guest-3_vm2.mol2 : vm2 ligand conformer 341
          29          28           1
SMALL
USER_CHARGES
 
@<TRIPOS>ATOM
       1    C1      21.229125   18.732360   21.425388 C.3        1 MOL1        -0.2427
       2    H1      20.966859   17.757114   21.853333 H          1 MOL1         0.0958
       3    H2      22.067767   18.572022   20.735598 H          1 MOL1         0.0958
       4    H3      21.578768   19.387705   22.233599 H          1 MOL1         0.0958
       5    C2      20.029926   19.357488   20.680202 C.3        1 MOL1        -0.1412
       6    H4      19.655763   18.646991   19.929965 H          1 MOL1         0.0947
       7    H5      20.383005   20.234056   20.119245 H          1 MOL1         0.0947
       8    C3      18.866484   19.801994   21.602825 C.3        1 MOL1        -0.1437
       9    H6      19.213148   20.588416   22.284189 H          1 MOL1         0.0947
      10    H7      18.107347   20.278425   20.967285 H          1 MOL1         0.0947
      11    C4      18.180794   18.648247   22.384820 C.3        1 MOL1        -0.1437
      12    H8      18.248265   17.721429   21.798818 H          1 MOL1         0.0947
      13    H9      17.106842   18.865272   22.466416 H          1 MOL1         0.0947
      14    C5      18.736075   18.399112   23.811612 C.3        1 MOL1        -0.1437
      15    H10     18.315897   17.454836   24.184231 H          1 MOL1         0.0947
      16    H11     19.821637   18.256530   23.775212 H          1 MOL1         0.0947
      17    C6      18.382052   19.528190   24.813063 C.3        1 MOL1        -0.1437
      18    H12     17.296730   19.698175   24.797132 H          1 MOL1         0.0947
      19    H13     18.848666   20.472751   24.505482 H          1 MOL1         0.0947
      20    C7      18.811113   19.203667   26.263121 C.3        1 MOL1        -0.1477
      21    H14     18.452716   20.000937   26.927828 H          1 MOL1         0.0947
      22    H15     18.324856   18.276208   26.593792 H          1 MOL1         0.0947
      23    C8      20.338053   19.070695   26.414126 C.3        1 MOL1         0.0145
      24    H16     20.822016   19.994699   26.086460 H          1 MOL1         0.0921
      25    H17     20.701973   18.250686   25.789777 H          1 MOL1         0.0921
      26    N1      20.770378   18.796248   27.839845 N.4        1 MOL1        -0.5969
      27    H18     21.789731   18.711191   27.919315 H          1 MOL1         0.3603
      28    H19     20.368623   17.924000   28.199340 H          1 MOL1         0.3603
      29    H20     20.482602   19.546337   28.477043 H          1 MOL1         0.3603
@<TRIPOS>BOND
    1     1     2    1
    2     1     3    1
    3     1     4    1
    4     1     5    1
    5     5     6    1
    6     5     7    1
    7     5     8    1
    8     8     9    1
    9     8    10    1
   10     8    11    1
   11    11    12    1
   12    11    13    1
   13    11    14    1
   14    14    15    1
   15    14    16    1
   16    14    17    1
   17    17    18    1
   18    17    19    1
   19    17    20    1
   20    20    21    1
   21    20    22    1
   22    20    23    1
   23    23    24    1
   24    23    25    1
   25    23    26    1
   26    26    27    1
   27    26    28    1
   28    26    29    1
@<TRIPOS>SUBSTRUCTURE
       1 MOL1            1 RESIDUE      1      MOL     
@<SCITEGIC>MOL_PROPERTY
VM2 Rank
SciTegic.value.IntegerValue
341

@<SCITEGIC>MOL_PROPERTY
Conf_Id
SciTegic.value.IntegerValue
627

@<SCITEGIC>MOL_PROPERTY
Probability
SciTegic.value.DoubleValue
0.00

@<SCITEGIC>MOL_PROPERTY
Sum Probability
SciTegic.value.DoubleValue
99.90

@<SCITEGIC>MOL_PROPERTY
Delta G
SciTegic.value.DoubleValue
4.521

@<SCITEGIC>MOL_PROPERTY
G
SciTegic.value.DoubleValue
62.669

@<SCITEGIC>MOL_PROPERTY
E
SciTegic.value.DoubleValue
25.029

@<SCITEGIC>MOL_PROPERTY
-TS
SciTegic.value.DoubleValue
37.640

@<SCITEGIC>MOL_PROPERTY
U+W
SciTegic.value.DoubleValue
0.884

@<SCITEGIC>MOL_PROPERTY
U
SciTegic.value.DoubleValue
52.951

@<SCITEGIC>MOL_PROPERTY
W
SciTegic.value.DoubleValue
-52.067

@<SCITEGIC>MOL_PROPERTY
W(PB)
SciTegic.value.DoubleValue
-54.508

@<SCITEGIC>MOL_PROPERTY
W(SA)
SciTegic.value.DoubleValue
2.441

@<SCITEGIC>MOL_PROPERTY
Valence
SciTegic.value.DoubleValue
6.563

@<SCITEGIC>MOL_PROPERTY
Coulomb
SciTegic.value.DoubleValue
45.468

@<SCITEGIC>MOL_PROPERTY
VdW
SciTegic.value.DoubleValue
0.920

@<SCITEGIC>MOL_PROPERTY
VdW6
SciTegic.value.DoubleValue
-9.773

@<SCITEGIC>MOL_PROPERTY
VdW12
SciTegic.value.DoubleValue
10.693

@<SCITEGIC>MOL_PROPERTY
Bond
SciTegic.value.DoubleValue
0.311

@<SCITEGIC>MOL_PROPERTY
Angle
SciTegic.value.DoubleValue
1.606

@<SCITEGIC>MOL_PROPERTY
Pdih
SciTegic.value.DoubleValue
4.646

@<SCITEGIC>MOL_PROPERTY
Idih
SciTegic.value.DoubleValue
0.000

@<SCITEGIC>MOL_PROPERTY
Tether
SciTegic.value.DoubleValue
0.000

@<TRIPOS>MOLECULE
guest-3_vm2.mol2 : vm2 ligand conformer 342
          29          28           1
SMALL
USER_CHARGES
 
@<TRIPOS>ATOM
       1    C1      21.143388   18.280117   22.040773 C.3        1 MOL1        -0.2427
       2    H1      21.820765   19.143129   22.005982 H          1 MOL1         0.0958
       3    H2      20.844568   18.124099   23.082229 H          1 MOL1         0.0958
       4    H3      21.713938   17.396531   21.726816 H          1 MOL1         0.0958
       5    C2      19.926505   18.493334   21.110798 C.3        1 MOL1        -0.1412
       6    H4      19.268156   17.613971   21.137106 H          1 MOL1         0.0947
       7    H5      20.300445   18.559236   20.079458 H          1 MOL1         0.0947
       8    C3      19.118673   19.780721   21.419834 C.3        1 MOL1        -0.1437
       9    H6      19.782730   20.570932   21.793743 H          1 MOL1         0.0947
      10    H7      18.723389   20.163173   20.468649 H          1 MOL1         0.0947
      11    C4      17.906491   19.582220   22.369831 C.3        1 MOL1        -0.1437
      12    H8      17.218929   18.854036   21.918108 H          1 MOL1         0.0947
      13    H9      17.345974   20.525685   22.422664 H          1 MOL1         0.0947
      14    C5      18.237986   19.122971   23.811074 C.3        1 MOL1        -0.1437
      15    H10     17.292820   18.986752   24.354355 H          1 MOL1         0.0947
      16    H11     18.709544   18.133623   23.781905 H          1 MOL1         0.0947
      17    C6      19.118719   20.132532   24.590082 C.3        1 MOL1        -0.1437
      18    H12     18.637394   21.119911   24.569343 H          1 MOL1         0.0947
      19    H13     20.091128   20.251914   24.095346 H          1 MOL1         0.0947
      20    C7      19.348382   19.721793   26.063093 C.3        1 MOL1        -0.1477
      21    H14     19.897344   20.523199   26.575225 H          1 MOL1         0.0947
      22    H15     18.381675   19.625545   26.575106 H          1 MOL1         0.0947
      23    C8      20.138500   18.406480   26.194964 C.3        1 MOL1         0.0145
      24    H16     21.102001   18.503746   25.687454 H          1 MOL1         0.0921
      25    H17     19.581902   17.591422   25.725355 H          1 MOL1         0.0921
      26    N1      20.405358   18.017832   27.634549 N.4        1 MOL1        -0.5969
      27    H18     20.951216   18.732093   28.127815 H          1 MOL1         0.3603
      28    H19     20.932203   17.139994   27.701091 H          1 MOL1         0.3603
      29    H20     19.535735   17.885292   28.161464 H          1 MOL1         0.3603
@<TRIPOS>BOND
    1     1     2    1
    2     1     3    1
    3     1     4    1
    4     1     5    1
    5     5     6    1
    6     5     7    1
    7     5     8    1
    8     8     9    1
    9     8    10    1
   10     8    11    1
   11    11    12    1
   12    11    13    1
   13    11    14    1
   14    14    15    1
   15    14    16    1
   16    14    17    1
   17    17    18    1
   18    17    19    1
   19    17    20    1
   20    20    21    1
   21    20    22    1
   22    20    23    1
   23    23    24    1
   24    23    25    1
   25    23    26    1
   26    26    27    1
   27    26    28    1
   28    26    29    1
@<TRIPOS>SUBSTRUCTURE
       1 MOL1            1 RESIDUE      1      MOL     
@<SCITEGIC>MOL_PROPERTY
VM2 Rank
SciTegic.value.IntegerValue
342

@<SCITEGIC>MOL_PROPERTY
Conf_Id
SciTegic.value.IntegerValue
1169

@<SCITEGIC>MOL_PROPERTY
Probability
SciTegic.value.DoubleValue
0.00

@<SCITEGIC>MOL_PROPERTY
Sum Probability
SciTegic.value.DoubleValue
99.90

@<SCITEGIC>MOL_PROPERTY
Delta G
SciTegic.value.DoubleValue
4.521

@<SCITEGIC>MOL_PROPERTY
G
SciTegic.value.DoubleValue
62.669

@<SCITEGIC>MOL_PROPERTY
E
SciTegic.value.DoubleValue
24.481

@<SCITEGIC>MOL_PROPERTY
-TS
SciTegic.value.DoubleValue
38.188

@<SCITEGIC>MOL_PROPERTY
U+W
SciTegic.value.DoubleValue
0.337

@<SCITEGIC>MOL_PROPERTY
U
SciTegic.value.DoubleValue
52.714

@<SCITEGIC>MOL_PROPERTY
W
SciTegic.value.DoubleValue
-52.378

@<SCITEGIC>MOL_PROPERTY
W(PB)
SciTegic.value.DoubleValue
-54.792

@<SCITEGIC>MOL_PROPERTY
W(SA)
SciTegic.value.DoubleValue
2.414

@<SCITEGIC>MOL_PROPERTY
Valence
SciTegic.value.DoubleValue
6.446

@<SCITEGIC>MOL_PROPERTY
Coulomb
SciTegic.value.DoubleValue
45.880

@<SCITEGIC>MOL_PROPERTY
VdW
SciTegic.value.DoubleValue
0.388

@<SCITEGIC>MOL_PROPERTY
VdW6
SciTegic.value.DoubleValue
-10.677

@<SCITEGIC>MOL_PROPERTY
VdW12
SciTegic.value.DoubleValue
11.065

@<SCITEGIC>MOL_PROPERTY
Bond
SciTegic.value.DoubleValue
0.301

@<SCITEGIC>MOL_PROPERTY
Angle
SciTegic.value.DoubleValue
1.937

@<SCITEGIC>MOL_PROPERTY
Pdih
SciTegic.value.DoubleValue
4.208

@<SCITEGIC>MOL_PROPERTY
Idih
SciTegic.value.DoubleValue
0.000

@<SCITEGIC>MOL_PROPERTY
Tether
SciTegic.value.DoubleValue
0.000

@<TRIPOS>MOLECULE
guest-3_vm2.mol2 : vm2 ligand conformer 343
          29          28           1
SMALL
USER_CHARGES
 
@<TRIPOS>ATOM
       1    C1      21.288278   18.686196   22.050077 C.3        1 MOL1        -0.2427
       2    H1      22.293562   19.020958   21.763441 H          1 MOL1         0.0958
       3    H2      21.140859   18.954554   23.101038 H          1 MOL1         0.0958
       4    H3      21.267147   17.591569   21.971426 H          1 MOL1         0.0958
       5    C2      20.224431   19.328249   21.129685 C.3        1 MOL1        -0.1412
       6    H4      20.486945   19.081722   20.091346 H          1 MOL1         0.0947
       7    H5      20.270715   20.423816   21.200309 H          1 MOL1         0.0947
       8    C3      18.780014   18.831461   21.398622 C.3        1 MOL1        -0.1437
       9    H6      18.245539   18.823584   20.438650 H          1 MOL1         0.0947
      10    H7      18.788870   17.785323   21.731384 H          1 MOL1         0.0947
      11    C4      17.953512   19.714174   22.372785 C.3        1 MOL1        -0.1437
      12    H8      16.921872   19.336979   22.396067 H          1 MOL1         0.0947
      13    H9      17.888201   20.730272   21.960079 H          1 MOL1         0.0947
      14    C5      18.480332   19.802483   23.826272 C.3        1 MOL1        -0.1437
      15    H10     19.471801   20.270462   23.829688 H          1 MOL1         0.0947
      16    H11     17.826997   20.484276   24.387840 H          1 MOL1         0.0947
      17    C6      18.512524   18.433579   24.552094 C.3        1 MOL1        -0.1437
      18    H12     19.196852   17.745616   24.039261 H          1 MOL1         0.0947
      19    H13     17.515422   17.975324   24.499108 H          1 MOL1         0.0947
      20    C7      18.929504   18.547542   26.036799 C.3        1 MOL1        -0.1477
      21    H14     18.234701   19.213310   26.565897 H          1 MOL1         0.0947
      22    H15     18.840315   17.560121   26.508959 H          1 MOL1         0.0947
      23    C8      20.371605   19.059674   26.209377 C.3        1 MOL1         0.0145
      24    H16     20.462970   20.060713   25.780162 H          1 MOL1         0.0921
      25    H17     21.063232   18.394853   25.684947 H          1 MOL1         0.0921
      26    N1      20.803799   19.134642   27.659289 N.4        1 MOL1        -0.5969
      27    H18     20.206892   19.766581   28.203167 H          1 MOL1         0.3603
      28    H19     21.766184   19.477600   27.753022 H          1 MOL1         0.3603
      29    H20     20.767562   18.217422   28.116276 H          1 MOL1         0.3603
@<TRIPOS>BOND
    1     1     2    1
    2     1     3    1
    3     1     4    1
    4     1     5    1
    5     5     6    1
    6     5     7    1
    7     5     8    1
    8     8     9    1
    9     8    10    1
   10     8    11    1
   11    11    12    1
   12    11    13    1
   13    11    14    1
   14    14    15    1
   15    14    16    1
   16    14    17    1
   17    17    18    1
   18    17    19    1
   19    17    20    1
   20    20    21    1
   21    20    22    1
   22    20    23    1
   23    23    24    1
   24    23    25    1
   25    23    26    1
   26    26    27    1
   27    26    28    1
   28    26    29    1
@<TRIPOS>SUBSTRUCTURE
       1 MOL1            1 RESIDUE      1      MOL     
@<SCITEGIC>MOL_PROPERTY
VM2 Rank
SciTegic.value.IntegerValue
343

@<SCITEGIC>MOL_PROPERTY
Conf_Id
SciTegic.value.IntegerValue
1811

@<SCITEGIC>MOL_PROPERTY
Probability
SciTegic.value.DoubleValue
0.00

@<SCITEGIC>MOL_PROPERTY
Sum Probability
SciTegic.value.DoubleValue
99.90

@<SCITEGIC>MOL_PROPERTY
Delta G
SciTegic.value.DoubleValue
4.524

@<SCITEGIC>MOL_PROPERTY
G
SciTegic.value.DoubleValue
62.672

@<SCITEGIC>MOL_PROPERTY
E
SciTegic.value.DoubleValue
24.483

@<SCITEGIC>MOL_PROPERTY
-TS
SciTegic.value.DoubleValue
38.188

@<SCITEGIC>MOL_PROPERTY
U+W
SciTegic.value.DoubleValue
0.339

@<SCITEGIC>MOL_PROPERTY
U
SciTegic.value.DoubleValue
52.715

@<SCITEGIC>MOL_PROPERTY
W
SciTegic.value.DoubleValue
-52.376

@<SCITEGIC>MOL_PROPERTY
W(PB)
SciTegic.value.DoubleValue
-54.771

@<SCITEGIC>MOL_PROPERTY
W(SA)
SciTegic.value.DoubleValue
2.395

@<SCITEGIC>MOL_PROPERTY
Valence
SciTegic.value.DoubleValue
6.446

@<SCITEGIC>MOL_PROPERTY
Coulomb
SciTegic.value.DoubleValue
45.880

@<SCITEGIC>MOL_PROPERTY
VdW
SciTegic.value.DoubleValue
0.389

@<SCITEGIC>MOL_PROPERTY
VdW6
SciTegic.value.DoubleValue
-10.678

@<SCITEGIC>MOL_PROPERTY
VdW12
SciTegic.value.DoubleValue
11.066

@<SCITEGIC>MOL_PROPERTY
Bond
SciTegic.value.DoubleValue
0.301

@<SCITEGIC>MOL_PROPERTY
Angle
SciTegic.value.DoubleValue
1.936

@<SCITEGIC>MOL_PROPERTY
Pdih
SciTegic.value.DoubleValue
4.208

@<SCITEGIC>MOL_PROPERTY
Idih
SciTegic.value.DoubleValue
0.000

@<SCITEGIC>MOL_PROPERTY
Tether
SciTegic.value.DoubleValue
0.000

@<TRIPOS>MOLECULE
guest-3_vm2.mol2 : vm2 ligand conformer 344
          29          28           1
SMALL
USER_CHARGES
 
@<TRIPOS>ATOM
       1    C1      20.082152   18.504898   20.016235 C.3        1 MOL1        -0.2427
       2    H1      18.993085   18.529849   19.885847 H          1 MOL1         0.0958
       3    H2      20.536850   18.664783   19.030035 H          1 MOL1         0.0958
       4    H3      20.365016   17.500778   20.357907 H          1 MOL1         0.0958
       5    C2      20.558198   19.585508   21.013232 C.3        1 MOL1        -0.1412
       6    H4      20.242795   20.577590   20.661103 H          1 MOL1         0.0947
       7    H5      21.657016   19.598433   21.025026 H          1 MOL1         0.0947
       8    C3      20.047738   19.355250   22.455920 C.3        1 MOL1        -0.1437
       9    H6      20.396044   18.374155   22.803528 H          1 MOL1         0.0947
      10    H7      20.505143   20.107256   23.113322 H          1 MOL1         0.0947
      11    C4      18.507123   19.439194   22.581258 C.3        1 MOL1        -0.1437
      12    H8      18.045468   18.591466   22.057787 H          1 MOL1         0.0947
      13    H9      18.156818   20.344922   22.067450 H          1 MOL1         0.0947
      14    C5      17.986308   19.477941   24.041064 C.3        1 MOL1        -0.1437
      15    H10     18.358227   20.378186   24.546637 H          1 MOL1         0.0947
      16    H11     16.895038   19.597976   23.995675 H          1 MOL1         0.0947
      17    C6      18.292460   18.203917   24.875280 C.3        1 MOL1        -0.1437
      18    H12     18.326792   17.328157   24.212748 H          1 MOL1         0.0947
      19    H13     17.452150   18.023133   25.559991 H          1 MOL1         0.0947
      20    C7      19.590766   18.271802   25.718935 C.3        1 MOL1        -0.1477
      21    H14     19.762830   17.289178   26.177893 H          1 MOL1         0.0947
      22    H15     20.458622   18.470608   25.080704 H          1 MOL1         0.0947
      23    C8      19.518653   19.333004   26.833086 C.3        1 MOL1         0.0145
      24    H16     18.661310   19.129007   27.480145 H          1 MOL1         0.0921
      25    H17     19.390351   20.325563   26.394349 H          1 MOL1         0.0921
      26    N1      20.760600   19.366486   27.699989 N.4        1 MOL1        -0.5969
      27    H18     20.924176   18.468463   28.167164 H          1 MOL1         0.3603
      28    H19     20.692051   20.077948   28.436040 H          1 MOL1         0.3603
      29    H20     21.601732   19.580969   27.154246 H          1 MOL1         0.3603
@<TRIPOS>BOND
    1     1     2    1
    2     1     3    1
    3     1     4    1
    4     1     5    1
    5     5     6    1
    6     5     7    1
    7     5     8    1
    8     8     9    1
    9     8    10    1
   10     8    11    1
   11    11    12    1
   12    11    13    1
   13    11    14    1
   14    14    15    1
   15    14    16    1
   16    14    17    1
   17    17    18    1
   18    17    19    1
   19    17    20    1
   20    20    21    1
   21    20    22    1
   22    20    23    1
   23    23    24    1
   24    23    25    1
   25    23    26    1
   26    26    27    1
   27    26    28    1
   28    26    29    1
@<TRIPOS>SUBSTRUCTURE
       1 MOL1            1 RESIDUE      1      MOL     
@<SCITEGIC>MOL_PROPERTY
VM2 Rank
SciTegic.value.IntegerValue
344

@<SCITEGIC>MOL_PROPERTY
Conf_Id
SciTegic.value.IntegerValue
308

@<SCITEGIC>MOL_PROPERTY
Probability
SciTegic.value.DoubleValue
0.00

@<SCITEGIC>MOL_PROPERTY
Sum Probability
SciTegic.value.DoubleValue
99.91

@<SCITEGIC>MOL_PROPERTY
Delta G
SciTegic.value.DoubleValue
4.525

@<SCITEGIC>MOL_PROPERTY
G
SciTegic.value.DoubleValue
62.673

@<SCITEGIC>MOL_PROPERTY
E
SciTegic.value.DoubleValue
24.946

@<SCITEGIC>MOL_PROPERTY
-TS
SciTegic.value.DoubleValue
37.727

@<SCITEGIC>MOL_PROPERTY
U+W
SciTegic.value.DoubleValue
0.801

@<SCITEGIC>MOL_PROPERTY
U
SciTegic.value.DoubleValue
53.070

@<SCITEGIC>MOL_PROPERTY
W
SciTegic.value.DoubleValue
-52.269

@<SCITEGIC>MOL_PROPERTY
W(PB)
SciTegic.value.DoubleValue
-54.714

@<SCITEGIC>MOL_PROPERTY
W(SA)
SciTegic.value.DoubleValue
2.445

@<SCITEGIC>MOL_PROPERTY
Valence
SciTegic.value.DoubleValue
6.477

@<SCITEGIC>MOL_PROPERTY
Coulomb
SciTegic.value.DoubleValue
45.680

@<SCITEGIC>MOL_PROPERTY
VdW
SciTegic.value.DoubleValue
0.913

@<SCITEGIC>MOL_PROPERTY
VdW6
SciTegic.value.DoubleValue
-9.819

@<SCITEGIC>MOL_PROPERTY
VdW12
SciTegic.value.DoubleValue
10.732

@<SCITEGIC>MOL_PROPERTY
Bond
SciTegic.value.DoubleValue
0.300

@<SCITEGIC>MOL_PROPERTY
Angle
SciTegic.value.DoubleValue
1.628

@<SCITEGIC>MOL_PROPERTY
Pdih
SciTegic.value.DoubleValue
4.549

@<SCITEGIC>MOL_PROPERTY
Idih
SciTegic.value.DoubleValue
0.000

@<SCITEGIC>MOL_PROPERTY
Tether
SciTegic.value.DoubleValue
0.000

@<TRIPOS>MOLECULE
guest-3_vm2.mol2 : vm2 ligand conformer 345
          29          28           1
SMALL
USER_CHARGES
 
@<TRIPOS>ATOM
       1    C1      19.920038   18.061114   20.115726 C.3        1 MOL1        -0.2427
       2    H1      20.161989   17.430246   20.978202 H          1 MOL1         0.0958
       3    H2      19.415010   17.430476   19.372673 H          1 MOL1         0.0958
       4    H3      20.864419   18.404753   19.674003 H          1 MOL1         0.0958
       5    C2      19.025271   19.260895   20.505010 C.3        1 MOL1        -0.1412
       6    H4      18.051082   18.908428   20.871440 H          1 MOL1         0.0947
       7    H5      18.814507   19.836193   19.592611 H          1 MOL1         0.0947
       8    C3      19.683223   20.204855   21.544171 C.3        1 MOL1        -0.1437
       9    H6      20.777437   20.168156   21.451982 H          1 MOL1         0.0947
      10    H7      19.400472   21.237029   21.295115 H          1 MOL1         0.0947
      11    C4      19.264551   19.949354   23.015240 C.3        1 MOL1        -0.1437
      12    H8      18.180283   20.095032   23.115754 H          1 MOL1         0.0947
      13    H9      19.736240   20.722189   23.634948 H          1 MOL1         0.0947
      14    C5      19.646673   18.547818   23.551964 C.3        1 MOL1        -0.1437
      15    H10     19.112842   17.784784   22.971460 H          1 MOL1         0.0947
      16    H11     20.719475   18.368340   23.397715 H          1 MOL1         0.0947
      17    C6      19.292893   18.338946   25.045018 C.3        1 MOL1        -0.1437
      18    H12     19.454045   17.280930   25.294425 H          1 MOL1         0.0947
      19    H13     18.222357   18.532700   25.194990 H          1 MOL1         0.0947
      20    C7      20.133496   19.212477   26.009692 C.3        1 MOL1        -0.1477
      21    H14     21.200166   19.079734   25.785342 H          1 MOL1         0.0947
      22    H15     19.909984   20.276188   25.861147 H          1 MOL1         0.0947
      23    C8      19.897839   18.852095   27.488935 C.3        1 MOL1         0.0145
      24    H16     20.569315   19.442528   28.118250 H          1 MOL1         0.0921
      25    H17     20.121105   17.794027   27.650225 H          1 MOL1         0.0921
      26    N1      18.480016   19.110446   27.959244 N.4        1 MOL1        -0.5969
      27    H18     18.357364   18.870156   28.949082 H          1 MOL1         0.3603
      28    H19     17.798715   18.558146   27.429092 H          1 MOL1         0.3603
      29    H20     18.218391   20.096305   27.855089 H          1 MOL1         0.3603
@<TRIPOS>BOND
    1     1     2    1
    2     1     3    1
    3     1     4    1
    4     1     5    1
    5     5     6    1
    6     5     7    1
    7     5     8    1
    8     8     9    1
    9     8    10    1
   10     8    11    1
   11    11    12    1
   12    11    13    1
   13    11    14    1
   14    14    15    1
   15    14    16    1
   16    14    17    1
   17    17    18    1
   18    17    19    1
   19    17    20    1
   20    20    21    1
   21    20    22    1
   22    20    23    1
   23    23    24    1
   24    23    25    1
   25    23    26    1
   26    26    27    1
   27    26    28    1
   28    26    29    1
@<TRIPOS>SUBSTRUCTURE
       1 MOL1            1 RESIDUE      1      MOL     
@<SCITEGIC>MOL_PROPERTY
VM2 Rank
SciTegic.value.IntegerValue
345

@<SCITEGIC>MOL_PROPERTY
Conf_Id
SciTegic.value.IntegerValue
248

@<SCITEGIC>MOL_PROPERTY
Probability
SciTegic.value.DoubleValue
0.00

@<SCITEGIC>MOL_PROPERTY
Sum Probability
SciTegic.value.DoubleValue
99.91

@<SCITEGIC>MOL_PROPERTY
Delta G
SciTegic.value.DoubleValue
4.532

@<SCITEGIC>MOL_PROPERTY
G
SciTegic.value.DoubleValue
62.680

@<SCITEGIC>MOL_PROPERTY
E
SciTegic.value.DoubleValue
24.987

@<SCITEGIC>MOL_PROPERTY
-TS
SciTegic.value.DoubleValue
37.693

@<SCITEGIC>MOL_PROPERTY
U+W
SciTegic.value.DoubleValue
0.842

@<SCITEGIC>MOL_PROPERTY
U
SciTegic.value.DoubleValue
52.595

@<SCITEGIC>MOL_PROPERTY
W
SciTegic.value.DoubleValue
-51.753

@<SCITEGIC>MOL_PROPERTY
W(PB)
SciTegic.value.DoubleValue
-54.234

@<SCITEGIC>MOL_PROPERTY
W(SA)
SciTegic.value.DoubleValue
2.481

@<SCITEGIC>MOL_PROPERTY
Valence
SciTegic.value.DoubleValue
6.347

@<SCITEGIC>MOL_PROPERTY
Coulomb
SciTegic.value.DoubleValue
45.125

@<SCITEGIC>MOL_PROPERTY
VdW
SciTegic.value.DoubleValue
1.124

@<SCITEGIC>MOL_PROPERTY
VdW6
SciTegic.value.DoubleValue
-9.586

@<SCITEGIC>MOL_PROPERTY
VdW12
SciTegic.value.DoubleValue
10.710

@<SCITEGIC>MOL_PROPERTY
Bond
SciTegic.value.DoubleValue
0.296

@<SCITEGIC>MOL_PROPERTY
Angle
SciTegic.value.DoubleValue
1.512

@<SCITEGIC>MOL_PROPERTY
Pdih
SciTegic.value.DoubleValue
4.539

@<SCITEGIC>MOL_PROPERTY
Idih
SciTegic.value.DoubleValue
0.000

@<SCITEGIC>MOL_PROPERTY
Tether
SciTegic.value.DoubleValue
0.000

@<TRIPOS>MOLECULE
guest-3_vm2.mol2 : vm2 ligand conformer 346
          29          28           1
SMALL
USER_CHARGES
 
@<TRIPOS>ATOM
       1    C1      20.902449   19.380613   20.300303 C.3        1 MOL1        -0.2427
       2    H1      21.413183   19.523561   21.259013 H          1 MOL1         0.0958
       3    H2      21.225117   18.416163   19.887040 H          1 MOL1         0.0958
       4    H3      21.248260   20.167665   19.617772 H          1 MOL1         0.0958
       5    C2      19.363766   19.429659   20.447572 C.3        1 MOL1        -0.1412
       6    H4      18.923600   19.293220   19.449824 H          1 MOL1         0.0947
       7    H5      19.043417   20.425093   20.785268 H          1 MOL1         0.0947
       8    C3      18.802718   18.333749   21.389936 C.3        1 MOL1        -0.1437
       9    H6      17.846121   17.985084   20.976749 H          1 MOL1         0.0947
      10    H7      19.462956   17.455550   21.387267 H          1 MOL1         0.0947
      11    C4      18.539762   18.796992   22.846288 C.3        1 MOL1        -0.1437
      12    H8      18.079028   17.959027   23.383846 H          1 MOL1         0.0947
      13    H9      17.795451   19.605054   22.842351 H          1 MOL1         0.0947
      14    C5      19.806172   19.268826   23.602863 C.3        1 MOL1        -0.1437
      15    H10     20.580743   18.491055   23.557714 H          1 MOL1         0.0947
      16    H11     20.215885   20.151249   23.095266 H          1 MOL1         0.0947
      17    C6      19.541160   19.655027   25.079083 C.3        1 MOL1        -0.1437
      18    H12     18.739134   20.404683   25.125720 H          1 MOL1         0.0947
      19    H13     20.443388   20.144278   25.469156 H          1 MOL1         0.0947
      20    C7      19.184109   18.448092   25.983033 C.3        1 MOL1        -0.1477
      21    H14     18.259816   17.975910   25.628862 H          1 MOL1         0.0947
      22    H15     19.971215   17.684996   25.920528 H          1 MOL1         0.0947
      23    C8      18.975436   18.851041   27.455636 C.3        1 MOL1         0.0145
      24    H16     18.632649   17.981948   28.023710 H          1 MOL1         0.0921
      25    H17     18.206384   19.625508   27.520054 H          1 MOL1         0.0921
      26    N1      20.228427   19.374002   28.130286 N.4        1 MOL1        -0.5969
      27    H18     20.983176   18.680058   28.121256 H          1 MOL1         0.3603
      28    H19     20.058142   19.619339   29.111815 H          1 MOL1         0.3603
      29    H20     20.585086   20.216091   27.667864 H          1 MOL1         0.3603
@<TRIPOS>BOND
    1     1     2    1
    2     1     3    1
    3     1     4    1
    4     1     5    1
    5     5     6    1
    6     5     7    1
    7     5     8    1
    8     8     9    1
    9     8    10    1
   10     8    11    1
   11    11    12    1
   12    11    13    1
   13    11    14    1
   14    14    15    1
   15    14    16    1
   16    14    17    1
   17    17    18    1
   18    17    19    1
   19    17    20    1
   20    20    21    1
   21    20    22    1
   22    20    23    1
   23    23    24    1
   24    23    25    1
   25    23    26    1
   26    26    27    1
   27    26    28    1
   28    26    29    1
@<TRIPOS>SUBSTRUCTURE
       1 MOL1            1 RESIDUE      1      MOL     
@<SCITEGIC>MOL_PROPERTY
VM2 Rank
SciTegic.value.IntegerValue
346

@<SCITEGIC>MOL_PROPERTY
Conf_Id
SciTegic.value.IntegerValue
958

@<SCITEGIC>MOL_PROPERTY
Probability
SciTegic.value.DoubleValue
0.00

@<SCITEGIC>MOL_PROPERTY
Sum Probability
SciTegic.value.DoubleValue
99.91

@<SCITEGIC>MOL_PROPERTY
Delta G
SciTegic.value.DoubleValue
4.534

@<SCITEGIC>MOL_PROPERTY
G
SciTegic.value.DoubleValue
62.682

@<SCITEGIC>MOL_PROPERTY
E
SciTegic.value.DoubleValue
25.035

@<SCITEGIC>MOL_PROPERTY
-TS
SciTegic.value.DoubleValue
37.648

@<SCITEGIC>MOL_PROPERTY
U+W
SciTegic.value.DoubleValue
0.890

@<SCITEGIC>MOL_PROPERTY
U
SciTegic.value.DoubleValue
52.563

@<SCITEGIC>MOL_PROPERTY
W
SciTegic.value.DoubleValue
-51.673

@<SCITEGIC>MOL_PROPERTY
W(PB)
SciTegic.value.DoubleValue
-54.120

@<SCITEGIC>MOL_PROPERTY
W(SA)
SciTegic.value.DoubleValue
2.448

@<SCITEGIC>MOL_PROPERTY
Valence
SciTegic.value.DoubleValue
6.390

@<SCITEGIC>MOL_PROPERTY
Coulomb
SciTegic.value.DoubleValue
44.996

@<SCITEGIC>MOL_PROPERTY
VdW
SciTegic.value.DoubleValue
1.177

@<SCITEGIC>MOL_PROPERTY
VdW6
SciTegic.value.DoubleValue
-9.539

@<SCITEGIC>MOL_PROPERTY
VdW12
SciTegic.value.DoubleValue
10.716

@<SCITEGIC>MOL_PROPERTY
Bond
SciTegic.value.DoubleValue
0.302

@<SCITEGIC>MOL_PROPERTY
Angle
SciTegic.value.DoubleValue
1.557

@<SCITEGIC>MOL_PROPERTY
Pdih
SciTegic.value.DoubleValue
4.532

@<SCITEGIC>MOL_PROPERTY
Idih
SciTegic.value.DoubleValue
0.000

@<SCITEGIC>MOL_PROPERTY
Tether
SciTegic.value.DoubleValue
0.000

@<TRIPOS>MOLECULE
guest-3_vm2.mol2 : vm2 ligand conformer 347
          29          28           1
SMALL
USER_CHARGES
 
@<TRIPOS>ATOM
       1    C1      19.905488   19.874472   20.303439 C.3        1 MOL1        -0.2427
       2    H1      19.750678   20.214107   19.271195 H          1 MOL1         0.0958
       3    H2      19.466637   20.630140   20.966672 H          1 MOL1         0.0958
       4    H3      20.987217   19.834634   20.485369 H          1 MOL1         0.0958
       5    C2      19.253199   18.491674   20.520049 C.3        1 MOL1        -0.1412
       6    H4      19.607256   17.808278   19.735632 H          1 MOL1         0.0947
       7    H5      18.166225   18.576194   20.382107 H          1 MOL1         0.0947
       8    C3      19.552974   17.853902   21.900609 C.3        1 MOL1        -0.1437
       9    H6      19.083546   16.860525   21.914457 H          1 MOL1         0.0947
      10    H7      20.631412   17.673188   22.007526 H          1 MOL1         0.0947
      11    C4      19.018558   18.658117   23.114194 C.3        1 MOL1        -0.1437
      12    H8      18.675460   17.941980   23.872414 H          1 MOL1         0.0947
      13    H9      18.134207   19.239815   22.820217 H          1 MOL1         0.0947
      14    C5      20.085400   19.582263   23.755196 C.3        1 MOL1        -0.1437
      15    H10     20.908357   18.972527   24.151360 H          1 MOL1         0.0947
      16    H11     20.534882   20.222055   22.986655 H          1 MOL1         0.0947
      17    C6      19.519678   20.495447   24.873275 C.3        1 MOL1        -0.1437
      18    H12     18.771761   21.173348   24.439382 H          1 MOL1         0.0947
      19    H13     20.329144   21.137978   25.246512 H          1 MOL1         0.0947
      20    C7      18.883730   19.745138   26.069823 C.3        1 MOL1        -0.1477
      21    H14     18.540093   20.482485   26.807411 H          1 MOL1         0.0947
      22    H15     17.989586   19.200800   25.740199 H          1 MOL1         0.0947
      23    C8      19.863448   18.771430   26.750404 C.3        1 MOL1         0.0145
      24    H16     20.748537   19.316670   27.088982 H          1 MOL1         0.0921
      25    H17     20.181043   18.007960   26.035432 H          1 MOL1         0.0921
      26    N1      19.261525   18.065557   27.948010 N.4        1 MOL1        -0.5969
      27    H18     18.965908   18.728235   28.672514 H          1 MOL1         0.3603
      28    H19     19.929651   17.422042   28.386295 H          1 MOL1         0.3603
      29    H20     18.437752   17.511924   27.690684 H          1 MOL1         0.3603
@<TRIPOS>BOND
    1     1     2    1
    2     1     3    1
    3     1     4    1
    4     1     5    1
    5     5     6    1
    6     5     7    1
    7     5     8    1
    8     8     9    1
    9     8    10    1
   10     8    11    1
   11    11    12    1
   12    11    13    1
   13    11    14    1
   14    14    15    1
   15    14    16    1
   16    14    17    1
   17    17    18    1
   18    17    19    1
   19    17    20    1
   20    20    21    1
   21    20    22    1
   22    20    23    1
   23    23    24    1
   24    23    25    1
   25    23    26    1
   26    26    27    1
   27    26    28    1
   28    26    29    1
@<TRIPOS>SUBSTRUCTURE
       1 MOL1            1 RESIDUE      1      MOL     
@<SCITEGIC>MOL_PROPERTY
VM2 Rank
SciTegic.value.IntegerValue
347

@<SCITEGIC>MOL_PROPERTY
Conf_Id
SciTegic.value.IntegerValue
606

@<SCITEGIC>MOL_PROPERTY
Probability
SciTegic.value.DoubleValue
0.00

@<SCITEGIC>MOL_PROPERTY
Sum Probability
SciTegic.value.DoubleValue
99.92

@<SCITEGIC>MOL_PROPERTY
Delta G
SciTegic.value.DoubleValue
4.535

@<SCITEGIC>MOL_PROPERTY
G
SciTegic.value.DoubleValue
62.683

@<SCITEGIC>MOL_PROPERTY
E
SciTegic.value.DoubleValue
24.759

@<SCITEGIC>MOL_PROPERTY
-TS
SciTegic.value.DoubleValue
37.924

@<SCITEGIC>MOL_PROPERTY
U+W
SciTegic.value.DoubleValue
0.614

@<SCITEGIC>MOL_PROPERTY
U
SciTegic.value.DoubleValue
52.669

@<SCITEGIC>MOL_PROPERTY
W
SciTegic.value.DoubleValue
-52.054

@<SCITEGIC>MOL_PROPERTY
W(PB)
SciTegic.value.DoubleValue
-54.506

@<SCITEGIC>MOL_PROPERTY
W(SA)
SciTegic.value.DoubleValue
2.452

@<SCITEGIC>MOL_PROPERTY
Valence
SciTegic.value.DoubleValue
6.354

@<SCITEGIC>MOL_PROPERTY
Coulomb
SciTegic.value.DoubleValue
45.455

@<SCITEGIC>MOL_PROPERTY
VdW
SciTegic.value.DoubleValue
0.860

@<SCITEGIC>MOL_PROPERTY
VdW6
SciTegic.value.DoubleValue
-10.069

@<SCITEGIC>MOL_PROPERTY
VdW12
SciTegic.value.DoubleValue
10.929

@<SCITEGIC>MOL_PROPERTY
Bond
SciTegic.value.DoubleValue
0.298

@<SCITEGIC>MOL_PROPERTY
Angle
SciTegic.value.DoubleValue
1.597

@<SCITEGIC>MOL_PROPERTY
Pdih
SciTegic.value.DoubleValue
4.458

@<SCITEGIC>MOL_PROPERTY
Idih
SciTegic.value.DoubleValue
0.000

@<SCITEGIC>MOL_PROPERTY
Tether
SciTegic.value.DoubleValue
0.000

@<TRIPOS>MOLECULE
guest-3_vm2.mol2 : vm2 ligand conformer 348
          29          28           1
SMALL
USER_CHARGES
 
@<TRIPOS>ATOM
       1    C1      20.439888   17.775281   20.951508 C.3        1 MOL1        -0.2427
       2    H1      20.655469   18.277336   19.999463 H          1 MOL1         0.0958
       3    H2      21.251902   18.004721   21.652568 H          1 MOL1         0.0958
       4    H3      20.453837   16.692596   20.771504 H          1 MOL1         0.0958
       5    C2      19.067837   18.213544   21.511213 C.3        1 MOL1        -0.1412
       6    H4      18.879325   17.708628   22.468004 H          1 MOL1         0.0947
       7    H5      18.280093   17.867062   20.827889 H          1 MOL1         0.0947
       8    C3      18.935014   19.748451   21.679951 C.3        1 MOL1        -0.1437
       9    H6      19.022476   20.221770   20.692388 H          1 MOL1         0.0947
      10    H7      17.920447   19.981847   22.029203 H          1 MOL1         0.0947
      11    C4      19.971375   20.400861   22.634283 C.3        1 MOL1        -0.1437
      12    H8      19.767273   21.478933   22.689721 H          1 MOL1         0.0947
      13    H9      20.974238   20.314059   22.195469 H          1 MOL1         0.0947
      14    C5      19.999444   19.820645   24.071378 C.3        1 MOL1        -0.1437
      15    H10     20.305205   18.769058   24.027503 H          1 MOL1         0.0947
      16    H11     20.774269   20.349476   24.643188 H          1 MOL1         0.0947
      17    C6      18.644058   19.951351   24.809375 C.3        1 MOL1        -0.1437
      18    H12     17.897003   19.301128   24.334970 H          1 MOL1         0.0947
      19    H13     18.275186   20.979740   24.693310 H          1 MOL1         0.0947
      20    C7      18.707585   19.628426   26.323885 C.3        1 MOL1        -0.1477
      21    H14     19.413296   20.300649   26.829761 H          1 MOL1         0.0947
      22    H15     17.721724   19.845995   26.755794 H          1 MOL1         0.0947
      23    C8      19.048791   18.159657   26.649884 C.3        1 MOL1         0.0145
      24    H16     18.527322   17.494718   25.956209 H          1 MOL1         0.0921
      25    H17     18.705259   17.930763   27.662334 H          1 MOL1         0.0921
      26    N1      20.530006   17.839786   26.603524 N.4        1 MOL1        -0.5969
      27    H18     20.928508   18.022550   25.678309 H          1 MOL1         0.3603
      28    H19     20.713251   16.854793   26.824500 H          1 MOL1         0.3603
      29    H20     21.059754   18.401223   27.278416 H          1 MOL1         0.3603
@<TRIPOS>BOND
    1     1     2    1
    2     1     3    1
    3     1     4    1
    4     1     5    1
    5     5     6    1
    6     5     7    1
    7     5     8    1
    8     8     9    1
    9     8    10    1
   10     8    11    1
   11    11    12    1
   12    11    13    1
   13    11    14    1
   14    14    15    1
   15    14    16    1
   16    14    17    1
   17    17    18    1
   18    17    19    1
   19    17    20    1
   20    20    21    1
   21    20    22    1
   22    20    23    1
   23    23    24    1
   24    23    25    1
   25    23    26    1
   26    26    27    1
   27    26    28    1
   28    26    29    1
@<TRIPOS>SUBSTRUCTURE
       1 MOL1            1 RESIDUE      1      MOL     
@<SCITEGIC>MOL_PROPERTY
VM2 Rank
SciTegic.value.IntegerValue
348

@<SCITEGIC>MOL_PROPERTY
Conf_Id
SciTegic.value.IntegerValue
1055

@<SCITEGIC>MOL_PROPERTY
Probability
SciTegic.value.DoubleValue
0.00

@<SCITEGIC>MOL_PROPERTY
Sum Probability
SciTegic.value.DoubleValue
99.92

@<SCITEGIC>MOL_PROPERTY
Delta G
SciTegic.value.DoubleValue
4.548

@<SCITEGIC>MOL_PROPERTY
G
SciTegic.value.DoubleValue
62.696

@<SCITEGIC>MOL_PROPERTY
E
SciTegic.value.DoubleValue
24.584

@<SCITEGIC>MOL_PROPERTY
-TS
SciTegic.value.DoubleValue
38.112

@<SCITEGIC>MOL_PROPERTY
U+W
SciTegic.value.DoubleValue
0.439

@<SCITEGIC>MOL_PROPERTY
U
SciTegic.value.DoubleValue
53.073

@<SCITEGIC>MOL_PROPERTY
W
SciTegic.value.DoubleValue
-52.634

@<SCITEGIC>MOL_PROPERTY
W(PB)
SciTegic.value.DoubleValue
-55.037

@<SCITEGIC>MOL_PROPERTY
W(SA)
SciTegic.value.DoubleValue
2.404

@<SCITEGIC>MOL_PROPERTY
Valence
SciTegic.value.DoubleValue
5.506

@<SCITEGIC>MOL_PROPERTY
Coulomb
SciTegic.value.DoubleValue
46.959

@<SCITEGIC>MOL_PROPERTY
VdW
SciTegic.value.DoubleValue
0.608

@<SCITEGIC>MOL_PROPERTY
VdW6
SciTegic.value.DoubleValue
-11.164

@<SCITEGIC>MOL_PROPERTY
VdW12
SciTegic.value.DoubleValue
11.771

@<SCITEGIC>MOL_PROPERTY
Bond
SciTegic.value.DoubleValue
0.325

@<SCITEGIC>MOL_PROPERTY
Angle
SciTegic.value.DoubleValue
1.842

@<SCITEGIC>MOL_PROPERTY
Pdih
SciTegic.value.DoubleValue
3.339

@<SCITEGIC>MOL_PROPERTY
Idih
SciTegic.value.DoubleValue
0.000

@<SCITEGIC>MOL_PROPERTY
Tether
SciTegic.value.DoubleValue
0.000

@<TRIPOS>MOLECULE
guest-3_vm2.mol2 : vm2 ligand conformer 349
          29          28           1
SMALL
USER_CHARGES
 
@<TRIPOS>ATOM
       1    C1      19.461668   20.533608   20.542207 C.3        1 MOL1        -0.2427
       2    H1      18.392935   20.397747   20.747050 H          1 MOL1         0.0958
       3    H2      19.647297   21.612275   20.458968 H          1 MOL1         0.0958
       4    H3      19.683575   20.079954   19.567557 H          1 MOL1         0.0958
       5    C2      20.341592   19.918230   21.654404 C.3        1 MOL1        -0.1412
       6    H4      20.104155   20.393941   22.613419 H          1 MOL1         0.0947
       7    H5      21.391550   20.164616   21.443482 H          1 MOL1         0.0947
       8    C3      20.207943   18.376689   21.755366 C.3        1 MOL1        -0.1437
       9    H6      20.365625   17.952670   20.754083 H          1 MOL1         0.0947
      10    H7      21.022678   17.976474   22.374211 H          1 MOL1         0.0947
      11    C4      18.845333   17.871601   22.303483 C.3        1 MOL1        -0.1437
      12    H8      18.595180   16.936916   21.782958 H          1 MOL1         0.0947
      13    H9      18.038293   18.571200   22.053173 H          1 MOL1         0.0947
      14    C5      18.829496   17.574637   23.825140 C.3        1 MOL1        -0.1437
      15    H10     17.847157   17.155124   24.082597 H          1 MOL1         0.0947
      16    H11     19.565418   16.790958   24.052134 H          1 MOL1         0.0947
      17    C6      19.100093   18.808474   24.716868 C.3        1 MOL1        -0.1437
      18    H12     18.423704   19.625428   24.429751 H          1 MOL1         0.0947
      19    H13     20.125715   19.159526   24.549351 H          1 MOL1         0.0947
      20    C7      18.908868   18.484155   26.217295 C.3        1 MOL1        -0.1477
      21    H14     17.892590   18.101460   26.380497 H          1 MOL1         0.0947
      22    H15     19.597564   17.684190   26.520191 H          1 MOL1         0.0947
      23    C8      19.117102   19.713202   27.122901 C.3        1 MOL1         0.0145
      24    H16     18.884041   19.445249   28.157029 H          1 MOL1         0.0921
      25    H17     18.439464   20.514908   26.817190 H          1 MOL1         0.0921
      26    N1      20.531904   20.257405   27.097336 N.4        1 MOL1        -0.5969
      27    H18     20.639835   21.065641   27.720020 H          1 MOL1         0.3603
      28    H19     20.803806   20.563217   26.157902 H          1 MOL1         0.3603
      29    H20     21.215059   19.554306   27.397794 H          1 MOL1         0.3603
@<TRIPOS>BOND
    1     1     2    1
    2     1     3    1
    3     1     4    1
    4     1     5    1
    5     5     6    1
    6     5     7    1
    7     5     8    1
    8     8     9    1
    9     8    10    1
   10     8    11    1
   11    11    12    1
   12    11    13    1
   13    11    14    1
   14    14    15    1
   15    14    16    1
   16    14    17    1
   17    17    18    1
   18    17    19    1
   19    17    20    1
   20    20    21    1
   21    20    22    1
   22    20    23    1
   23    23    24    1
   24    23    25    1
   25    23    26    1
   26    26    27    1
   27    26    28    1
   28    26    29    1
@<TRIPOS>SUBSTRUCTURE
       1 MOL1            1 RESIDUE      1      MOL     
@<SCITEGIC>MOL_PROPERTY
VM2 Rank
SciTegic.value.IntegerValue
349

@<SCITEGIC>MOL_PROPERTY
Conf_Id
SciTegic.value.IntegerValue
2272

@<SCITEGIC>MOL_PROPERTY
Probability
SciTegic.value.DoubleValue
0.00

@<SCITEGIC>MOL_PROPERTY
Sum Probability
SciTegic.value.DoubleValue
99.92

@<SCITEGIC>MOL_PROPERTY
Delta G
SciTegic.value.DoubleValue
4.549

@<SCITEGIC>MOL_PROPERTY
G
SciTegic.value.DoubleValue
62.697

@<SCITEGIC>MOL_PROPERTY
E
SciTegic.value.DoubleValue
24.980

@<SCITEGIC>MOL_PROPERTY
-TS
SciTegic.value.DoubleValue
37.718

@<SCITEGIC>MOL_PROPERTY
U+W
SciTegic.value.DoubleValue
0.835

@<SCITEGIC>MOL_PROPERTY
U
SciTegic.value.DoubleValue
53.239

@<SCITEGIC>MOL_PROPERTY
W
SciTegic.value.DoubleValue
-52.404

@<SCITEGIC>MOL_PROPERTY
W(PB)
SciTegic.value.DoubleValue
-54.857

@<SCITEGIC>MOL_PROPERTY
W(SA)
SciTegic.value.DoubleValue
2.453

@<SCITEGIC>MOL_PROPERTY
Valence
SciTegic.value.DoubleValue
6.409

@<SCITEGIC>MOL_PROPERTY
Coulomb
SciTegic.value.DoubleValue
45.846

@<SCITEGIC>MOL_PROPERTY
VdW
SciTegic.value.DoubleValue
0.985

@<SCITEGIC>MOL_PROPERTY
VdW6
SciTegic.value.DoubleValue
-9.690

@<SCITEGIC>MOL_PROPERTY
VdW12
SciTegic.value.DoubleValue
10.675

@<SCITEGIC>MOL_PROPERTY
Bond
SciTegic.value.DoubleValue
0.300

@<SCITEGIC>MOL_PROPERTY
Angle
SciTegic.value.DoubleValue
1.493

@<SCITEGIC>MOL_PROPERTY
Pdih
SciTegic.value.DoubleValue
4.616

@<SCITEGIC>MOL_PROPERTY
Idih
SciTegic.value.DoubleValue
0.000

@<SCITEGIC>MOL_PROPERTY
Tether
SciTegic.value.DoubleValue
0.000

@<TRIPOS>MOLECULE
guest-3_vm2.mol2 : vm2 ligand conformer 350
          29          28           1
SMALL
USER_CHARGES
 
@<TRIPOS>ATOM
       1    C1      20.352851   19.264433   20.033158 C.3        1 MOL1        -0.2427
       2    H1      19.495288   19.938861   19.917289 H          1 MOL1         0.0958
       3    H2      21.202027   19.849005   20.410228 H          1 MOL1         0.0958
       4    H3      20.617843   18.892251   19.035078 H          1 MOL1         0.0958
       5    C2      20.024363   18.087892   20.979830 C.3        1 MOL1        -0.1412
       6    H4      20.867201   17.382689   20.975578 H          1 MOL1         0.0947
       7    H5      19.157743   17.533615   20.593245 H          1 MOL1         0.0947
       8    C3      19.754231   18.531730   22.437561 C.3        1 MOL1        -0.1437
       9    H6      19.623718   17.634667   23.058167 H          1 MOL1         0.0947
      10    H7      20.639497   19.056779   22.818777 H          1 MOL1         0.0947
      11    C4      18.506085   19.436029   22.581184 C.3        1 MOL1        -0.1437
      12    H8      17.669324   18.977230   22.036766 H          1 MOL1         0.0947
      13    H9      18.692029   20.404600   22.098393 H          1 MOL1         0.0947
      14    C5      18.057410   19.677422   24.045493 C.3        1 MOL1        -0.1437
      15    H10     17.136836   20.276316   24.010741 H          1 MOL1         0.0947
      16    H11     17.769125   18.725665   24.509626 H          1 MOL1         0.0947
      17    C6      19.088207   20.436540   24.925253 C.3        1 MOL1        -0.1437
      18    H12     18.541827   21.080478   25.628421 H          1 MOL1         0.0947
      19    H13     19.677848   21.118799   24.297614 H          1 MOL1         0.0947
      20    C7      20.039106   19.529728   25.747108 C.3        1 MOL1        -0.1477
      21    H14     20.594873   18.852670   25.089269 H          1 MOL1         0.0947
      22    H15     20.787026   20.163092   26.242349 H          1 MOL1         0.0947
      23    C8      19.296546   18.709807   26.819033 C.3        1 MOL1         0.0145
      24    H16     18.576018   18.040230   26.342976 H          1 MOL1         0.0921
      25    H17     18.752017   19.383892   27.485693 H          1 MOL1         0.0921
      26    N1      20.225201   17.864417   27.666380 N.4        1 MOL1        -0.5969
      27    H18     20.749147   17.188475   27.100763 H          1 MOL1         0.3603
      28    H19     19.711849   17.327883   28.374368 H          1 MOL1         0.3603
      29    H20     20.912853   18.437413   28.166649 H          1 MOL1         0.3603
@<TRIPOS>BOND
    1     1     2    1
    2     1     3    1
    3     1     4    1
    4     1     5    1
    5     5     6    1
    6     5     7    1
    7     5     8    1
    8     8     9    1
    9     8    10    1
   10     8    11    1
   11    11    12    1
   12    11    13    1
   13    11    14    1
   14    14    15    1
   15    14    16    1
   16    14    17    1
   17    17    18    1
   18    17    19    1
   19    17    20    1
   20    20    21    1
   21    20    22    1
   22    20    23    1
   23    23    24    1
   24    23    25    1
   25    23    26    1
   26    26    27    1
   27    26    28    1
   28    26    29    1
@<TRIPOS>SUBSTRUCTURE
       1 MOL1            1 RESIDUE      1      MOL     
@<SCITEGIC>MOL_PROPERTY
VM2 Rank
SciTegic.value.IntegerValue
350

@<SCITEGIC>MOL_PROPERTY
Conf_Id
SciTegic.value.IntegerValue
2304

@<SCITEGIC>MOL_PROPERTY
Probability
SciTegic.value.DoubleValue
0.00

@<SCITEGIC>MOL_PROPERTY
Sum Probability
SciTegic.value.DoubleValue
99.92

@<SCITEGIC>MOL_PROPERTY
Delta G
SciTegic.value.DoubleValue
4.550

@<SCITEGIC>MOL_PROPERTY
G
SciTegic.value.DoubleValue
62.698

@<SCITEGIC>MOL_PROPERTY
E
SciTegic.value.DoubleValue
24.971

@<SCITEGIC>MOL_PROPERTY
-TS
SciTegic.value.DoubleValue
37.727

@<SCITEGIC>MOL_PROPERTY
U+W
SciTegic.value.DoubleValue
0.826

@<SCITEGIC>MOL_PROPERTY
U
SciTegic.value.DoubleValue
53.070

@<SCITEGIC>MOL_PROPERTY
W
SciTegic.value.DoubleValue
-52.244

@<SCITEGIC>MOL_PROPERTY
W(PB)
SciTegic.value.DoubleValue
-54.711

@<SCITEGIC>MOL_PROPERTY
W(SA)
SciTegic.value.DoubleValue
2.467

@<SCITEGIC>MOL_PROPERTY
Valence
SciTegic.value.DoubleValue
6.477

@<SCITEGIC>MOL_PROPERTY
Coulomb
SciTegic.value.DoubleValue
45.680

@<SCITEGIC>MOL_PROPERTY
VdW
SciTegic.value.DoubleValue
0.913

@<SCITEGIC>MOL_PROPERTY
VdW6
SciTegic.value.DoubleValue
-9.819

@<SCITEGIC>MOL_PROPERTY
VdW12
SciTegic.value.DoubleValue
10.732

@<SCITEGIC>MOL_PROPERTY
Bond
SciTegic.value.DoubleValue
0.300

@<SCITEGIC>MOL_PROPERTY
Angle
SciTegic.value.DoubleValue
1.629

@<SCITEGIC>MOL_PROPERTY
Pdih
SciTegic.value.DoubleValue
4.549

@<SCITEGIC>MOL_PROPERTY
Idih
SciTegic.value.DoubleValue
0.000

@<SCITEGIC>MOL_PROPERTY
Tether
SciTegic.value.DoubleValue
0.000

@<TRIPOS>MOLECULE
guest-3_vm2.mol2 : vm2 ligand conformer 351
          29          28           1
SMALL
USER_CHARGES
 
@<TRIPOS>ATOM
       1    C1      20.773574   18.166957   20.892905 C.3        1 MOL1        -0.2427
       2    H1      21.321961   18.095205   19.944737 H          1 MOL1         0.0958
       3    H2      21.394440   17.711507   21.675242 H          1 MOL1         0.0958
       4    H3      19.858063   17.571491   20.789998 H          1 MOL1         0.0958
       5    C2      20.456880   19.642988   21.223838 C.3        1 MOL1        -0.1412
       6    H4      19.811705   20.067722   20.442150 H          1 MOL1         0.0947
       7    H5      21.391965   20.219763   21.197751 H          1 MOL1         0.0947
       8    C3      19.795769   19.831590   22.610156 C.3        1 MOL1        -0.1437
       9    H6      20.459362   19.421115   23.379005 H          1 MOL1         0.0947
      10    H7      19.718591   20.908445   22.813489 H          1 MOL1         0.0947
      11    C4      18.383873   19.198065   22.707541 C.3        1 MOL1        -0.1437
      12    H8      18.430766   18.113469   22.545419 H          1 MOL1         0.0947
      13    H9      17.773725   19.601712   21.887823 H          1 MOL1         0.0947
      14    C5      17.656650   19.495322   24.045334 C.3        1 MOL1        -0.1437
      15    H10     17.954897   20.477324   24.436146 H          1 MOL1         0.0947
      16    H11     16.582537   19.583508   23.831120 H          1 MOL1         0.0947
      17    C6      17.818009   18.399264   25.133094 C.3        1 MOL1        -0.1437
      18    H12     17.416976   17.451352   24.748639 H          1 MOL1         0.0947
      19    H13     17.185575   18.664619   25.991606 H          1 MOL1         0.0947
      20    C7      19.261123   18.163118   25.638147 C.3        1 MOL1        -0.1477
      21    H14     19.241463   17.380361   26.407989 H          1 MOL1         0.0947
      22    H15     19.883732   17.772920   24.823735 H          1 MOL1         0.0947
      23    C8      19.896104   19.433464   26.233635 C.3        1 MOL1         0.0145
      24    H16     19.284624   19.794946   27.064734 H          1 MOL1         0.0921
      25    H17     19.939467   20.216840   25.472747 H          1 MOL1         0.0921
      26    N1      21.302018   19.207230   26.750349 N.4        1 MOL1        -0.5969
      27    H18     21.325576   18.500287   27.492715 H          1 MOL1         0.3603
      28    H19     21.706151   20.064918   27.142277 H          1 MOL1         0.3603
      29    H20     21.935335   18.888713   26.009759 H          1 MOL1         0.3603
@<TRIPOS>BOND
    1     1     2    1
    2     1     3    1
    3     1     4    1
    4     1     5    1
    5     5     6    1
    6     5     7    1
    7     5     8    1
    8     8     9    1
    9     8    10    1
   10     8    11    1
   11    11    12    1
   12    11    13    1
   13    11    14    1
   14    14    15    1
   15    14    16    1
   16    14    17    1
   17    17    18    1
   18    17    19    1
   19    17    20    1
   20    20    21    1
   21    20    22    1
   22    20    23    1
   23    23    24    1
   24    23    25    1
   25    23    26    1
   26    26    27    1
   27    26    28    1
   28    26    29    1
@<TRIPOS>SUBSTRUCTURE
       1 MOL1            1 RESIDUE      1      MOL     
@<SCITEGIC>MOL_PROPERTY
VM2 Rank
SciTegic.value.IntegerValue
351

@<SCITEGIC>MOL_PROPERTY
Conf_Id
SciTegic.value.IntegerValue
2332

@<SCITEGIC>MOL_PROPERTY
Probability
SciTegic.value.DoubleValue
0.00

@<SCITEGIC>MOL_PROPERTY
Sum Probability
SciTegic.value.DoubleValue
99.93

@<SCITEGIC>MOL_PROPERTY
Delta G
SciTegic.value.DoubleValue
4.557

@<SCITEGIC>MOL_PROPERTY
G
SciTegic.value.DoubleValue
62.705

@<SCITEGIC>MOL_PROPERTY
E
SciTegic.value.DoubleValue
24.684

@<SCITEGIC>MOL_PROPERTY
-TS
SciTegic.value.DoubleValue
38.020

@<SCITEGIC>MOL_PROPERTY
U+W
SciTegic.value.DoubleValue
0.540

@<SCITEGIC>MOL_PROPERTY
U
SciTegic.value.DoubleValue
53.377

@<SCITEGIC>MOL_PROPERTY
W
SciTegic.value.DoubleValue
-52.838

@<SCITEGIC>MOL_PROPERTY
W(PB)
SciTegic.value.DoubleValue
-55.258

@<SCITEGIC>MOL_PROPERTY
W(SA)
SciTegic.value.DoubleValue
2.420

@<SCITEGIC>MOL_PROPERTY
Valence
SciTegic.value.DoubleValue
6.393

@<SCITEGIC>MOL_PROPERTY
Coulomb
SciTegic.value.DoubleValue
46.521

@<SCITEGIC>MOL_PROPERTY
VdW
SciTegic.value.DoubleValue
0.464

@<SCITEGIC>MOL_PROPERTY
VdW6
SciTegic.value.DoubleValue
-10.599

@<SCITEGIC>MOL_PROPERTY
VdW12
SciTegic.value.DoubleValue
11.063

@<SCITEGIC>MOL_PROPERTY
Bond
SciTegic.value.DoubleValue
0.301

@<SCITEGIC>MOL_PROPERTY
Angle
SciTegic.value.DoubleValue
1.794

@<SCITEGIC>MOL_PROPERTY
Pdih
SciTegic.value.DoubleValue
4.298

@<SCITEGIC>MOL_PROPERTY
Idih
SciTegic.value.DoubleValue
0.000

@<SCITEGIC>MOL_PROPERTY
Tether
SciTegic.value.DoubleValue
0.000

@<TRIPOS>MOLECULE
guest-3_vm2.mol2 : vm2 ligand conformer 352
          29          28           1
SMALL
USER_CHARGES
 
@<TRIPOS>ATOM
       1    C1      20.972404   18.884531   20.373980 C.3        1 MOL1        -0.2427
       2    H1      22.052699   18.690902   20.395969 H          1 MOL1         0.0958
       3    H2      20.525971   18.218099   19.624457 H          1 MOL1         0.0958
       4    H3      20.822209   19.920528   20.043256 H          1 MOL1         0.0958
       5    C2      20.348585   18.651617   21.766230 C.3        1 MOL1        -0.1412
       6    H4      20.850869   19.301130   22.491682 H          1 MOL1         0.0947
       7    H5      20.542397   17.616782   22.080938 H          1 MOL1         0.0947
       8    C3      18.824031   18.916351   21.757708 C.3        1 MOL1        -0.1437
       9    H6      18.618169   19.948214   21.441849 H          1 MOL1         0.0947
      10    H7      18.373052   18.270391   20.991705 H          1 MOL1         0.0947
      11    C4      18.122481   18.622105   23.109987 C.3        1 MOL1        -0.1437
      12    H8      18.610885   17.784868   23.625448 H          1 MOL1         0.0947
      13    H9      17.106492   18.268711   22.886002 H          1 MOL1         0.0947
      14    C5      17.978860   19.846638   24.053681 C.3        1 MOL1        -0.1437
      15    H10     17.442760   20.643445   23.520071 H          1 MOL1         0.0947
      16    H11     17.324261   19.567580   24.890180 H          1 MOL1         0.0947
      17    C6      19.298444   20.431582   24.620681 C.3        1 MOL1        -0.1437
      18    H12     19.050041   21.284798   25.266913 H          1 MOL1         0.0947
      19    H13     19.896792   20.851760   23.802713 H          1 MOL1         0.0947
      20    C7      20.155192   19.429594   25.434393 C.3        1 MOL1        -0.1477
      21    H14     20.495438   18.609879   24.790069 H          1 MOL1         0.0947
      22    H15     21.060126   19.942014   25.786821 H          1 MOL1         0.0947
      23    C8      19.400144   18.851638   26.645376 C.3        1 MOL1         0.0145
      24    H16     18.518175   18.304132   26.302940 H          1 MOL1         0.0921
      25    H17     19.069823   19.665890   27.295894 H          1 MOL1         0.0921
      26    N1      20.243859   17.903945   27.472963 N.4        1 MOL1        -0.5969
      27    H18     20.564708   17.099627   26.923987 H          1 MOL1         0.3603
      28    H19     19.722526   17.530816   28.273945 H          1 MOL1         0.3603
      29    H20     21.078572   18.365773   27.848958 H          1 MOL1         0.3603
@<TRIPOS>BOND
    1     1     2    1
    2     1     3    1
    3     1     4    1
    4     1     5    1
    5     5     6    1
    6     5     7    1
    7     5     8    1
    8     8     9    1
    9     8    10    1
   10     8    11    1
   11    11    12    1
   12    11    13    1
   13    11    14    1
   14    14    15    1
   15    14    16    1
   16    14    17    1
   17    17    18    1
   18    17    19    1
   19    17    20    1
   20    20    21    1
   21    20    22    1
   22    20    23    1
   23    23    24    1
   24    23    25    1
   25    23    26    1
   26    26    27    1
   27    26    28    1
   28    26    29    1
@<TRIPOS>SUBSTRUCTURE
       1 MOL1            1 RESIDUE      1      MOL     
@<SCITEGIC>MOL_PROPERTY
VM2 Rank
SciTegic.value.IntegerValue
352

@<SCITEGIC>MOL_PROPERTY
Conf_Id
SciTegic.value.IntegerValue
288

@<SCITEGIC>MOL_PROPERTY
Probability
SciTegic.value.DoubleValue
0.00

@<SCITEGIC>MOL_PROPERTY
Sum Probability
SciTegic.value.DoubleValue
99.93

@<SCITEGIC>MOL_PROPERTY
Delta G
SciTegic.value.DoubleValue
4.557

@<SCITEGIC>MOL_PROPERTY
G
SciTegic.value.DoubleValue
62.705

@<SCITEGIC>MOL_PROPERTY
E
SciTegic.value.DoubleValue
24.541

@<SCITEGIC>MOL_PROPERTY
-TS
SciTegic.value.DoubleValue
38.165

@<SCITEGIC>MOL_PROPERTY
U+W
SciTegic.value.DoubleValue
0.396

@<SCITEGIC>MOL_PROPERTY
U
SciTegic.value.DoubleValue
52.906

@<SCITEGIC>MOL_PROPERTY
W
SciTegic.value.DoubleValue
-52.510

@<SCITEGIC>MOL_PROPERTY
W(PB)
SciTegic.value.DoubleValue
-54.925

@<SCITEGIC>MOL_PROPERTY
W(SA)
SciTegic.value.DoubleValue
2.415

@<SCITEGIC>MOL_PROPERTY
Valence
SciTegic.value.DoubleValue
6.462

@<SCITEGIC>MOL_PROPERTY
Coulomb
SciTegic.value.DoubleValue
45.981

@<SCITEGIC>MOL_PROPERTY
VdW
SciTegic.value.DoubleValue
0.463

@<SCITEGIC>MOL_PROPERTY
VdW6
SciTegic.value.DoubleValue
-10.554

@<SCITEGIC>MOL_PROPERTY
VdW12
SciTegic.value.DoubleValue
11.017

@<SCITEGIC>MOL_PROPERTY
Bond
SciTegic.value.DoubleValue
0.308

@<SCITEGIC>MOL_PROPERTY
Angle
SciTegic.value.DoubleValue
2.049

@<SCITEGIC>MOL_PROPERTY
Pdih
SciTegic.value.DoubleValue
4.105

@<SCITEGIC>MOL_PROPERTY
Idih
SciTegic.value.DoubleValue
0.000

@<SCITEGIC>MOL_PROPERTY
Tether
SciTegic.value.DoubleValue
0.000

@<TRIPOS>MOLECULE
guest-3_vm2.mol2 : vm2 ligand conformer 353
          29          28           1
SMALL
USER_CHARGES
 
@<TRIPOS>ATOM
       1    C1      20.770201   18.285559   21.007426 C.3        1 MOL1        -0.2427
       2    H1      21.340345   17.348415   20.969230 H          1 MOL1         0.0958
       3    H2      20.770068   18.719604   19.999207 H          1 MOL1         0.0958
       4    H3      21.305319   18.972639   21.673733 H          1 MOL1         0.0958
       5    C2      19.327423   18.022351   21.495645 C.3        1 MOL1        -0.1412
       6    H4      19.339182   17.569388   22.495001 H          1 MOL1         0.0947
       7    H5      18.866930   17.273469   20.836333 H          1 MOL1         0.0947
       8    C3      18.438671   19.289948   21.492537 C.3        1 MOL1        -0.1437
       9    H6      18.375228   19.669531   20.463460 H          1 MOL1         0.0947
      10    H7      17.414122   19.003017   21.766427 H          1 MOL1         0.0947
      11    C4      18.899112   20.448455   22.418047 C.3        1 MOL1        -0.1437
      12    H8      18.213310   21.289816   22.247657 H          1 MOL1         0.0947
      13    H9      19.888295   20.817391   22.116760 H          1 MOL1         0.0947
      14    C5      18.876040   20.119621   23.934072 C.3        1 MOL1        -0.1437
      15    H10     18.586923   21.029458   24.478071 H          1 MOL1         0.0947
      16    H11     18.090904   19.380513   24.140933 H          1 MOL1         0.0947
      17    C6      20.242660   19.643255   24.489834 C.3        1 MOL1        -0.1437
      18    H12     21.008108   20.395254   24.254067 H          1 MOL1         0.0947
      19    H13     20.559694   18.716994   23.997363 H          1 MOL1         0.0947
      20    C7      20.226179   19.419353   26.019919 C.3        1 MOL1        -0.1477
      21    H14     21.243827   19.179899   26.356035 H          1 MOL1         0.0947
      22    H15     19.938157   20.349863   26.527025 H          1 MOL1         0.0947
      23    C8      19.276428   18.282966   26.442272 C.3        1 MOL1         0.0145
      24    H16     19.564401   17.356396   25.938399 H          1 MOL1         0.0921
      25    H17     18.251888   18.529281   26.152007 H          1 MOL1         0.0921
      26    N1      19.287287   18.026492   27.935247 N.4        1 MOL1        -0.5969
      27    H18     18.999396   18.854743   28.466831 H          1 MOL1         0.3603
      28    H19     20.219519   17.761670   28.270307 H          1 MOL1         0.3603
      29    H20     18.648894   17.266857   28.196080 H          1 MOL1         0.3603
@<TRIPOS>BOND
    1     1     2    1
    2     1     3    1
    3     1     4    1
    4     1     5    1
    5     5     6    1
    6     5     7    1
    7     5     8    1
    8     8     9    1
    9     8    10    1
   10     8    11    1
   11    11    12    1
   12    11    13    1
   13    11    14    1
   14    14    15    1
   15    14    16    1
   16    14    17    1
   17    17    18    1
   18    17    19    1
   19    17    20    1
   20    20    21    1
   21    20    22    1
   22    20    23    1
   23    23    24    1
   24    23    25    1
   25    23    26    1
   26    26    27    1
   27    26    28    1
   28    26    29    1
@<TRIPOS>SUBSTRUCTURE
       1 MOL1            1 RESIDUE      1      MOL     
@<SCITEGIC>MOL_PROPERTY
VM2 Rank
SciTegic.value.IntegerValue
353

@<SCITEGIC>MOL_PROPERTY
Conf_Id
SciTegic.value.IntegerValue
1049

@<SCITEGIC>MOL_PROPERTY
Probability
SciTegic.value.DoubleValue
0.00

@<SCITEGIC>MOL_PROPERTY
Sum Probability
SciTegic.value.DoubleValue
99.93

@<SCITEGIC>MOL_PROPERTY
Delta G
SciTegic.value.DoubleValue
4.586

@<SCITEGIC>MOL_PROPERTY
G
SciTegic.value.DoubleValue
62.734

@<SCITEGIC>MOL_PROPERTY
E
SciTegic.value.DoubleValue
24.641

@<SCITEGIC>MOL_PROPERTY
-TS
SciTegic.value.DoubleValue
38.093

@<SCITEGIC>MOL_PROPERTY
U+W
SciTegic.value.DoubleValue
0.497

@<SCITEGIC>MOL_PROPERTY
U
SciTegic.value.DoubleValue
52.578

@<SCITEGIC>MOL_PROPERTY
W
SciTegic.value.DoubleValue
-52.082

@<SCITEGIC>MOL_PROPERTY
W(PB)
SciTegic.value.DoubleValue
-54.479

@<SCITEGIC>MOL_PROPERTY
W(SA)
SciTegic.value.DoubleValue
2.398

@<SCITEGIC>MOL_PROPERTY
Valence
SciTegic.value.DoubleValue
6.481

@<SCITEGIC>MOL_PROPERTY
Coulomb
SciTegic.value.DoubleValue
45.486

@<SCITEGIC>MOL_PROPERTY
VdW
SciTegic.value.DoubleValue
0.611

@<SCITEGIC>MOL_PROPERTY
VdW6
SciTegic.value.DoubleValue
-10.292

@<SCITEGIC>MOL_PROPERTY
VdW12
SciTegic.value.DoubleValue
10.903

@<SCITEGIC>MOL_PROPERTY
Bond
SciTegic.value.DoubleValue
0.300

@<SCITEGIC>MOL_PROPERTY
Angle
SciTegic.value.DoubleValue
1.869

@<SCITEGIC>MOL_PROPERTY
Pdih
SciTegic.value.DoubleValue
4.312

@<SCITEGIC>MOL_PROPERTY
Idih
SciTegic.value.DoubleValue
0.000

@<SCITEGIC>MOL_PROPERTY
Tether
SciTegic.value.DoubleValue
0.000

@<TRIPOS>MOLECULE
guest-3_vm2.mol2 : vm2 ligand conformer 354
          29          28           1
SMALL
USER_CHARGES
 
@<TRIPOS>ATOM
       1    C1      20.431245   18.057575   20.270695 C.3        1 MOL1        -0.2427
       2    H1      20.723159   17.586155   21.215660 H          1 MOL1         0.0958
       3    H2      20.211532   17.256936   19.552650 H          1 MOL1         0.0958
       4    H3      21.296554   18.616608   19.891505 H          1 MOL1         0.0958
       5    C2      19.205804   18.986045   20.437653 C.3        1 MOL1        -0.1412
       6    H4      18.323788   18.404561   20.740102 H          1 MOL1         0.0947
       7    H5      18.965000   19.409374   19.452427 H          1 MOL1         0.0947
       8    C3      19.450218   20.151462   21.430582 C.3        1 MOL1        -0.1437
       9    H6      20.516824   20.414110   21.453454 H          1 MOL1         0.0947
      10    H7      18.935109   21.042208   21.045091 H          1 MOL1         0.0947
      11    C4      18.933103   19.901282   22.870965 C.3        1 MOL1        -0.1437
      12    H8      17.845784   19.746152   22.845448 H          1 MOL1         0.0947
      13    H9      19.097840   20.819757   23.447764 H          1 MOL1         0.0947
      14    C5      19.605776   18.705936   23.590331 C.3        1 MOL1        -0.1437
      15    H10     19.373073   17.784098   23.042381 H          1 MOL1         0.0947
      16    H11     20.698098   18.820512   23.565229 H          1 MOL1         0.0947
      17    C6      19.135438   18.515807   25.053628 C.3        1 MOL1        -0.1437
      18    H12     19.520333   17.551723   25.411309 H          1 MOL1         0.0947
      19    H13     18.039596   18.439994   25.081712 H          1 MOL1         0.0947
      20    C7      19.608010   19.640075   26.009659 C.3        1 MOL1        -0.1477
      21    H14     20.700969   19.736571   25.966243 H          1 MOL1         0.0947
      22    H15     19.194448   20.603395   25.687647 H          1 MOL1         0.0947
      23    C8      19.171190   19.401306   27.467960 C.3        1 MOL1         0.0145
      24    H16     18.085038   19.284373   27.512563 H          1 MOL1         0.0921
      25    H17     19.446063   20.268322   28.074805 H          1 MOL1         0.0921
      26    N1      19.803217   18.178513   28.103527 N.4        1 MOL1        -0.5969
      27    H18     20.826672   18.239891   28.111220 H          1 MOL1         0.3603
      28    H19     19.554626   17.319456   27.603148 H          1 MOL1         0.3603
      29    H20     19.502601   18.057090   29.076910 H          1 MOL1         0.3603
@<TRIPOS>BOND
    1     1     2    1
    2     1     3    1
    3     1     4    1
    4     1     5    1
    5     5     6    1
    6     5     7    1
    7     5     8    1
    8     8     9    1
    9     8    10    1
   10     8    11    1
   11    11    12    1
   12    11    13    1
   13    11    14    1
   14    14    15    1
   15    14    16    1
   16    14    17    1
   17    17    18    1
   18    17    19    1
   19    17    20    1
   20    20    21    1
   21    20    22    1
   22    20    23    1
   23    23    24    1
   24    23    25    1
   25    23    26    1
   26    26    27    1
   27    26    28    1
   28    26    29    1
@<TRIPOS>SUBSTRUCTURE
       1 MOL1            1 RESIDUE      1      MOL     
@<SCITEGIC>MOL_PROPERTY
VM2 Rank
SciTegic.value.IntegerValue
354

@<SCITEGIC>MOL_PROPERTY
Conf_Id
SciTegic.value.IntegerValue
1281

@<SCITEGIC>MOL_PROPERTY
Probability
SciTegic.value.DoubleValue
0.00

@<SCITEGIC>MOL_PROPERTY
Sum Probability
SciTegic.value.DoubleValue
99.93

@<SCITEGIC>MOL_PROPERTY
Delta G
SciTegic.value.DoubleValue
4.597

@<SCITEGIC>MOL_PROPERTY
G
SciTegic.value.DoubleValue
62.745

@<SCITEGIC>MOL_PROPERTY
E
SciTegic.value.DoubleValue
25.098

@<SCITEGIC>MOL_PROPERTY
-TS
SciTegic.value.DoubleValue
37.647

@<SCITEGIC>MOL_PROPERTY
U+W
SciTegic.value.DoubleValue
0.953

@<SCITEGIC>MOL_PROPERTY
U
SciTegic.value.DoubleValue
52.563

@<SCITEGIC>MOL_PROPERTY
W
SciTegic.value.DoubleValue
-51.610

@<SCITEGIC>MOL_PROPERTY
W(PB)
SciTegic.value.DoubleValue
-54.113

@<SCITEGIC>MOL_PROPERTY
W(SA)
SciTegic.value.DoubleValue
2.503

@<SCITEGIC>MOL_PROPERTY
Valence
SciTegic.value.DoubleValue
6.390

@<SCITEGIC>MOL_PROPERTY
Coulomb
SciTegic.value.DoubleValue
44.996

@<SCITEGIC>MOL_PROPERTY
VdW
SciTegic.value.DoubleValue
1.177

@<SCITEGIC>MOL_PROPERTY
VdW6
SciTegic.value.DoubleValue
-9.539

@<SCITEGIC>MOL_PROPERTY
VdW12
SciTegic.value.DoubleValue
10.716

@<SCITEGIC>MOL_PROPERTY
Bond
SciTegic.value.DoubleValue
0.302

@<SCITEGIC>MOL_PROPERTY
Angle
SciTegic.value.DoubleValue
1.557

@<SCITEGIC>MOL_PROPERTY
Pdih
SciTegic.value.DoubleValue
4.532

@<SCITEGIC>MOL_PROPERTY
Idih
SciTegic.value.DoubleValue
0.000

@<SCITEGIC>MOL_PROPERTY
Tether
SciTegic.value.DoubleValue
0.000

@<TRIPOS>MOLECULE
guest-3_vm2.mol2 : vm2 ligand conformer 355
          29          28           1
SMALL
USER_CHARGES
 
@<TRIPOS>ATOM
       1    C1      21.096751   18.499887   21.362280 C.3        1 MOL1        -0.2427
       2    H1      21.678518   19.425835   21.267300 H          1 MOL1         0.0958
       3    H2      21.068543   18.223635   22.421495 H          1 MOL1         0.0958
       4    H3      21.641093   17.708970   20.830335 H          1 MOL1         0.0958
       5    C2      19.680191   18.672761   20.766772 C.3        1 MOL1        -0.1412
       6    H4      19.118033   17.731552   20.841050 H          1 MOL1         0.0947
       7    H5      19.790370   18.874237   19.692014 H          1 MOL1         0.0947
       8    C3      18.872148   19.834472   21.401311 C.3        1 MOL1        -0.1437
       9    H6      19.543330   20.647288   21.707736 H          1 MOL1         0.0947
      10    H7      18.236707   20.267382   20.616402 H          1 MOL1         0.0947
      11    C4      17.935502   19.420385   22.568706 C.3        1 MOL1        -0.1437
      12    H8      17.209711   18.685875   22.193473 H          1 MOL1         0.0947
      13    H9      17.343008   20.295571   22.868865 H          1 MOL1         0.0947
      14    C5      18.624780   18.834987   23.826173 C.3        1 MOL1        -0.1437
      15    H10     17.838724   18.539754   24.533568 H          1 MOL1         0.0947
      16    H11     19.153259   17.909638   23.565579 H          1 MOL1         0.0947
      17    C6      19.588629   19.830115   24.521199 C.3        1 MOL1        -0.1437
      18    H12     19.038920   20.736907   24.808878 H          1 MOL1         0.0947
      19    H13     20.365276   20.150452   23.815444 H          1 MOL1         0.0947
      20    C7      20.283061   19.230411   25.766250 C.3        1 MOL1        -0.1477
      21    H14     20.847354   18.333674   25.477498 H          1 MOL1         0.0947
      22    H15     21.015859   19.953805   26.147835 H          1 MOL1         0.0947
      23    C8      19.291560   18.879103   26.891134 C.3        1 MOL1         0.0145
      24    H16     18.583950   18.124139   26.539174 H          1 MOL1         0.0921
      25    H17     18.729347   19.771825   27.178033 H          1 MOL1         0.0921
      26    N1      19.971378   18.335880   28.131175 N.4        1 MOL1        -0.5969
      27    H18     20.497474   17.478239   27.933423 H          1 MOL1         0.3603
      28    H19     19.294579   18.108503   28.867981 H          1 MOL1         0.3603
      29    H20     20.632363   19.010450   28.530564 H          1 MOL1         0.3603
@<TRIPOS>BOND
    1     1     2    1
    2     1     3    1
    3     1     4    1
    4     1     5    1
    5     5     6    1
    6     5     7    1
    7     5     8    1
    8     8     9    1
    9     8    10    1
   10     8    11    1
   11    11    12    1
   12    11    13    1
   13    11    14    1
   14    14    15    1
   15    14    16    1
   16    14    17    1
   17    17    18    1
   18    17    19    1
   19    17    20    1
   20    20    21    1
   21    20    22    1
   22    20    23    1
   23    23    24    1
   24    23    25    1
   25    23    26    1
   26    26    27    1
   27    26    28    1
   28    26    29    1
@<TRIPOS>SUBSTRUCTURE
       1 MOL1            1 RESIDUE      1      MOL     
@<SCITEGIC>MOL_PROPERTY
VM2 Rank
SciTegic.value.IntegerValue
355

@<SCITEGIC>MOL_PROPERTY
Conf_Id
SciTegic.value.IntegerValue
842

@<SCITEGIC>MOL_PROPERTY
Probability
SciTegic.value.DoubleValue
0.00

@<SCITEGIC>MOL_PROPERTY
Sum Probability
SciTegic.value.DoubleValue
99.94

@<SCITEGIC>MOL_PROPERTY
Delta G
SciTegic.value.DoubleValue
4.604

@<SCITEGIC>MOL_PROPERTY
G
SciTegic.value.DoubleValue
62.752

@<SCITEGIC>MOL_PROPERTY
E
SciTegic.value.DoubleValue
24.632

@<SCITEGIC>MOL_PROPERTY
-TS
SciTegic.value.DoubleValue
38.121

@<SCITEGIC>MOL_PROPERTY
U+W
SciTegic.value.DoubleValue
0.487

@<SCITEGIC>MOL_PROPERTY
U
SciTegic.value.DoubleValue
52.469

@<SCITEGIC>MOL_PROPERTY
W
SciTegic.value.DoubleValue
-51.982

@<SCITEGIC>MOL_PROPERTY
W(PB)
SciTegic.value.DoubleValue
-54.381

@<SCITEGIC>MOL_PROPERTY
W(SA)
SciTegic.value.DoubleValue
2.399

@<SCITEGIC>MOL_PROPERTY
Valence
SciTegic.value.DoubleValue
6.500

@<SCITEGIC>MOL_PROPERTY
Coulomb
SciTegic.value.DoubleValue
45.340

@<SCITEGIC>MOL_PROPERTY
VdW
SciTegic.value.DoubleValue
0.629

@<SCITEGIC>MOL_PROPERTY
VdW6
SciTegic.value.DoubleValue
-10.352

@<SCITEGIC>MOL_PROPERTY
VdW12
SciTegic.value.DoubleValue
10.981

@<SCITEGIC>MOL_PROPERTY
Bond
SciTegic.value.DoubleValue
0.305

@<SCITEGIC>MOL_PROPERTY
Angle
SciTegic.value.DoubleValue
1.982

@<SCITEGIC>MOL_PROPERTY
Pdih
SciTegic.value.DoubleValue
4.214

@<SCITEGIC>MOL_PROPERTY
Idih
SciTegic.value.DoubleValue
0.000

@<SCITEGIC>MOL_PROPERTY
Tether
SciTegic.value.DoubleValue
0.000

@<TRIPOS>MOLECULE
guest-3_vm2.mol2 : vm2 ligand conformer 356
          29          28           1
SMALL
USER_CHARGES
 
@<TRIPOS>ATOM
       1    C1      20.951596   18.124418   20.463834 C.3        1 MOL1        -0.2427
       2    H1      21.506833   18.950729   20.001089 H          1 MOL1         0.0958
       3    H2      21.659060   17.305958   20.649898 H          1 MOL1         0.0958
       4    H3      20.205065   17.767493   19.742346 H          1 MOL1         0.0958
       5    C2      20.280504   18.573942   21.778908 C.3        1 MOL1        -0.1412
       6    H4      21.052601   18.900697   22.489235 H          1 MOL1         0.0947
       7    H5      19.769552   17.711863   22.227203 H          1 MOL1         0.0947
       8    C3      19.269528   19.718488   21.540917 C.3        1 MOL1        -0.1437
       9    H6      19.764649   20.518849   20.973864 H          1 MOL1         0.0947
      10    H7      18.450388   19.355819   20.904789 H          1 MOL1         0.0947
      11    C4      18.683024   20.334408   22.837310 C.3        1 MOL1        -0.1437
      12    H8      18.026124   21.163105   22.539065 H          1 MOL1         0.0947
      13    H9      19.486291   20.794979   23.425278 H          1 MOL1         0.0947
      14    C5      17.850345   19.350797   23.704342 C.3        1 MOL1        -0.1437
      15    H10     17.005046   19.896471   24.145867 H          1 MOL1         0.0947
      16    H11     17.398378   18.586734   23.057057 H          1 MOL1         0.0947
      17    C6      18.635298   18.660362   24.850372 C.3        1 MOL1        -0.1437
      18    H12     19.534110   18.173877   24.455685 H          1 MOL1         0.0947
      19    H13     18.008415   17.857853   25.263165 H          1 MOL1         0.0947
      20    C7      19.018554   19.627425   25.998960 C.3        1 MOL1        -0.1477
      21    H14     19.705106   20.403976   25.640253 H          1 MOL1         0.0947
      22    H15     18.117794   20.145481   26.353829 H          1 MOL1         0.0947
      23    C8      19.662700   18.899150   27.194101 C.3        1 MOL1         0.0145
      24    H16     18.986173   18.122169   27.560130 H          1 MOL1         0.0921
      25    H17     19.833382   19.612693   28.004807 H          1 MOL1         0.0921
      26    N1      20.992452   18.249011   26.866257 N.4        1 MOL1        -0.5969
      27    H18     21.680077   18.934725   26.537402 H          1 MOL1         0.3603
      28    H19     20.896648   17.538938   26.133685 H          1 MOL1         0.3603
      29    H20     21.400293   17.783839   27.684722 H          1 MOL1         0.3603
@<TRIPOS>BOND
    1     1     2    1
    2     1     3    1
    3     1     4    1
    4     1     5    1
    5     5     6    1
    6     5     7    1
    7     5     8    1
    8     8     9    1
    9     8    10    1
   10     8    11    1
   11    11    12    1
   12    11    13    1
   13    11    14    1
   14    14    15    1
   15    14    16    1
   16    14    17    1
   17    17    18    1
   18    17    19    1
   19    17    20    1
   20    20    21    1
   21    20    22    1
   22    20    23    1
   23    23    24    1
   24    23    25    1
   25    23    26    1
   26    26    27    1
   27    26    28    1
   28    26    29    1
@<TRIPOS>SUBSTRUCTURE
       1 MOL1            1 RESIDUE      1      MOL     
@<SCITEGIC>MOL_PROPERTY
VM2 Rank
SciTegic.value.IntegerValue
356

@<SCITEGIC>MOL_PROPERTY
Conf_Id
SciTegic.value.IntegerValue
2291

@<SCITEGIC>MOL_PROPERTY
Probability
SciTegic.value.DoubleValue
0.00

@<SCITEGIC>MOL_PROPERTY
Sum Probability
SciTegic.value.DoubleValue
99.94

@<SCITEGIC>MOL_PROPERTY
Delta G
SciTegic.value.DoubleValue
4.617

@<SCITEGIC>MOL_PROPERTY
G
SciTegic.value.DoubleValue
62.765

@<SCITEGIC>MOL_PROPERTY
E
SciTegic.value.DoubleValue
25.065

@<SCITEGIC>MOL_PROPERTY
-TS
SciTegic.value.DoubleValue
37.700

@<SCITEGIC>MOL_PROPERTY
U+W
SciTegic.value.DoubleValue
0.921

@<SCITEGIC>MOL_PROPERTY
U
SciTegic.value.DoubleValue
53.509

@<SCITEGIC>MOL_PROPERTY
W
SciTegic.value.DoubleValue
-52.588

@<SCITEGIC>MOL_PROPERTY
W(PB)
SciTegic.value.DoubleValue
-55.019

@<SCITEGIC>MOL_PROPERTY
W(SA)
SciTegic.value.DoubleValue
2.431

@<SCITEGIC>MOL_PROPERTY
Valence
SciTegic.value.DoubleValue
6.433

@<SCITEGIC>MOL_PROPERTY
Coulomb
SciTegic.value.DoubleValue
46.138

@<SCITEGIC>MOL_PROPERTY
VdW
SciTegic.value.DoubleValue
0.938

@<SCITEGIC>MOL_PROPERTY
VdW6
SciTegic.value.DoubleValue
-9.756

@<SCITEGIC>MOL_PROPERTY
VdW12
SciTegic.value.DoubleValue
10.694

@<SCITEGIC>MOL_PROPERTY
Bond
SciTegic.value.DoubleValue
0.309

@<SCITEGIC>MOL_PROPERTY
Angle
SciTegic.value.DoubleValue
1.514

@<SCITEGIC>MOL_PROPERTY
Pdih
SciTegic.value.DoubleValue
4.610

@<SCITEGIC>MOL_PROPERTY
Idih
SciTegic.value.DoubleValue
0.000

@<SCITEGIC>MOL_PROPERTY
Tether
SciTegic.value.DoubleValue
0.000

@<TRIPOS>MOLECULE
guest-3_vm2.mol2 : vm2 ligand conformer 357
          29          28           1
SMALL
USER_CHARGES
 
@<TRIPOS>ATOM
       1    C1      20.722635   19.667872   20.476086 C.3        1 MOL1        -0.2427
       2    H1      21.606377   19.023533   20.381828 H          1 MOL1         0.0958
       3    H2      20.666355   20.289872   19.573404 H          1 MOL1         0.0958
       4    H3      20.882311   20.334963   21.330432 H          1 MOL1         0.0958
       5    C2      19.437733   18.821291   20.630903 C.3        1 MOL1        -0.1412
       6    H4      19.337809   18.190692   19.736354 H          1 MOL1         0.0947
       7    H5      18.551161   19.470437   20.643175 H          1 MOL1         0.0947
       8    C3      19.453752   17.906093   21.882257 C.3        1 MOL1        -0.1437
       9    H6      18.962761   16.958981   21.619086 H          1 MOL1         0.0947
      10    H7      20.486721   17.639847   22.145378 H          1 MOL1         0.0947
      11    C4      18.720938   18.481921   23.121538 C.3        1 MOL1        -0.1437
      12    H8      18.743383   17.715457   23.906428 H          1 MOL1         0.0947
      13    H9      17.661741   18.641637   22.877561 H          1 MOL1         0.0947
      14    C5      19.327581   19.798915   23.665163 C.3        1 MOL1        -0.1437
      15    H10     20.401270   19.665121   23.852293 H          1 MOL1         0.0947
      16    H11     19.242841   20.576302   22.895391 H          1 MOL1         0.0947
      17    C6      18.625674   20.327076   24.943427 C.3        1 MOL1        -0.1437
      18    H12     17.571735   20.537480   24.715080 H          1 MOL1         0.0947
      19    H13     19.073965   21.292949   25.214599 H          1 MOL1         0.0947
      20    C7      18.696512   19.384502   26.170861 C.3        1 MOL1        -0.1477
      21    H14     18.211104   19.878117   27.023236 H          1 MOL1         0.0947
      22    H15     18.120637   18.470480   25.978832 H          1 MOL1         0.0947
      23    C8      20.140776   19.016930   26.558337 C.3        1 MOL1         0.0145
      24    H16     20.710742   19.927738   26.760515 H          1 MOL1         0.0921
      25    H17     20.620396   18.485827   25.731971 H          1 MOL1         0.0921
      26    N1      20.218400   18.133400   27.786428 N.4        1 MOL1        -0.5969
      27    H18     19.807165   18.586722   28.609118 H          1 MOL1         0.3603
      28    H19     21.188057   17.900161   28.027168 H          1 MOL1         0.3603
      29    H20     19.722280   17.246407   27.650623 H          1 MOL1         0.3603
@<TRIPOS>BOND
    1     1     2    1
    2     1     3    1
    3     1     4    1
    4     1     5    1
    5     5     6    1
    6     5     7    1
    7     5     8    1
    8     8     9    1
    9     8    10    1
   10     8    11    1
   11    11    12    1
   12    11    13    1
   13    11    14    1
   14    14    15    1
   15    14    16    1
   16    14    17    1
   17    17    18    1
   18    17    19    1
   19    17    20    1
   20    20    21    1
   21    20    22    1
   22    20    23    1
   23    23    24    1
   24    23    25    1
   25    23    26    1
   26    26    27    1
   27    26    28    1
   28    26    29    1
@<TRIPOS>SUBSTRUCTURE
       1 MOL1            1 RESIDUE      1      MOL     
@<SCITEGIC>MOL_PROPERTY
VM2 Rank
SciTegic.value.IntegerValue
357

@<SCITEGIC>MOL_PROPERTY
Conf_Id
SciTegic.value.IntegerValue
538

@<SCITEGIC>MOL_PROPERTY
Probability
SciTegic.value.DoubleValue
0.00

@<SCITEGIC>MOL_PROPERTY
Sum Probability
SciTegic.value.DoubleValue
99.94

@<SCITEGIC>MOL_PROPERTY
Delta G
SciTegic.value.DoubleValue
4.651

@<SCITEGIC>MOL_PROPERTY
G
SciTegic.value.DoubleValue
62.799

@<SCITEGIC>MOL_PROPERTY
E
SciTegic.value.DoubleValue
24.974

@<SCITEGIC>MOL_PROPERTY
-TS
SciTegic.value.DoubleValue
37.826

@<SCITEGIC>MOL_PROPERTY
U+W
SciTegic.value.DoubleValue
0.829

@<SCITEGIC>MOL_PROPERTY
U
SciTegic.value.DoubleValue
52.892

@<SCITEGIC>MOL_PROPERTY
W
SciTegic.value.DoubleValue
-52.063

@<SCITEGIC>MOL_PROPERTY
W(PB)
SciTegic.value.DoubleValue
-54.519

@<SCITEGIC>MOL_PROPERTY
W(SA)
SciTegic.value.DoubleValue
2.456

@<SCITEGIC>MOL_PROPERTY
Valence
SciTegic.value.DoubleValue
6.463

@<SCITEGIC>MOL_PROPERTY
Coulomb
SciTegic.value.DoubleValue
45.485

@<SCITEGIC>MOL_PROPERTY
VdW
SciTegic.value.DoubleValue
0.944

@<SCITEGIC>MOL_PROPERTY
VdW6
SciTegic.value.DoubleValue
-9.991

@<SCITEGIC>MOL_PROPERTY
VdW12
SciTegic.value.DoubleValue
10.935

@<SCITEGIC>MOL_PROPERTY
Bond
SciTegic.value.DoubleValue
0.305

@<SCITEGIC>MOL_PROPERTY
Angle
SciTegic.value.DoubleValue
1.766

@<SCITEGIC>MOL_PROPERTY
Pdih
SciTegic.value.DoubleValue
4.392

@<SCITEGIC>MOL_PROPERTY
Idih
SciTegic.value.DoubleValue
0.000

@<SCITEGIC>MOL_PROPERTY
Tether
SciTegic.value.DoubleValue
0.000

@<TRIPOS>MOLECULE
guest-3_vm2.mol2 : vm2 ligand conformer 358
          29          28           1
SMALL
USER_CHARGES
 
@<TRIPOS>ATOM
       1    C1      21.123317   18.574345   21.364108 C.3        1 MOL1        -0.2427
       2    H1      21.260971   18.763965   22.433752 H          1 MOL1         0.0958
       3    H2      20.990371   17.493782   21.224242 H          1 MOL1         0.0958
       4    H3      22.052483   18.863668   20.856401 H          1 MOL1         0.0958
       5    C2      19.924831   19.359310   20.782198 C.3        1 MOL1        -0.1412
       6    H4      19.898162   19.176380   19.698841 H          1 MOL1         0.0947
       7    H5      20.082916   20.440115   20.901708 H          1 MOL1         0.0947
       8    C3      18.555557   18.945570   21.381407 C.3        1 MOL1        -0.1437
       9    H6      17.800735   19.043190   20.588946 H          1 MOL1         0.0947
      10    H7      18.557667   17.880142   21.645816 H          1 MOL1         0.0947
      11    C4      18.074839   19.811651   22.577400 C.3        1 MOL1        -0.1437
      12    H8      17.058414   19.496729   22.850896 H          1 MOL1         0.0947
      13    H9      17.981875   20.853697   22.241876 H          1 MOL1         0.0947
      14    C5      18.961055   19.779350   23.847281 C.3        1 MOL1        -0.1437
      15    H10     19.959020   20.171952   23.616193 H          1 MOL1         0.0947
      16    H11     18.528472   20.476560   24.576818 H          1 MOL1         0.0947
      17    C6      19.069245   18.372489   24.488670 C.3        1 MOL1        -0.1437
      18    H12     19.478501   17.661682   23.759871 H          1 MOL1         0.0947
      19    H13     18.066185   18.006665   24.748003 H          1 MOL1         0.0947
      20    C7      19.968847   18.348490   25.746516 C.3        1 MOL1        -0.1477
      21    H14     20.074131   17.310386   26.088795 H          1 MOL1         0.0947
      22    H15     20.976867   18.697352   25.485490 H          1 MOL1         0.0947
      23    C8      19.406803   19.202487   26.898319 C.3        1 MOL1         0.0145
      24    H16     18.402981   18.855459   27.157664 H          1 MOL1         0.0921
      25    H17     19.340514   20.247922   26.586499 H          1 MOL1         0.0921
      26    N1      20.259506   19.144307   28.149102 N.4        1 MOL1        -0.5969
      27    H18     20.339781   18.188694   28.512171 H          1 MOL1         0.3603
      28    H19     19.868457   19.718896   28.903800 H          1 MOL1         0.3603
      29    H20     21.211934   19.483444   27.977937 H          1 MOL1         0.3603
@<TRIPOS>BOND
    1     1     2    1
    2     1     3    1
    3     1     4    1
    4     1     5    1
    5     5     6    1
    6     5     7    1
    7     5     8    1
    8     8     9    1
    9     8    10    1
   10     8    11    1
   11    11    12    1
   12    11    13    1
   13    11    14    1
   14    14    15    1
   15    14    16    1
   16    14    17    1
   17    17    18    1
   18    17    19    1
   19    17    20    1
   20    20    21    1
   21    20    22    1
   22    20    23    1
   23    23    24    1
   24    23    25    1
   25    23    26    1
   26    26    27    1
   27    26    28    1
   28    26    29    1
@<TRIPOS>SUBSTRUCTURE
       1 MOL1            1 RESIDUE      1      MOL     
@<SCITEGIC>MOL_PROPERTY
VM2 Rank
SciTegic.value.IntegerValue
358

@<SCITEGIC>MOL_PROPERTY
Conf_Id
SciTegic.value.IntegerValue
490

@<SCITEGIC>MOL_PROPERTY
Probability
SciTegic.value.DoubleValue
0.00

@<SCITEGIC>MOL_PROPERTY
Sum Probability
SciTegic.value.DoubleValue
99.94

@<SCITEGIC>MOL_PROPERTY
Delta G
SciTegic.value.DoubleValue
4.662

@<SCITEGIC>MOL_PROPERTY
G
SciTegic.value.DoubleValue
62.810

@<SCITEGIC>MOL_PROPERTY
E
SciTegic.value.DoubleValue
24.689

@<SCITEGIC>MOL_PROPERTY
-TS
SciTegic.value.DoubleValue
38.121

@<SCITEGIC>MOL_PROPERTY
U+W
SciTegic.value.DoubleValue
0.545

@<SCITEGIC>MOL_PROPERTY
U
SciTegic.value.DoubleValue
52.469

@<SCITEGIC>MOL_PROPERTY
W
SciTegic.value.DoubleValue
-51.924

@<SCITEGIC>MOL_PROPERTY
W(PB)
SciTegic.value.DoubleValue
-54.343

@<SCITEGIC>MOL_PROPERTY
W(SA)
SciTegic.value.DoubleValue
2.419

@<SCITEGIC>MOL_PROPERTY
Valence
SciTegic.value.DoubleValue
6.500

@<SCITEGIC>MOL_PROPERTY
Coulomb
SciTegic.value.DoubleValue
45.340

@<SCITEGIC>MOL_PROPERTY
VdW
SciTegic.value.DoubleValue
0.629

@<SCITEGIC>MOL_PROPERTY
VdW6
SciTegic.value.DoubleValue
-10.352

@<SCITEGIC>MOL_PROPERTY
VdW12
SciTegic.value.DoubleValue
10.981

@<SCITEGIC>MOL_PROPERTY
Bond
SciTegic.value.DoubleValue
0.305

@<SCITEGIC>MOL_PROPERTY
Angle
SciTegic.value.DoubleValue
1.982

@<SCITEGIC>MOL_PROPERTY
Pdih
SciTegic.value.DoubleValue
4.214

@<SCITEGIC>MOL_PROPERTY
Idih
SciTegic.value.DoubleValue
0.000

@<SCITEGIC>MOL_PROPERTY
Tether
SciTegic.value.DoubleValue
0.000

@<TRIPOS>MOLECULE
guest-3_vm2.mol2 : vm2 ligand conformer 359
          29          28           1
SMALL
USER_CHARGES
 
@<TRIPOS>ATOM
       1    C1      20.107541   17.941817   20.437391 C.3        1 MOL1        -0.2427
       2    H1      19.683437   17.531846   19.511678 H          1 MOL1         0.0958
       3    H2      21.200839   17.885645   20.356149 H          1 MOL1         0.0958
       4    H3      19.797649   17.290720   21.262287 H          1 MOL1         0.0958
       5    C2      19.644928   19.402974   20.643904 C.3        1 MOL1        -0.1412
       6    H4      18.547547   19.460478   20.643007 H          1 MOL1         0.0947
       7    H5      19.978684   19.989683   19.776588 H          1 MOL1         0.0947
       8    C3      20.218177   20.051418   21.930231 C.3        1 MOL1        -0.1437
       9    H6      21.183063   19.594085   22.189047 H          1 MOL1         0.0947
      10    H7      20.440146   21.105165   21.711836 H          1 MOL1         0.0947
      11    C4      19.268937   20.019793   23.155933 C.3        1 MOL1        -0.1437
      12    H8      18.350742   20.575273   22.920791 H          1 MOL1         0.0947
      13    H9      19.759655   20.567701   23.970192 H          1 MOL1         0.0947
      14    C5      18.898952   18.595561   23.638309 C.3        1 MOL1        -0.1437
      15    H10     18.352876   18.077955   22.839594 H          1 MOL1         0.0947
      16    H11     19.812796   18.013118   23.815450 H          1 MOL1         0.0947
      17    C6      18.003197   18.579759   24.904387 C.3        1 MOL1        -0.1437
      18    H12     17.736292   17.538155   25.130732 H          1 MOL1         0.0947
      19    H13     17.056819   19.092043   24.682734 H          1 MOL1         0.0947
      20    C7      18.636412   19.215903   26.167090 C.3        1 MOL1        -0.1477
      21    H14     18.770526   20.294882   26.019574 H          1 MOL1         0.0947
      22    H15     17.936292   19.106844   27.005993 H          1 MOL1         0.0947
      23    C8      19.982347   18.572325   26.548418 C.3        1 MOL1         0.0145
      24    H16     20.701299   18.713029   25.737063 H          1 MOL1         0.0921
      25    H17     19.845542   17.499166   26.706283 H          1 MOL1         0.0921
      26    N1      20.583509   19.158451   27.809336 N.4        1 MOL1        -0.5969
      27    H18     20.761535   20.163882   27.715801 H          1 MOL1         0.3603
      28    H19     21.478869   18.716655   28.045420 H          1 MOL1         0.3603
      29    H20     19.966757   19.034867   28.619139 H          1 MOL1         0.3603
@<TRIPOS>BOND
    1     1     2    1
    2     1     3    1
    3     1     4    1
    4     1     5    1
    5     5     6    1
    6     5     7    1
    7     5     8    1
    8     8     9    1
    9     8    10    1
   10     8    11    1
   11    11    12    1
   12    11    13    1
   13    11    14    1
   14    14    15    1
   15    14    16    1
   16    14    17    1
   17    17    18    1
   18    17    19    1
   19    17    20    1
   20    20    21    1
   21    20    22    1
   22    20    23    1
   23    23    24    1
   24    23    25    1
   25    23    26    1
   26    26    27    1
   27    26    28    1
   28    26    29    1
@<TRIPOS>SUBSTRUCTURE
       1 MOL1            1 RESIDUE      1      MOL     
@<SCITEGIC>MOL_PROPERTY
VM2 Rank
SciTegic.value.IntegerValue
359

@<SCITEGIC>MOL_PROPERTY
Conf_Id
SciTegic.value.IntegerValue
266

@<SCITEGIC>MOL_PROPERTY
Probability
SciTegic.value.DoubleValue
0.00

@<SCITEGIC>MOL_PROPERTY
Sum Probability
SciTegic.value.DoubleValue
99.94

@<SCITEGIC>MOL_PROPERTY
Delta G
SciTegic.value.DoubleValue
4.664

@<SCITEGIC>MOL_PROPERTY
G
SciTegic.value.DoubleValue
62.812

@<SCITEGIC>MOL_PROPERTY
E
SciTegic.value.DoubleValue
24.987

@<SCITEGIC>MOL_PROPERTY
-TS
SciTegic.value.DoubleValue
37.825

@<SCITEGIC>MOL_PROPERTY
U+W
SciTegic.value.DoubleValue
0.842

@<SCITEGIC>MOL_PROPERTY
U
SciTegic.value.DoubleValue
52.892

@<SCITEGIC>MOL_PROPERTY
W
SciTegic.value.DoubleValue
-52.050

@<SCITEGIC>MOL_PROPERTY
W(PB)
SciTegic.value.DoubleValue
-54.499

@<SCITEGIC>MOL_PROPERTY
W(SA)
SciTegic.value.DoubleValue
2.449

@<SCITEGIC>MOL_PROPERTY
Valence
SciTegic.value.DoubleValue
6.463

@<SCITEGIC>MOL_PROPERTY
Coulomb
SciTegic.value.DoubleValue
45.485

@<SCITEGIC>MOL_PROPERTY
VdW
SciTegic.value.DoubleValue
0.944

@<SCITEGIC>MOL_PROPERTY
VdW6
SciTegic.value.DoubleValue
-9.991

@<SCITEGIC>MOL_PROPERTY
VdW12
SciTegic.value.DoubleValue
10.936

@<SCITEGIC>MOL_PROPERTY
Bond
SciTegic.value.DoubleValue
0.305

@<SCITEGIC>MOL_PROPERTY
Angle
SciTegic.value.DoubleValue
1.765

@<SCITEGIC>MOL_PROPERTY
Pdih
SciTegic.value.DoubleValue
4.392

@<SCITEGIC>MOL_PROPERTY
Idih
SciTegic.value.DoubleValue
0.000

@<SCITEGIC>MOL_PROPERTY
Tether
SciTegic.value.DoubleValue
0.000

@<TRIPOS>MOLECULE
guest-3_vm2.mol2 : vm2 ligand conformer 360
          29          28           1
SMALL
USER_CHARGES
 
@<TRIPOS>ATOM
       1    C1      20.989279   18.686812   20.769579 C.3        1 MOL1        -0.2427
       2    H1      21.647421   19.565050   20.747706 H          1 MOL1         0.0958
       3    H2      21.204212   18.117469   21.682514 H          1 MOL1         0.0958
       4    H3      21.249296   18.049972   19.914213 H          1 MOL1         0.0958
       5    C2      19.503161   19.104761   20.701311 C.3        1 MOL1        -0.1412
       6    H4      18.864800   18.212732   20.748898 H          1 MOL1         0.0947
       7    H5      19.308578   19.558686   19.719623 H          1 MOL1         0.0947
       8    C3      19.095018   20.118517   21.800973 C.3        1 MOL1        -0.1437
       9    H6      19.645379   21.055088   21.636526 H          1 MOL1         0.0947
      10    H7      18.032676   20.369026   21.675413 H          1 MOL1         0.0947
      11    C4      19.335402   19.656142   23.261851 C.3        1 MOL1        -0.1437
      12    H8      19.045317   20.484705   23.919370 H          1 MOL1         0.0947
      13    H9      20.406734   19.486050   23.430483 H          1 MOL1         0.0947
      14    C5      18.529842   18.393371   23.655474 C.3        1 MOL1        -0.1437
      15    H10     17.455314   18.606804   23.573458 H          1 MOL1         0.0947
      16    H11     18.737599   17.588883   22.938861 H          1 MOL1         0.0947
      17    C6      18.841856   17.846516   25.072672 C.3        1 MOL1        -0.1437
      18    H12     19.888440   17.519902   25.124918 H          1 MOL1         0.0947
      19    H13     18.243572   16.935378   25.211259 H          1 MOL1         0.0947
      20    C7      18.511528   18.815713   26.239204 C.3        1 MOL1        -0.1477
      21    H14     17.600118   19.380866   26.003308 H          1 MOL1         0.0947
      22    H15     18.276088   18.226748   27.135631 H          1 MOL1         0.0947
      23    C8      19.647531   19.797521   26.596408 C.3        1 MOL1         0.0145
      24    H16     19.293889   20.493097   27.362295 H          1 MOL1         0.0921
      25    H17     19.937934   20.379259   25.719932 H          1 MOL1         0.0921
      26    N1      20.890384   19.118648   27.137530 N.4        1 MOL1        -0.5969
      27    H18     20.689264   18.577460   27.984808 H          1 MOL1         0.3603
      28    H19     21.619635   19.797684   27.381550 H          1 MOL1         0.3603
      29    H20     21.297249   18.472205   26.454568 H          1 MOL1         0.3603
@<TRIPOS>BOND
    1     1     2    1
    2     1     3    1
    3     1     4    1
    4     1     5    1
    5     5     6    1
    6     5     7    1
    7     5     8    1
    8     8     9    1
    9     8    10    1
   10     8    11    1
   11    11    12    1
   12    11    13    1
   13    11    14    1
   14    14    15    1
   15    14    16    1
   16    14    17    1
   17    17    18    1
   18    17    19    1
   19    17    20    1
   20    20    21    1
   21    20    22    1
   22    20    23    1
   23    23    24    1
   24    23    25    1
   25    23    26    1
   26    26    27    1
   27    26    28    1
   28    26    29    1
@<TRIPOS>SUBSTRUCTURE
       1 MOL1            1 RESIDUE      1      MOL     
@<SCITEGIC>MOL_PROPERTY
VM2 Rank
SciTegic.value.IntegerValue
360

@<SCITEGIC>MOL_PROPERTY
Conf_Id
SciTegic.value.IntegerValue
2623

@<SCITEGIC>MOL_PROPERTY
Probability
SciTegic.value.DoubleValue
0.00

@<SCITEGIC>MOL_PROPERTY
Sum Probability
SciTegic.value.DoubleValue
99.95

@<SCITEGIC>MOL_PROPERTY
Delta G
SciTegic.value.DoubleValue
4.709

@<SCITEGIC>MOL_PROPERTY
G
SciTegic.value.DoubleValue
62.857

@<SCITEGIC>MOL_PROPERTY
E
SciTegic.value.DoubleValue
24.891

@<SCITEGIC>MOL_PROPERTY
-TS
SciTegic.value.DoubleValue
37.966

@<SCITEGIC>MOL_PROPERTY
U+W
SciTegic.value.DoubleValue
0.747

@<SCITEGIC>MOL_PROPERTY
U
SciTegic.value.DoubleValue
53.257

@<SCITEGIC>MOL_PROPERTY
W
SciTegic.value.DoubleValue
-52.510

@<SCITEGIC>MOL_PROPERTY
W(PB)
SciTegic.value.DoubleValue
-54.910

@<SCITEGIC>MOL_PROPERTY
W(SA)
SciTegic.value.DoubleValue
2.400

@<SCITEGIC>MOL_PROPERTY
Valence
SciTegic.value.DoubleValue
6.240

@<SCITEGIC>MOL_PROPERTY
Coulomb
SciTegic.value.DoubleValue
46.087

@<SCITEGIC>MOL_PROPERTY
VdW
SciTegic.value.DoubleValue
0.930

@<SCITEGIC>MOL_PROPERTY
VdW6
SciTegic.value.DoubleValue
-10.705

@<SCITEGIC>MOL_PROPERTY
VdW12
SciTegic.value.DoubleValue
11.635

@<SCITEGIC>MOL_PROPERTY
Bond
SciTegic.value.DoubleValue
0.336

@<SCITEGIC>MOL_PROPERTY
Angle
SciTegic.value.DoubleValue
2.087

@<SCITEGIC>MOL_PROPERTY
Pdih
SciTegic.value.DoubleValue
3.818

@<SCITEGIC>MOL_PROPERTY
Idih
SciTegic.value.DoubleValue
0.000

@<SCITEGIC>MOL_PROPERTY
Tether
SciTegic.value.DoubleValue
0.000

@<TRIPOS>MOLECULE
guest-3_vm2.mol2 : vm2 ligand conformer 361
          29          28           1
SMALL
USER_CHARGES
 
@<TRIPOS>ATOM
       1    C1      20.956644   18.744547   20.680848 C.3        1 MOL1        -0.2427
       2    H1      21.228812   18.016760   21.455331 H          1 MOL1         0.0958
       3    H2      20.536633   18.197095   19.827151 H          1 MOL1         0.0958
       4    H3      21.880749   19.232844   20.345605 H          1 MOL1         0.0958
       5    C2      19.953922   19.791732   21.215569 C.3        1 MOL1        -0.1412
       6    H4      19.793898   20.555620   20.442013 H          1 MOL1         0.0947
       7    H5      20.390563   20.319586   22.073959 H          1 MOL1         0.0947
       8    C3      18.581424   19.185159   21.602434 C.3        1 MOL1        -0.1437
       9    H6      17.909019   19.994432   21.915699 H          1 MOL1         0.0947
      10    H7      18.119844   18.753651   20.703697 H          1 MOL1         0.0947
      11    C4      18.627998   18.093201   22.705495 C.3        1 MOL1        -0.1437
      12    H8      19.136778   17.204506   22.308810 H          1 MOL1         0.0947
      13    H9      17.600720   17.770581   22.923669 H          1 MOL1         0.0947
      14    C5      19.315663   18.510200   24.031583 C.3        1 MOL1        -0.1437
      15    H10     19.311189   17.634964   24.691974 H          1 MOL1         0.0947
      16    H11     20.369442   18.755741   23.845579 H          1 MOL1         0.0947
      17    C6      18.615678   19.692440   24.747274 C.3        1 MOL1        -0.1437
      18    H12     17.585238   19.408092   25.001092 H          1 MOL1         0.0947
      19    H13     18.538817   20.542571   24.057729 H          1 MOL1         0.0947
      20    C7      19.343121   20.189467   26.022674 C.3        1 MOL1        -0.1477
      21    H14     20.354971   20.536653   25.774717 H          1 MOL1         0.0947
      22    H15     18.804659   21.071692   26.393571 H          1 MOL1         0.0947
      23    C8      19.403063   19.160409   27.170417 C.3        1 MOL1         0.0145
      24    H16     18.463378   18.603810   27.220019 H          1 MOL1         0.0921
      25    H17     19.533569   19.690997   28.117467 H          1 MOL1         0.0921
      26    N1      20.546487   18.170844   27.058706 N.4        1 MOL1        -0.5969
      27    H18     20.494171   17.625946   26.193432 H          1 MOL1         0.3603
      28    H19     20.549107   17.503550   27.838031 H          1 MOL1         0.3603
      29    H20     21.457147   18.641960   27.065561 H          1 MOL1         0.3603
@<TRIPOS>BOND
    1     1     2    1
    2     1     3    1
    3     1     4    1
    4     1     5    1
    5     5     6    1
    6     5     7    1
    7     5     8    1
    8     8     9    1
    9     8    10    1
   10     8    11    1
   11    11    12    1
   12    11    13    1
   13    11    14    1
   14    14    15    1
   15    14    16    1
   16    14    17    1
   17    17    18    1
   18    17    19    1
   19    17    20    1
   20    20    21    1
   21    20    22    1
   22    20    23    1
   23    23    24    1
   24    23    25    1
   25    23    26    1
   26    26    27    1
   27    26    28    1
   28    26    29    1
@<TRIPOS>SUBSTRUCTURE
       1 MOL1            1 RESIDUE      1      MOL     
@<SCITEGIC>MOL_PROPERTY
VM2 Rank
SciTegic.value.IntegerValue
361

@<SCITEGIC>MOL_PROPERTY
Conf_Id
SciTegic.value.IntegerValue
843

@<SCITEGIC>MOL_PROPERTY
Probability
SciTegic.value.DoubleValue
0.00

@<SCITEGIC>MOL_PROPERTY
Sum Probability
SciTegic.value.DoubleValue
99.95

@<SCITEGIC>MOL_PROPERTY
Delta G
SciTegic.value.DoubleValue
4.712

@<SCITEGIC>MOL_PROPERTY
G
SciTegic.value.DoubleValue
62.860

@<SCITEGIC>MOL_PROPERTY
E
SciTegic.value.DoubleValue
24.807

@<SCITEGIC>MOL_PROPERTY
-TS
SciTegic.value.DoubleValue
38.053

@<SCITEGIC>MOL_PROPERTY
U+W
SciTegic.value.DoubleValue
0.663

@<SCITEGIC>MOL_PROPERTY
U
SciTegic.value.DoubleValue
53.073

@<SCITEGIC>MOL_PROPERTY
W
SciTegic.value.DoubleValue
-52.410

@<SCITEGIC>MOL_PROPERTY
W(PB)
SciTegic.value.DoubleValue
-54.809

@<SCITEGIC>MOL_PROPERTY
W(SA)
SciTegic.value.DoubleValue
2.398

@<SCITEGIC>MOL_PROPERTY
Valence
SciTegic.value.DoubleValue
5.710

@<SCITEGIC>MOL_PROPERTY
Coulomb
SciTegic.value.DoubleValue
46.606

@<SCITEGIC>MOL_PROPERTY
VdW
SciTegic.value.DoubleValue
0.757

@<SCITEGIC>MOL_PROPERTY
VdW6
SciTegic.value.DoubleValue
-10.974

@<SCITEGIC>MOL_PROPERTY
VdW12
SciTegic.value.DoubleValue
11.731

@<SCITEGIC>MOL_PROPERTY
Bond
SciTegic.value.DoubleValue
0.336

@<SCITEGIC>MOL_PROPERTY
Angle
SciTegic.value.DoubleValue
2.045

@<SCITEGIC>MOL_PROPERTY
Pdih
SciTegic.value.DoubleValue
3.329

@<SCITEGIC>MOL_PROPERTY
Idih
SciTegic.value.DoubleValue
0.000

@<SCITEGIC>MOL_PROPERTY
Tether
SciTegic.value.DoubleValue
0.000

@<TRIPOS>MOLECULE
guest-3_vm2.mol2 : vm2 ligand conformer 362
          29          28           1
SMALL
USER_CHARGES
 
@<TRIPOS>ATOM
       1    C1      20.869578   18.500138   20.675445 C.3        1 MOL1        -0.2427
       2    H1      20.902218   19.222993   19.850019 H          1 MOL1         0.0958
       3    H2      21.529553   18.860767   21.474164 H          1 MOL1         0.0958
       4    H3      21.281638   17.551376   20.308224 H          1 MOL1         0.0958
       5    C2      19.423259   18.302404   21.182428 C.3        1 MOL1        -0.1412
       6    H4      19.415818   17.583979   22.013048 H          1 MOL1         0.0947
       7    H5      18.827329   17.842964   20.381614 H          1 MOL1         0.0947
       8    C3      18.737848   19.624071   21.612257 C.3        1 MOL1        -0.1437
       9    H6      18.665731   20.285336   20.737892 H          1 MOL1         0.0947
      10    H7      17.700916   19.410436   21.902629 H          1 MOL1         0.0947
      11    C4      19.448524   20.396018   22.756951 C.3        1 MOL1        -0.1437
      12    H8      18.853443   21.286371   23.002171 H          1 MOL1         0.0947
      13    H9      20.410053   20.777889   22.388667 H          1 MOL1         0.0947
      14    C5      19.698976   19.586154   24.055673 C.3        1 MOL1        -0.1437
      15    H10     20.362954   18.737500   23.845299 H          1 MOL1         0.0947
      16    H11     20.239269   20.240229   24.750254 H          1 MOL1         0.0947
      17    C6      18.399271   19.085189   24.733676 C.3        1 MOL1        -0.1437
      18    H12     17.812196   18.503156   24.012092 H          1 MOL1         0.0947
      19    H13     17.776972   19.946448   25.013071 H          1 MOL1         0.0947
      20    C7      18.630700   18.190184   25.977968 C.3        1 MOL1        -0.1477
      21    H14     17.650633   17.833127   26.321198 H          1 MOL1         0.0947
      22    H15     19.198666   17.291737   25.702162 H          1 MOL1         0.0947
      23    C8      19.311446   18.903139   27.164624 C.3        1 MOL1         0.0145
      24    H16     19.063897   18.372433   28.087950 H          1 MOL1         0.0921
      25    H17     18.934486   19.925857   27.249600 H          1 MOL1         0.0921
      26    N1      20.824397   18.950704   27.075978 N.4        1 MOL1        -0.5969
      27    H18     21.232109   18.010250   27.051189 H          1 MOL1         0.3603
      28    H19     21.237247   19.434528   27.881029 H          1 MOL1         0.3603
      29    H20     21.140424   19.439834   26.233822 H          1 MOL1         0.3603
@<TRIPOS>BOND
    1     1     2    1
    2     1     3    1
    3     1     4    1
    4     1     5    1
    5     5     6    1
    6     5     7    1
    7     5     8    1
    8     8     9    1
    9     8    10    1
   10     8    11    1
   11    11    12    1
   12    11    13    1
   13    11    14    1
   14    14    15    1
   15    14    16    1
   16    14    17    1
   17    17    18    1
   18    17    19    1
   19    17    20    1
   20    20    21    1
   21    20    22    1
   22    20    23    1
   23    23    24    1
   24    23    25    1
   25    23    26    1
   26    26    27    1
   27    26    28    1
   28    26    29    1
@<TRIPOS>SUBSTRUCTURE
       1 MOL1            1 RESIDUE      1      MOL     
@<SCITEGIC>MOL_PROPERTY
VM2 Rank
SciTegic.value.IntegerValue
362

@<SCITEGIC>MOL_PROPERTY
Conf_Id
SciTegic.value.IntegerValue
845

@<SCITEGIC>MOL_PROPERTY
Probability
SciTegic.value.DoubleValue
0.00

@<SCITEGIC>MOL_PROPERTY
Sum Probability
SciTegic.value.DoubleValue
99.95

@<SCITEGIC>MOL_PROPERTY
Delta G
SciTegic.value.DoubleValue
4.715

@<SCITEGIC>MOL_PROPERTY
G
SciTegic.value.DoubleValue
62.863

@<SCITEGIC>MOL_PROPERTY
E
SciTegic.value.DoubleValue
24.810

@<SCITEGIC>MOL_PROPERTY
-TS
SciTegic.value.DoubleValue
38.053

@<SCITEGIC>MOL_PROPERTY
U+W
SciTegic.value.DoubleValue
0.665

@<SCITEGIC>MOL_PROPERTY
U
SciTegic.value.DoubleValue
53.074

@<SCITEGIC>MOL_PROPERTY
W
SciTegic.value.DoubleValue
-52.408

@<SCITEGIC>MOL_PROPERTY
W(PB)
SciTegic.value.DoubleValue
-54.805

@<SCITEGIC>MOL_PROPERTY
W(SA)
SciTegic.value.DoubleValue
2.397

@<SCITEGIC>MOL_PROPERTY
Valence
SciTegic.value.DoubleValue
5.710

@<SCITEGIC>MOL_PROPERTY
Coulomb
SciTegic.value.DoubleValue
46.607

@<SCITEGIC>MOL_PROPERTY
VdW
SciTegic.value.DoubleValue
0.757

@<SCITEGIC>MOL_PROPERTY
VdW6
SciTegic.value.DoubleValue
-10.975

@<SCITEGIC>MOL_PROPERTY
VdW12
SciTegic.value.DoubleValue
11.732

@<SCITEGIC>MOL_PROPERTY
Bond
SciTegic.value.DoubleValue
0.336

@<SCITEGIC>MOL_PROPERTY
Angle
SciTegic.value.DoubleValue
2.046

@<SCITEGIC>MOL_PROPERTY
Pdih
SciTegic.value.DoubleValue
3.328

@<SCITEGIC>MOL_PROPERTY
Idih
SciTegic.value.DoubleValue
0.000

@<SCITEGIC>MOL_PROPERTY
Tether
SciTegic.value.DoubleValue
0.000

@<TRIPOS>MOLECULE
guest-3_vm2.mol2 : vm2 ligand conformer 363
          29          28           1
SMALL
USER_CHARGES
 
@<TRIPOS>ATOM
       1    C1      20.663702   19.063771   20.060906 C.3        1 MOL1        -0.2427
       2    H1      21.658266   19.138843   20.519392 H          1 MOL1         0.0958
       3    H2      20.791007   18.660631   19.047892 H          1 MOL1         0.0958
       4    H3      20.252775   20.075908   19.962377 H          1 MOL1         0.0958
       5    C2      19.735716   18.149679   20.893015 C.3        1 MOL1        -0.1412
       6    H4      20.125479   17.122957   20.851964 H          1 MOL1         0.0947
       7    H5      18.737595   18.117889   20.434253 H          1 MOL1         0.0947
       8    C3      19.617722   18.574397   22.376851 C.3        1 MOL1        -0.1437
       9    H6      19.067291   17.787536   22.907782 H          1 MOL1         0.0947
      10    H7      20.618811   18.620048   22.826970 H          1 MOL1         0.0947
      11    C4      18.888435   19.925894   22.576473 C.3        1 MOL1        -0.1437
      12    H8      17.866445   19.850832   22.180422 H          1 MOL1         0.0947
      13    H9      19.388966   20.703440   21.985748 H          1 MOL1         0.0947
      14    C5      18.836784   20.411250   24.048177 C.3        1 MOL1        -0.1437
      15    H10     19.854978   20.596569   24.413661 H          1 MOL1         0.0947
      16    H11     18.340491   21.391563   24.053604 H          1 MOL1         0.0947
      17    C6      18.061713   19.475180   25.015218 C.3        1 MOL1        -0.1437
      18    H12     17.296592   18.917786   24.457575 H          1 MOL1         0.0947
      19    H13     17.508934   20.092904   25.736682 H          1 MOL1         0.0947
      20    C7      18.953138   18.488141   25.810515 C.3        1 MOL1        -0.1477
      21    H14     18.305222   17.790510   26.357610 H          1 MOL1         0.0947
      22    H15     19.559934   17.880260   25.129908 H          1 MOL1         0.0947
      23    C8      19.873234   19.203946   26.817417 C.3        1 MOL1         0.0145
      24    H16     19.269702   19.798342   27.508637 H          1 MOL1         0.0921
      25    H17     20.552698   19.876584   26.288197 H          1 MOL1         0.0921
      26    N1      20.713556   18.245742   27.636428 N.4        1 MOL1        -0.5969
      27    H18     21.326062   17.673895   27.045511 H          1 MOL1         0.3603
      28    H19     20.133312   17.601072   28.183402 H          1 MOL1         0.3603
      29    H20     21.317296   18.741650   28.301428 H          1 MOL1         0.3603
@<TRIPOS>BOND
    1     1     2    1
    2     1     3    1
    3     1     4    1
    4     1     5    1
    5     5     6    1
    6     5     7    1
    7     5     8    1
    8     8     9    1
    9     8    10    1
   10     8    11    1
   11    11    12    1
   12    11    13    1
   13    11    14    1
   14    14    15    1
   15    14    16    1
   16    14    17    1
   17    17    18    1
   18    17    19    1
   19    17    20    1
   20    20    21    1
   21    20    22    1
   22    20    23    1
   23    23    24    1
   24    23    25    1
   25    23    26    1
   26    26    27    1
   27    26    28    1
   28    26    29    1
@<TRIPOS>SUBSTRUCTURE
       1 MOL1            1 RESIDUE      1      MOL     
@<SCITEGIC>MOL_PROPERTY
VM2 Rank
SciTegic.value.IntegerValue
363

@<SCITEGIC>MOL_PROPERTY
Conf_Id
SciTegic.value.IntegerValue
1337

@<SCITEGIC>MOL_PROPERTY
Probability
SciTegic.value.DoubleValue
0.00

@<SCITEGIC>MOL_PROPERTY
Sum Probability
SciTegic.value.DoubleValue
99.95

@<SCITEGIC>MOL_PROPERTY
Delta G
SciTegic.value.DoubleValue
4.715

@<SCITEGIC>MOL_PROPERTY
G
SciTegic.value.DoubleValue
62.863

@<SCITEGIC>MOL_PROPERTY
E
SciTegic.value.DoubleValue
25.168

@<SCITEGIC>MOL_PROPERTY
-TS
SciTegic.value.DoubleValue
37.696

@<SCITEGIC>MOL_PROPERTY
U+W
SciTegic.value.DoubleValue
1.023

@<SCITEGIC>MOL_PROPERTY
U
SciTegic.value.DoubleValue
53.294

@<SCITEGIC>MOL_PROPERTY
W
SciTegic.value.DoubleValue
-52.271

@<SCITEGIC>MOL_PROPERTY
W(PB)
SciTegic.value.DoubleValue
-54.757

@<SCITEGIC>MOL_PROPERTY
W(SA)
SciTegic.value.DoubleValue
2.485

@<SCITEGIC>MOL_PROPERTY
Valence
SciTegic.value.DoubleValue
6.666

@<SCITEGIC>MOL_PROPERTY
Coulomb
SciTegic.value.DoubleValue
45.624

@<SCITEGIC>MOL_PROPERTY
VdW
SciTegic.value.DoubleValue
1.005

@<SCITEGIC>MOL_PROPERTY
VdW6
SciTegic.value.DoubleValue
-9.687

@<SCITEGIC>MOL_PROPERTY
VdW12
SciTegic.value.DoubleValue
10.692

@<SCITEGIC>MOL_PROPERTY
Bond
SciTegic.value.DoubleValue
0.305

@<SCITEGIC>MOL_PROPERTY
Angle
SciTegic.value.DoubleValue
1.640

@<SCITEGIC>MOL_PROPERTY
Pdih
SciTegic.value.DoubleValue
4.721

@<SCITEGIC>MOL_PROPERTY
Idih
SciTegic.value.DoubleValue
0.000

@<SCITEGIC>MOL_PROPERTY
Tether
SciTegic.value.DoubleValue
0.000

@<TRIPOS>MOLECULE
guest-3_vm2.mol2 : vm2 ligand conformer 364
          29          28           1
SMALL
USER_CHARGES
 
@<TRIPOS>ATOM
       1    C1      20.249183   19.021378   20.068981 C.3        1 MOL1        -0.2427
       2    H1      19.219014   19.365054   19.913762 H          1 MOL1         0.0958
       3    H2      20.867425   19.465728   19.278260 H          1 MOL1         0.0958
       4    H3      20.272054   17.931432   19.940516 H          1 MOL1         0.0958
       5    C2      20.779617   19.427943   21.462498 C.3        1 MOL1        -0.1412
       6    H4      20.715331   20.518853   21.578542 H          1 MOL1         0.0947
       7    H5      21.847428   19.174937   21.521702 H          1 MOL1         0.0947
       8    C3      20.039933   18.733426   22.631205 C.3        1 MOL1        -0.1437
       9    H6      20.123761   17.643694   22.519631 H          1 MOL1         0.0947
      10    H7      20.561344   18.985363   23.560934 H          1 MOL1         0.0947
      11    C4      18.545217   19.130968   22.736430 C.3        1 MOL1        -0.1437
      12    H8      18.030094   18.788794   21.829348 H          1 MOL1         0.0947
      13    H9      18.440445   20.224379   22.751661 H          1 MOL1         0.0947
      14    C5      17.820437   18.508899   23.958825 C.3        1 MOL1        -0.1437
      15    H10     16.788958   18.279671   23.657277 H          1 MOL1         0.0947
      16    H11     18.267928   17.540428   24.219516 H          1 MOL1         0.0947
      17    C6      17.739295   19.431587   25.204787 C.3        1 MOL1        -0.1437
      18    H12     17.111272   18.941970   25.961959 H          1 MOL1         0.0947
      19    H13     17.211751   20.355927   24.931881 H          1 MOL1         0.0947
      20    C7      19.094850   19.801358   25.852237 C.3        1 MOL1        -0.1477
      21    H14     19.700750   20.384156   25.147507 H          1 MOL1         0.0947
      22    H15     18.907529   20.459926   26.710705 H          1 MOL1         0.0947
      23    C8      19.877350   18.565280   26.333469 C.3        1 MOL1         0.0145
      24    H16     20.085771   17.906170   25.486956 H          1 MOL1         0.0921
      25    H17     19.277824   18.011235   27.060734 H          1 MOL1         0.0921
      26    N1      21.198117   18.917161   26.986567 N.4        1 MOL1        -0.5969
      27    H18     21.820203   19.420122   26.345398 H          1 MOL1         0.3603
      28    H19     21.702889   18.080627   27.299602 H          1 MOL1         0.3603
      29    H20     21.068404   19.513004   27.810940 H          1 MOL1         0.3603
@<TRIPOS>BOND
    1     1     2    1
    2     1     3    1
    3     1     4    1
    4     1     5    1
    5     5     6    1
    6     5     7    1
    7     5     8    1
    8     8     9    1
    9     8    10    1
   10     8    11    1
   11    11    12    1
   12    11    13    1
   13    11    14    1
   14    14    15    1
   15    14    16    1
   16    14    17    1
   17    17    18    1
   18    17    19    1
   19    17    20    1
   20    20    21    1
   21    20    22    1
   22    20    23    1
   23    23    24    1
   24    23    25    1
   25    23    26    1
   26    26    27    1
   27    26    28    1
   28    26    29    1
@<TRIPOS>SUBSTRUCTURE
       1 MOL1            1 RESIDUE      1      MOL     
@<SCITEGIC>MOL_PROPERTY
VM2 Rank
SciTegic.value.IntegerValue
364

@<SCITEGIC>MOL_PROPERTY
Conf_Id
SciTegic.value.IntegerValue
1369

@<SCITEGIC>MOL_PROPERTY
Probability
SciTegic.value.DoubleValue
0.00

@<SCITEGIC>MOL_PROPERTY
Sum Probability
SciTegic.value.DoubleValue
99.95

@<SCITEGIC>MOL_PROPERTY
Delta G
SciTegic.value.DoubleValue
4.759

@<SCITEGIC>MOL_PROPERTY
G
SciTegic.value.DoubleValue
62.907

@<SCITEGIC>MOL_PROPERTY
E
SciTegic.value.DoubleValue
24.856

@<SCITEGIC>MOL_PROPERTY
-TS
SciTegic.value.DoubleValue
38.051

@<SCITEGIC>MOL_PROPERTY
U+W
SciTegic.value.DoubleValue
0.712

@<SCITEGIC>MOL_PROPERTY
U
SciTegic.value.DoubleValue
53.465

@<SCITEGIC>MOL_PROPERTY
W
SciTegic.value.DoubleValue
-52.753

@<SCITEGIC>MOL_PROPERTY
W(PB)
SciTegic.value.DoubleValue
-55.178

@<SCITEGIC>MOL_PROPERTY
W(SA)
SciTegic.value.DoubleValue
2.425

@<SCITEGIC>MOL_PROPERTY
Valence
SciTegic.value.DoubleValue
6.490

@<SCITEGIC>MOL_PROPERTY
Coulomb
SciTegic.value.DoubleValue
46.407

@<SCITEGIC>MOL_PROPERTY
VdW
SciTegic.value.DoubleValue
0.567

@<SCITEGIC>MOL_PROPERTY
VdW6
SciTegic.value.DoubleValue
-10.393

@<SCITEGIC>MOL_PROPERTY
VdW12
SciTegic.value.DoubleValue
10.961

@<SCITEGIC>MOL_PROPERTY
Bond
SciTegic.value.DoubleValue
0.299

@<SCITEGIC>MOL_PROPERTY
Angle
SciTegic.value.DoubleValue
1.747

@<SCITEGIC>MOL_PROPERTY
Pdih
SciTegic.value.DoubleValue
4.444

@<SCITEGIC>MOL_PROPERTY
Idih
SciTegic.value.DoubleValue
0.000

@<SCITEGIC>MOL_PROPERTY
Tether
SciTegic.value.DoubleValue
0.000

@<TRIPOS>MOLECULE
guest-3_vm2.mol2 : vm2 ligand conformer 365
          29          28           1
SMALL
USER_CHARGES
 
@<TRIPOS>ATOM
       1    C1      19.702691   19.196578   20.151275 C.3        1 MOL1        -0.2427
       2    H1      19.932133   18.142708   20.351919 H          1 MOL1         0.0958
       3    H2      19.037364   19.229938   19.278907 H          1 MOL1         0.0958
       4    H3      20.636444   19.706901   19.881869 H          1 MOL1         0.0958
       5    C2      19.032755   19.871740   21.369163 C.3        1 MOL1        -0.1412
       6    H4      18.111203   19.334490   21.630050 H          1 MOL1         0.0947
       7    H5      18.719963   20.885628   21.083324 H          1 MOL1         0.0947
       8    C3      19.961923   19.972028   22.605326 C.3        1 MOL1        -0.1437
       9    H6      20.830424   20.592688   22.345771 H          1 MOL1         0.0947
      10    H7      19.435583   20.518398   23.397972 H          1 MOL1         0.0947
      11    C4      20.471635   18.613480   23.158223 C.3        1 MOL1        -0.1437
      12    H8      21.128727   18.793930   24.017683 H          1 MOL1         0.0947
      13    H9      21.117132   18.141037   22.406133 H          1 MOL1         0.0947
      14    C5      19.362596   17.605576   23.558579 C.3        1 MOL1        -0.1437
      15    H10     18.818427   17.300053   22.655104 H          1 MOL1         0.0947
      16    H11     19.840071   16.689507   23.932351 H          1 MOL1         0.0947
      17    C6      18.333668   18.099310   24.611376 C.3        1 MOL1        -0.1437
      18    H12     17.568069   17.317329   24.709325 H          1 MOL1         0.0947
      19    H13     17.798869   18.986514   24.247235 H          1 MOL1         0.0947
      20    C7      18.919120   18.364853   26.021547 C.3        1 MOL1        -0.1477
      21    H14     18.113412   18.250864   26.758969 H          1 MOL1         0.0947
      22    H15     19.672209   17.604050   26.265912 H          1 MOL1         0.0947
      23    C8      19.516079   19.775645   26.182048 C.3        1 MOL1         0.0145
      24    H16     18.749377   20.524390   25.965711 H          1 MOL1         0.0921
      25    H17     20.341134   19.919062   25.482394 H          1 MOL1         0.0921
      26    N1      20.043533   20.038790   27.577463 N.4        1 MOL1        -0.5969
      27    H18     19.307592   19.951891   28.286152 H          1 MOL1         0.3603
      28    H19     20.433556   20.983572   27.665844 H          1 MOL1         0.3603
      29    H20     20.788360   19.382388   27.833857 H          1 MOL1         0.3603
@<TRIPOS>BOND
    1     1     2    1
    2     1     3    1
    3     1     4    1
    4     1     5    1
    5     5     6    1
    6     5     7    1
    7     5     8    1
    8     8     9    1
    9     8    10    1
   10     8    11    1
   11    11    12    1
   12    11    13    1
   13    11    14    1
   14    14    15    1
   15    14    16    1
   16    14    17    1
   17    17    18    1
   18    17    19    1
   19    17    20    1
   20    20    21    1
   21    20    22    1
   22    20    23    1
   23    23    24    1
   24    23    25    1
   25    23    26    1
   26    26    27    1
   27    26    28    1
   28    26    29    1
@<TRIPOS>SUBSTRUCTURE
       1 MOL1            1 RESIDUE      1      MOL     
@<SCITEGIC>MOL_PROPERTY
VM2 Rank
SciTegic.value.IntegerValue
365

@<SCITEGIC>MOL_PROPERTY
Conf_Id
SciTegic.value.IntegerValue
1287

@<SCITEGIC>MOL_PROPERTY
Probability
SciTegic.value.DoubleValue
0.00

@<SCITEGIC>MOL_PROPERTY
Sum Probability
SciTegic.value.DoubleValue
99.96

@<SCITEGIC>MOL_PROPERTY
Delta G
SciTegic.value.DoubleValue
4.770

@<SCITEGIC>MOL_PROPERTY
G
SciTegic.value.DoubleValue
62.918

@<SCITEGIC>MOL_PROPERTY
E
SciTegic.value.DoubleValue
24.347

@<SCITEGIC>MOL_PROPERTY
-TS
SciTegic.value.DoubleValue
38.571

@<SCITEGIC>MOL_PROPERTY
U+W
SciTegic.value.DoubleValue
0.202

@<SCITEGIC>MOL_PROPERTY
U
SciTegic.value.DoubleValue
52.862

@<SCITEGIC>MOL_PROPERTY
W
SciTegic.value.DoubleValue
-52.660

@<SCITEGIC>MOL_PROPERTY
W(PB)
SciTegic.value.DoubleValue
-55.038

@<SCITEGIC>MOL_PROPERTY
W(SA)
SciTegic.value.DoubleValue
2.379

@<SCITEGIC>MOL_PROPERTY
Valence
SciTegic.value.DoubleValue
6.386

@<SCITEGIC>MOL_PROPERTY
Coulomb
SciTegic.value.DoubleValue
46.094

@<SCITEGIC>MOL_PROPERTY
VdW
SciTegic.value.DoubleValue
0.382

@<SCITEGIC>MOL_PROPERTY
VdW6
SciTegic.value.DoubleValue
-11.635

@<SCITEGIC>MOL_PROPERTY
VdW12
SciTegic.value.DoubleValue
12.017

@<SCITEGIC>MOL_PROPERTY
Bond
SciTegic.value.DoubleValue
0.346

@<SCITEGIC>MOL_PROPERTY
Angle
SciTegic.value.DoubleValue
2.394

@<SCITEGIC>MOL_PROPERTY
Pdih
SciTegic.value.DoubleValue
3.645

@<SCITEGIC>MOL_PROPERTY
Idih
SciTegic.value.DoubleValue
0.000

@<SCITEGIC>MOL_PROPERTY
Tether
SciTegic.value.DoubleValue
0.000

@<TRIPOS>MOLECULE
guest-3_vm2.mol2 : vm2 ligand conformer 366
          29          28           1
SMALL
USER_CHARGES
 
@<TRIPOS>ATOM
       1    C1      20.154593   18.756736   20.063066 C.3        1 MOL1        -0.2427
       2    H1      20.863421   19.590525   19.977233 H          1 MOL1         0.0958
       3    H2      20.363371   18.053143   19.246808 H          1 MOL1         0.0958
       4    H3      19.141547   19.148501   19.909077 H          1 MOL1         0.0958
       5    C2      20.288910   18.051835   21.431868 C.3        1 MOL1        -0.1412
       6    H4      21.275117   17.569945   21.485861 H          1 MOL1         0.0947
       7    H5      19.547600   17.243952   21.505817 H          1 MOL1         0.0947
       8    C3      20.138958   19.010858   22.637334 C.3        1 MOL1        -0.1437
       9    H6      20.370424   18.449549   23.548979 H          1 MOL1         0.0947
      10    H7      20.894651   19.805248   22.567582 H          1 MOL1         0.0947
      11    C4      18.728454   19.644529   22.747894 C.3        1 MOL1        -0.1437
      12    H8      17.955541   18.864365   22.721280 H          1 MOL1         0.0947
      13    H9      18.558717   20.270981   21.862466 H          1 MOL1         0.0947
      14    C5      18.543375   20.535670   24.004130 C.3        1 MOL1        -0.1437
      15    H10     19.498831   20.991352   24.296711 H          1 MOL1         0.0947
      16    H11     17.893899   21.377422   23.726531 H          1 MOL1         0.0947
      17    C6      17.879219   19.823852   25.213498 C.3        1 MOL1        -0.1437
      18    H12     16.889873   19.453410   24.911586 H          1 MOL1         0.0947
      19    H13     17.691855   20.569772   25.998321 H          1 MOL1         0.0947
      20    C7      18.685865   18.654666   25.826505 C.3        1 MOL1        -0.1477
      21    H14     18.112012   18.229594   26.660637 H          1 MOL1         0.0947
      22    H15     18.796506   17.848641   25.090642 H          1 MOL1         0.0947
      23    C8      20.066830   19.096718   26.345454 C.3        1 MOL1         0.0145
      24    H16     19.942637   19.875560   27.102617 H          1 MOL1         0.0921
      25    H17     20.657176   19.508409   25.522987 H          1 MOL1         0.0921
      26    N1      20.857797   17.963136   26.965250 N.4        1 MOL1        -0.5969
      27    H18     20.368780   17.551531   27.767055 H          1 MOL1         0.3603
      28    H19     21.773406   18.278464   27.304080 H          1 MOL1         0.3603
      29    H20     21.030466   17.206084   26.295838 H          1 MOL1         0.3603
@<TRIPOS>BOND
    1     1     2    1
    2     1     3    1
    3     1     4    1
    4     1     5    1
    5     5     6    1
    6     5     7    1
    7     5     8    1
    8     8     9    1
    9     8    10    1
   10     8    11    1
   11    11    12    1
   12    11    13    1
   13    11    14    1
   14    14    15    1
   15    14    16    1
   16    14    17    1
   17    17    18    1
   18    17    19    1
   19    17    20    1
   20    20    21    1
   21    20    22    1
   22    20    23    1
   23    23    24    1
   24    23    25    1
   25    23    26    1
   26    26    27    1
   27    26    28    1
   28    26    29    1
@<TRIPOS>SUBSTRUCTURE
       1 MOL1            1 RESIDUE      1      MOL     
@<SCITEGIC>MOL_PROPERTY
VM2 Rank
SciTegic.value.IntegerValue
366

@<SCITEGIC>MOL_PROPERTY
Conf_Id
SciTegic.value.IntegerValue
1348

@<SCITEGIC>MOL_PROPERTY
Probability
SciTegic.value.DoubleValue
0.00

@<SCITEGIC>MOL_PROPERTY
Sum Probability
SciTegic.value.DoubleValue
99.96

@<SCITEGIC>MOL_PROPERTY
Delta G
SciTegic.value.DoubleValue
4.771

@<SCITEGIC>MOL_PROPERTY
G
SciTegic.value.DoubleValue
62.919

@<SCITEGIC>MOL_PROPERTY
E
SciTegic.value.DoubleValue
24.868

@<SCITEGIC>MOL_PROPERTY
-TS
SciTegic.value.DoubleValue
38.051

@<SCITEGIC>MOL_PROPERTY
U+W
SciTegic.value.DoubleValue
0.724

@<SCITEGIC>MOL_PROPERTY
U
SciTegic.value.DoubleValue
53.465

@<SCITEGIC>MOL_PROPERTY
W
SciTegic.value.DoubleValue
-52.741

@<SCITEGIC>MOL_PROPERTY
W(PB)
SciTegic.value.DoubleValue
-55.177

@<SCITEGIC>MOL_PROPERTY
W(SA)
SciTegic.value.DoubleValue
2.436

@<SCITEGIC>MOL_PROPERTY
Valence
SciTegic.value.DoubleValue
6.490

@<SCITEGIC>MOL_PROPERTY
Coulomb
SciTegic.value.DoubleValue
46.407

@<SCITEGIC>MOL_PROPERTY
VdW
SciTegic.value.DoubleValue
0.567

@<SCITEGIC>MOL_PROPERTY
VdW6
SciTegic.value.DoubleValue
-10.393

@<SCITEGIC>MOL_PROPERTY
VdW12
SciTegic.value.DoubleValue
10.960

@<SCITEGIC>MOL_PROPERTY
Bond
SciTegic.value.DoubleValue
0.299

@<SCITEGIC>MOL_PROPERTY
Angle
SciTegic.value.DoubleValue
1.747

@<SCITEGIC>MOL_PROPERTY
Pdih
SciTegic.value.DoubleValue
4.445

@<SCITEGIC>MOL_PROPERTY
Idih
SciTegic.value.DoubleValue
0.000

@<SCITEGIC>MOL_PROPERTY
Tether
SciTegic.value.DoubleValue
0.000

@<TRIPOS>MOLECULE
guest-3_vm2.mol2 : vm2 ligand conformer 367
          29          28           1
SMALL
USER_CHARGES
 
@<TRIPOS>ATOM
       1    C1      19.619974   18.963976   20.146067 C.3        1 MOL1        -0.2427
       2    H1      20.025639   17.989889   19.843582 H          1 MOL1         0.0958
       3    H2      19.095330   19.392679   19.282494 H          1 MOL1         0.0958
       4    H3      20.460371   19.627430   20.385030 H          1 MOL1         0.0958
       5    C2      18.657082   18.815811   21.345564 C.3        1 MOL1        -0.1412
       6    H4      17.778467   18.239366   21.024224 H          1 MOL1         0.0947
       7    H5      18.278050   19.803398   21.640465 H          1 MOL1         0.0947
       8    C3      19.296778   18.102568   22.563587 C.3        1 MOL1        -0.1437
       9    H6      18.532537   17.980330   23.341298 H          1 MOL1         0.0947
      10    H7      19.582004   17.083825   22.267459 H          1 MOL1         0.0947
      11    C4      20.541905   18.811062   23.162631 C.3        1 MOL1        -0.1437
      12    H8      21.351285   18.799239   22.420828 H          1 MOL1         0.0947
      13    H9      20.925364   18.222416   24.004926 H          1 MOL1         0.0947
      14    C5      20.312648   20.275998   23.618185 C.3        1 MOL1        -0.1437
      15    H10     21.255956   20.669259   24.021157 H          1 MOL1         0.0947
      16    H11     20.096293   20.891957   22.735283 H          1 MOL1         0.0947
      17    C6      19.188313   20.501480   24.665023 C.3        1 MOL1        -0.1437
      18    H12     18.218637   20.166415   24.273614 H          1 MOL1         0.0947
      19    H13     19.087002   21.586590   24.804674 H          1 MOL1         0.0947
      20    C7      19.454781   19.870317   26.055161 C.3        1 MOL1        -0.1477
      21    H14     20.515605   19.974387   26.318788 H          1 MOL1         0.0947
      22    H15     18.891677   20.438076   26.807832 H          1 MOL1         0.0947
      23    C8      19.024665   18.394435   26.151229 C.3        1 MOL1         0.0145
      24    H16     19.583680   17.790167   25.434873 H          1 MOL1         0.0921
      25    H17     17.960510   18.307181   25.916253 H          1 MOL1         0.0921
      26    N1      19.247854   17.802353   27.527551 N.4        1 MOL1        -0.5969
      27    H18     18.952499   16.820902   27.572951 H          1 MOL1         0.3603
      28    H19     18.722146   18.306248   28.249440 H          1 MOL1         0.3603
      29    H20     20.236186   17.830288   27.799193 H          1 MOL1         0.3603
@<TRIPOS>BOND
    1     1     2    1
    2     1     3    1
    3     1     4    1
    4     1     5    1
    5     5     6    1
    6     5     7    1
    7     5     8    1
    8     8     9    1
    9     8    10    1
   10     8    11    1
   11    11    12    1
   12    11    13    1
   13    11    14    1
   14    14    15    1
   15    14    16    1
   16    14    17    1
   17    17    18    1
   18    17    19    1
   19    17    20    1
   20    20    21    1
   21    20    22    1
   22    20    23    1
   23    23    24    1
   24    23    25    1
   25    23    26    1
   26    26    27    1
   27    26    28    1
   28    26    29    1
@<TRIPOS>SUBSTRUCTURE
       1 MOL1            1 RESIDUE      1      MOL     
@<SCITEGIC>MOL_PROPERTY
VM2 Rank
SciTegic.value.IntegerValue
367

@<SCITEGIC>MOL_PROPERTY
Conf_Id
SciTegic.value.IntegerValue
619

@<SCITEGIC>MOL_PROPERTY
Probability
SciTegic.value.DoubleValue
0.00

@<SCITEGIC>MOL_PROPERTY
Sum Probability
SciTegic.value.DoubleValue
99.96

@<SCITEGIC>MOL_PROPERTY
Delta G
SciTegic.value.DoubleValue
4.772

@<SCITEGIC>MOL_PROPERTY
G
SciTegic.value.DoubleValue
62.920

@<SCITEGIC>MOL_PROPERTY
E
SciTegic.value.DoubleValue
24.349

@<SCITEGIC>MOL_PROPERTY
-TS
SciTegic.value.DoubleValue
38.572

@<SCITEGIC>MOL_PROPERTY
U+W
SciTegic.value.DoubleValue
0.204

@<SCITEGIC>MOL_PROPERTY
U
SciTegic.value.DoubleValue
52.862

@<SCITEGIC>MOL_PROPERTY
W
SciTegic.value.DoubleValue
-52.658

@<SCITEGIC>MOL_PROPERTY
W(PB)
SciTegic.value.DoubleValue
-55.034

@<SCITEGIC>MOL_PROPERTY
W(SA)
SciTegic.value.DoubleValue
2.376

@<SCITEGIC>MOL_PROPERTY
Valence
SciTegic.value.DoubleValue
6.386

@<SCITEGIC>MOL_PROPERTY
Coulomb
SciTegic.value.DoubleValue
46.094

@<SCITEGIC>MOL_PROPERTY
VdW
SciTegic.value.DoubleValue
0.382

@<SCITEGIC>MOL_PROPERTY
VdW6
SciTegic.value.DoubleValue
-11.635

@<SCITEGIC>MOL_PROPERTY
VdW12
SciTegic.value.DoubleValue
12.017

@<SCITEGIC>MOL_PROPERTY
Bond
SciTegic.value.DoubleValue
0.346

@<SCITEGIC>MOL_PROPERTY
Angle
SciTegic.value.DoubleValue
2.394

@<SCITEGIC>MOL_PROPERTY
Pdih
SciTegic.value.DoubleValue
3.645

@<SCITEGIC>MOL_PROPERTY
Idih
SciTegic.value.DoubleValue
0.000

@<SCITEGIC>MOL_PROPERTY
Tether
SciTegic.value.DoubleValue
0.000

@<TRIPOS>MOLECULE
guest-3_vm2.mol2 : vm2 ligand conformer 368
          29          28           1
SMALL
USER_CHARGES
 
@<TRIPOS>ATOM
       1    C1      20.693824   17.934119   21.004905 C.3        1 MOL1        -0.2427
       2    H1      21.085871   18.540408   20.178024 H          1 MOL1         0.0958
       3    H2      21.277551   18.169086   21.901520 H          1 MOL1         0.0958
       4    H3      20.873438   16.879621   20.758651 H          1 MOL1         0.0958
       5    C2      19.182682   18.191432   21.209110 C.3        1 MOL1        -0.1412
       6    H4      18.785869   17.532736   21.994090 H          1 MOL1         0.0947
       7    H5      18.663285   17.905667   20.283691 H          1 MOL1         0.0947
       8    C3      18.846176   19.671350   21.526343 C.3        1 MOL1        -0.1437
       9    H6      19.580212   20.338572   21.054020 H          1 MOL1         0.0947
      10    H7      17.882899   19.910724   21.055047 H          1 MOL1         0.0947
      11    C4      18.719477   19.999572   23.036208 C.3        1 MOL1        -0.1437
      12    H8      17.914351   19.390205   23.467576 H          1 MOL1         0.0947
      13    H9      18.400615   21.046193   23.135814 H          1 MOL1         0.0947
      14    C5      20.023802   19.792782   23.843558 C.3        1 MOL1        -0.1437
      15    H10     20.273956   18.725341   23.877905 H          1 MOL1         0.0947
      16    H11     20.852307   20.289964   23.320779 H          1 MOL1         0.0947
      17    C6      19.947687   20.352106   25.287461 C.3        1 MOL1        -0.1437
      18    H12     19.795271   21.439288   25.243601 H          1 MOL1         0.0947
      19    H13     20.921019   20.208417   25.775441 H          1 MOL1         0.0947
      20    C7      18.835005   19.726413   26.168917 C.3        1 MOL1        -0.1477
      21    H14     18.890970   20.154411   27.178551 H          1 MOL1         0.0947
      22    H15     17.850205   20.011119   25.776895 H          1 MOL1         0.0947
      23    C8      18.905264   18.189407   26.267891 C.3        1 MOL1         0.0145
      24    H16     18.814788   17.751150   25.270557 H          1 MOL1         0.0921
      25    H17     18.073054   17.825485   26.876508 H          1 MOL1         0.0921
      26    N1      20.190083   17.680818   26.890607 N.4        1 MOL1        -0.5969
      27    H18     21.010758   17.970148   26.349423 H          1 MOL1         0.3603
      28    H19     20.208378   16.656607   26.945094 H          1 MOL1         0.3603
      29    H20     20.315498   18.034807   27.844577 H          1 MOL1         0.3603
@<TRIPOS>BOND
    1     1     2    1
    2     1     3    1
    3     1     4    1
    4     1     5    1
    5     5     6    1
    6     5     7    1
    7     5     8    1
    8     8     9    1
    9     8    10    1
   10     8    11    1
   11    11    12    1
   12    11    13    1
   13    11    14    1
   14    14    15    1
   15    14    16    1
   16    14    17    1
   17    17    18    1
   18    17    19    1
   19    17    20    1
   20    20    21    1
   21    20    22    1
   22    20    23    1
   23    23    24    1
   24    23    25    1
   25    23    26    1
   26    26    27    1
   27    26    28    1
   28    26    29    1
@<TRIPOS>SUBSTRUCTURE
       1 MOL1            1 RESIDUE      1      MOL     
@<SCITEGIC>MOL_PROPERTY
VM2 Rank
SciTegic.value.IntegerValue
368

@<SCITEGIC>MOL_PROPERTY
Conf_Id
SciTegic.value.IntegerValue
1358

@<SCITEGIC>MOL_PROPERTY
Probability
SciTegic.value.DoubleValue
0.00

@<SCITEGIC>MOL_PROPERTY
Sum Probability
SciTegic.value.DoubleValue
99.96

@<SCITEGIC>MOL_PROPERTY
Delta G
SciTegic.value.DoubleValue
4.809

@<SCITEGIC>MOL_PROPERTY
G
SciTegic.value.DoubleValue
62.957

@<SCITEGIC>MOL_PROPERTY
E
SciTegic.value.DoubleValue
24.875

@<SCITEGIC>MOL_PROPERTY
-TS
SciTegic.value.DoubleValue
38.083

@<SCITEGIC>MOL_PROPERTY
U+W
SciTegic.value.DoubleValue
0.730

@<SCITEGIC>MOL_PROPERTY
U
SciTegic.value.DoubleValue
53.143

@<SCITEGIC>MOL_PROPERTY
W
SciTegic.value.DoubleValue
-52.413

@<SCITEGIC>MOL_PROPERTY
W(PB)
SciTegic.value.DoubleValue
-54.810

@<SCITEGIC>MOL_PROPERTY
W(SA)
SciTegic.value.DoubleValue
2.396

@<SCITEGIC>MOL_PROPERTY
Valence
SciTegic.value.DoubleValue
6.377

@<SCITEGIC>MOL_PROPERTY
Coulomb
SciTegic.value.DoubleValue
46.006

@<SCITEGIC>MOL_PROPERTY
VdW
SciTegic.value.DoubleValue
0.760

@<SCITEGIC>MOL_PROPERTY
VdW6
SciTegic.value.DoubleValue
-10.915

@<SCITEGIC>MOL_PROPERTY
VdW12
SciTegic.value.DoubleValue
11.675

@<SCITEGIC>MOL_PROPERTY
Bond
SciTegic.value.DoubleValue
0.319

@<SCITEGIC>MOL_PROPERTY
Angle
SciTegic.value.DoubleValue
1.678

@<SCITEGIC>MOL_PROPERTY
Pdih
SciTegic.value.DoubleValue
4.381

@<SCITEGIC>MOL_PROPERTY
Idih
SciTegic.value.DoubleValue
0.000

@<SCITEGIC>MOL_PROPERTY
Tether
SciTegic.value.DoubleValue
0.000

@<TRIPOS>MOLECULE
guest-3_vm2.mol2 : vm2 ligand conformer 369
          29          28           1
SMALL
USER_CHARGES
 
@<TRIPOS>ATOM
       1    C1      18.402663   18.907381   20.089488 C.3        1 MOL1        -0.2427
       2    H1      18.888670   19.426860   19.253469 H          1 MOL1         0.0958
       3    H2      17.738654   18.142198   19.666997 H          1 MOL1         0.0958
       4    H3      17.774720   19.631208   20.622772 H          1 MOL1         0.0958
       5    C2      19.449523   18.258250   21.023693 C.3        1 MOL1        -0.1412
       6    H4      19.985979   17.482662   20.459525 H          1 MOL1         0.0947
       7    H5      18.937017   17.739507   21.842879 H          1 MOL1         0.0947
       8    C3      20.485013   19.271490   21.576145 C.3        1 MOL1        -0.1437
       9    H6      21.334029   18.728564   22.013570 H          1 MOL1         0.0947
      10    H7      20.902067   19.832749   20.728628 H          1 MOL1         0.0947
      11    C4      19.922539   20.278740   22.615944 C.3        1 MOL1        -0.1437
      12    H8      18.856056   20.467687   22.441557 H          1 MOL1         0.0947
      13    H9      20.421399   21.244780   22.457564 H          1 MOL1         0.0947
      14    C5      20.148091   19.875792   24.096060 C.3        1 MOL1        -0.1437
      15    H10     21.226209   19.794476   24.291516 H          1 MOL1         0.0947
      16    H11     19.784426   20.697110   24.727192 H          1 MOL1         0.0947
      17    C6      19.449515   18.556609   24.508330 C.3        1 MOL1        -0.1437
      18    H12     19.878755   17.724899   23.935150 H          1 MOL1         0.0947
      19    H13     18.382450   18.603200   24.250427 H          1 MOL1         0.0947
      20    C7      19.603822   18.231822   26.012798 C.3        1 MOL1        -0.1477
      21    H14     19.191324   17.232269   26.204309 H          1 MOL1         0.0947
      22    H15     20.669615   18.187365   26.273773 H          1 MOL1         0.0947
      23    C8      18.888870   19.250416   26.920345 C.3        1 MOL1         0.0145
      24    H16     17.828139   19.294901   26.659138 H          1 MOL1         0.0921
      25    H17     19.321380   20.243726   26.776594 H          1 MOL1         0.0921
      26    N1      18.993964   18.907501   28.392197 N.4        1 MOL1        -0.5969
      27    H18     18.511794   19.596949   28.979425 H          1 MOL1         0.3603
      28    H19     19.969016   18.875570   28.708005 H          1 MOL1         0.3603
      29    H20     18.578507   17.993779   28.601919 H          1 MOL1         0.3603
@<TRIPOS>BOND
    1     1     2    1
    2     1     3    1
    3     1     4    1
    4     1     5    1
    5     5     6    1
    6     5     7    1
    7     5     8    1
    8     8     9    1
    9     8    10    1
   10     8    11    1
   11    11    12    1
   12    11    13    1
   13    11    14    1
   14    14    15    1
   15    14    16    1
   16    14    17    1
   17    17    18    1
   18    17    19    1
   19    17    20    1
   20    20    21    1
   21    20    22    1
   22    20    23    1
   23    23    24    1
   24    23    25    1
   25    23    26    1
   26    26    27    1
   27    26    28    1
   28    26    29    1
@<TRIPOS>SUBSTRUCTURE
       1 MOL1            1 RESIDUE      1      MOL     
@<SCITEGIC>MOL_PROPERTY
VM2 Rank
SciTegic.value.IntegerValue
369

@<SCITEGIC>MOL_PROPERTY
Conf_Id
SciTegic.value.IntegerValue
2320

@<SCITEGIC>MOL_PROPERTY
Probability
SciTegic.value.DoubleValue
0.00

@<SCITEGIC>MOL_PROPERTY
Sum Probability
SciTegic.value.DoubleValue
99.96

@<SCITEGIC>MOL_PROPERTY
Delta G
SciTegic.value.DoubleValue
4.819

@<SCITEGIC>MOL_PROPERTY
G
SciTegic.value.DoubleValue
62.967

@<SCITEGIC>MOL_PROPERTY
E
SciTegic.value.DoubleValue
25.261

@<SCITEGIC>MOL_PROPERTY
-TS
SciTegic.value.DoubleValue
37.706

@<SCITEGIC>MOL_PROPERTY
U+W
SciTegic.value.DoubleValue
1.117

@<SCITEGIC>MOL_PROPERTY
U
SciTegic.value.DoubleValue
52.775

@<SCITEGIC>MOL_PROPERTY
W
SciTegic.value.DoubleValue
-51.658

@<SCITEGIC>MOL_PROPERTY
W(PB)
SciTegic.value.DoubleValue
-54.119

@<SCITEGIC>MOL_PROPERTY
W(SA)
SciTegic.value.DoubleValue
2.461

@<SCITEGIC>MOL_PROPERTY
Valence
SciTegic.value.DoubleValue
6.696

@<SCITEGIC>MOL_PROPERTY
Coulomb
SciTegic.value.DoubleValue
45.042

@<SCITEGIC>MOL_PROPERTY
VdW
SciTegic.value.DoubleValue
1.037

@<SCITEGIC>MOL_PROPERTY
VdW6
SciTegic.value.DoubleValue
-9.629

@<SCITEGIC>MOL_PROPERTY
VdW12
SciTegic.value.DoubleValue
10.666

@<SCITEGIC>MOL_PROPERTY
Bond
SciTegic.value.DoubleValue
0.304

@<SCITEGIC>MOL_PROPERTY
Angle
SciTegic.value.DoubleValue
1.590

@<SCITEGIC>MOL_PROPERTY
Pdih
SciTegic.value.DoubleValue
4.802

@<SCITEGIC>MOL_PROPERTY
Idih
SciTegic.value.DoubleValue
0.000

@<SCITEGIC>MOL_PROPERTY
Tether
SciTegic.value.DoubleValue
0.000

@<TRIPOS>MOLECULE
guest-3_vm2.mol2 : vm2 ligand conformer 370
          29          28           1
SMALL
USER_CHARGES
 
@<TRIPOS>ATOM
       1    C1      20.450035   18.462431   20.048107 C.3        1 MOL1        -0.2427
       2    H1      19.493331   17.942783   19.915163 H          1 MOL1         0.0958
       3    H2      20.818169   18.733782   19.050223 H          1 MOL1         0.0958
       4    H3      21.166482   17.757626   20.489646 H          1 MOL1         0.0958
       5    C2      20.296803   19.723691   20.928375 C.3        1 MOL1        -0.1412
       6    H4      19.550138   20.397200   20.484981 H          1 MOL1         0.0947
       7    H5      21.248310   20.273563   20.922615 H          1 MOL1         0.0947
       8    C3      19.915631   19.411206   22.395730 C.3        1 MOL1        -0.1437
       9    H6      20.655897   18.725333   22.829844 H          1 MOL1         0.0947
      10    H7      19.978969   20.347172   22.964913 H          1 MOL1         0.0947
      11    C4      18.493446   18.818510   22.551769 C.3        1 MOL1        -0.1437
      12    H8      18.398060   17.923853   21.923633 H          1 MOL1         0.0947
      13    H9      17.754794   19.538381   22.173440 H          1 MOL1         0.0947
      14    C5      18.125683   18.417181   24.003610 C.3        1 MOL1        -0.1437
      15    H10     17.121349   17.972255   23.977087 H          1 MOL1         0.0947
      16    H11     18.792035   17.615498   24.346998 H          1 MOL1         0.0947
      17    C6      18.103416   19.593060   25.017982 C.3        1 MOL1        -0.1437
      18    H12     17.274615   19.435748   25.722257 H          1 MOL1         0.0947
      19    H13     17.870738   20.530202   24.493875 H          1 MOL1         0.0947
      20    C7      19.406858   19.761836   25.838926 C.3        1 MOL1        -0.1477
      21    H14     20.270699   19.876029   25.174338 H          1 MOL1         0.0947
      22    H15     19.338088   20.689386   26.422640 H          1 MOL1         0.0947
      23    C8      19.653407   18.586133   26.803158 C.3        1 MOL1         0.0145
      24    H16     19.762156   17.657270   26.237847 H          1 MOL1         0.0921
      25    H17     18.800494   18.479903   27.478876 H          1 MOL1         0.0921
      26    N1      20.898722   18.763951   27.647342 N.4        1 MOL1        -0.5969
      27    H18     21.043892   17.972008   28.283268 H          1 MOL1         0.3603
      28    H19     20.848934   19.607729   28.227880 H          1 MOL1         0.3603
      29    H20     21.742936   18.843080   27.070803 H          1 MOL1         0.3603
@<TRIPOS>BOND
    1     1     2    1
    2     1     3    1
    3     1     4    1
    4     1     5    1
    5     5     6    1
    6     5     7    1
    7     5     8    1
    8     8     9    1
    9     8    10    1
   10     8    11    1
   11    11    12    1
   12    11    13    1
   13    11    14    1
   14    14    15    1
   15    14    16    1
   16    14    17    1
   17    17    18    1
   18    17    19    1
   19    17    20    1
   20    20    21    1
   21    20    22    1
   22    20    23    1
   23    23    24    1
   24    23    25    1
   25    23    26    1
   26    26    27    1
   27    26    28    1
   28    26    29    1
@<TRIPOS>SUBSTRUCTURE
       1 MOL1            1 RESIDUE      1      MOL     
@<SCITEGIC>MOL_PROPERTY
VM2 Rank
SciTegic.value.IntegerValue
370

@<SCITEGIC>MOL_PROPERTY
Conf_Id
SciTegic.value.IntegerValue
307

@<SCITEGIC>MOL_PROPERTY
Probability
SciTegic.value.DoubleValue
0.00

@<SCITEGIC>MOL_PROPERTY
Sum Probability
SciTegic.value.DoubleValue
99.96

@<SCITEGIC>MOL_PROPERTY
Delta G
SciTegic.value.DoubleValue
4.834

@<SCITEGIC>MOL_PROPERTY
G
SciTegic.value.DoubleValue
62.982

@<SCITEGIC>MOL_PROPERTY
E
SciTegic.value.DoubleValue
25.286

@<SCITEGIC>MOL_PROPERTY
-TS
SciTegic.value.DoubleValue
37.696

@<SCITEGIC>MOL_PROPERTY
U+W
SciTegic.value.DoubleValue
1.142

@<SCITEGIC>MOL_PROPERTY
U
SciTegic.value.DoubleValue
53.295

@<SCITEGIC>MOL_PROPERTY
W
SciTegic.value.DoubleValue
-52.153

@<SCITEGIC>MOL_PROPERTY
W(PB)
SciTegic.value.DoubleValue
-54.639

@<SCITEGIC>MOL_PROPERTY
W(SA)
SciTegic.value.DoubleValue
2.485

@<SCITEGIC>MOL_PROPERTY
Valence
SciTegic.value.DoubleValue
6.665

@<SCITEGIC>MOL_PROPERTY
Coulomb
SciTegic.value.DoubleValue
45.625

@<SCITEGIC>MOL_PROPERTY
VdW
SciTegic.value.DoubleValue
1.005

@<SCITEGIC>MOL_PROPERTY
VdW6
SciTegic.value.DoubleValue
-9.688

@<SCITEGIC>MOL_PROPERTY
VdW12
SciTegic.value.DoubleValue
10.693

@<SCITEGIC>MOL_PROPERTY
Bond
SciTegic.value.DoubleValue
0.305

@<SCITEGIC>MOL_PROPERTY
Angle
SciTegic.value.DoubleValue
1.641

@<SCITEGIC>MOL_PROPERTY
Pdih
SciTegic.value.DoubleValue
4.720

@<SCITEGIC>MOL_PROPERTY
Idih
SciTegic.value.DoubleValue
0.000

@<SCITEGIC>MOL_PROPERTY
Tether
SciTegic.value.DoubleValue
0.000

@<TRIPOS>MOLECULE
guest-3_vm2.mol2 : vm2 ligand conformer 371
          29          28           1
SMALL
USER_CHARGES
 
@<TRIPOS>ATOM
       1    C1      20.902599   17.844899   20.780452 C.3        1 MOL1        -0.2427
       2    H1      20.459105   17.929190   19.779733 H          1 MOL1         0.0958
       3    H2      21.826344   18.437950   20.796180 H          1 MOL1         0.0958
       4    H3      21.174030   16.793406   20.940766 H          1 MOL1         0.0958
       5    C2      19.917137   18.325075   21.866673 C.3        1 MOL1        -0.1412
       6    H4      20.383958   18.189812   22.850101 H          1 MOL1         0.0947
       7    H5      19.015143   17.697790   21.844232 H          1 MOL1         0.0947
       8    C3      19.529489   19.807994   21.669800 C.3        1 MOL1        -0.1437
       9    H6      20.422751   20.437149   21.785769 H          1 MOL1         0.0947
      10    H7      19.186991   19.952311   20.635800 H          1 MOL1         0.0947
      11    C4      18.416148   20.312287   22.623876 C.3        1 MOL1        -0.1437
      12    H8      17.484237   19.759638   22.441816 H          1 MOL1         0.0947
      13    H9      18.198217   21.354697   22.353209 H          1 MOL1         0.0947
      14    C5      18.782302   20.272711   24.130558 C.3        1 MOL1        -0.1437
      15    H10     19.867236   20.389879   24.251717 H          1 MOL1         0.0947
      16    H11     18.326562   21.144709   24.619688 H          1 MOL1         0.0947
      17    C6      18.276839   18.997754   24.853998 C.3        1 MOL1        -0.1437
      18    H12     18.705156   18.097129   24.400099 H          1 MOL1         0.0947
      19    H13     17.190117   18.916177   24.714383 H          1 MOL1         0.0947
      20    C7      18.573093   19.006174   26.374583 C.3        1 MOL1        -0.1477
      21    H14     18.063677   19.861699   26.837644 H          1 MOL1         0.0947
      22    H15     18.140270   18.107574   26.833919 H          1 MOL1         0.0947
      23    C8      20.073845   19.077203   26.722033 C.3        1 MOL1         0.0145
      24    H16     20.192903   19.115539   27.808232 H          1 MOL1         0.0921
      25    H17     20.509244   19.986981   26.301031 H          1 MOL1         0.0921
      26    N1      20.872548   17.893903   26.213028 N.4        1 MOL1        -0.5969
      27    H18     20.527396   17.009113   26.599584 H          1 MOL1         0.3603
      28    H19     21.863756   17.966257   26.467859 H          1 MOL1         0.3603
      29    H20     20.826437   17.819626   25.192517 H          1 MOL1         0.3603
@<TRIPOS>BOND
    1     1     2    1
    2     1     3    1
    3     1     4    1
    4     1     5    1
    5     5     6    1
    6     5     7    1
    7     5     8    1
    8     8     9    1
    9     8    10    1
   10     8    11    1
   11    11    12    1
   12    11    13    1
   13    11    14    1
   14    14    15    1
   15    14    16    1
   16    14    17    1
   17    17    18    1
   18    17    19    1
   19    17    20    1
   20    20    21    1
   21    20    22    1
   22    20    23    1
   23    23    24    1
   24    23    25    1
   25    23    26    1
   26    26    27    1
   27    26    28    1
   28    26    29    1
@<TRIPOS>SUBSTRUCTURE
       1 MOL1            1 RESIDUE      1      MOL     
@<SCITEGIC>MOL_PROPERTY
VM2 Rank
SciTegic.value.IntegerValue
371

@<SCITEGIC>MOL_PROPERTY
Conf_Id
SciTegic.value.IntegerValue
1030

@<SCITEGIC>MOL_PROPERTY
Probability
SciTegic.value.DoubleValue
0.00

@<SCITEGIC>MOL_PROPERTY
Sum Probability
SciTegic.value.DoubleValue
99.97

@<SCITEGIC>MOL_PROPERTY
Delta G
SciTegic.value.DoubleValue
4.845

@<SCITEGIC>MOL_PROPERTY
G
SciTegic.value.DoubleValue
62.993

@<SCITEGIC>MOL_PROPERTY
E
SciTegic.value.DoubleValue
25.221

@<SCITEGIC>MOL_PROPERTY
-TS
SciTegic.value.DoubleValue
37.772

@<SCITEGIC>MOL_PROPERTY
U+W
SciTegic.value.DoubleValue
1.076

@<SCITEGIC>MOL_PROPERTY
U
SciTegic.value.DoubleValue
53.626

@<SCITEGIC>MOL_PROPERTY
W
SciTegic.value.DoubleValue
-52.550

@<SCITEGIC>MOL_PROPERTY
W(PB)
SciTegic.value.DoubleValue
-54.997

@<SCITEGIC>MOL_PROPERTY
W(SA)
SciTegic.value.DoubleValue
2.447

@<SCITEGIC>MOL_PROPERTY
Valence
SciTegic.value.DoubleValue
6.009

@<SCITEGIC>MOL_PROPERTY
Coulomb
SciTegic.value.DoubleValue
47.033

@<SCITEGIC>MOL_PROPERTY
VdW
SciTegic.value.DoubleValue
0.585

@<SCITEGIC>MOL_PROPERTY
VdW6
SciTegic.value.DoubleValue
-10.174

@<SCITEGIC>MOL_PROPERTY
VdW12
SciTegic.value.DoubleValue
10.758

@<SCITEGIC>MOL_PROPERTY
Bond
SciTegic.value.DoubleValue
0.284

@<SCITEGIC>MOL_PROPERTY
Angle
SciTegic.value.DoubleValue
1.441

@<SCITEGIC>MOL_PROPERTY
Pdih
SciTegic.value.DoubleValue
4.284

@<SCITEGIC>MOL_PROPERTY
Idih
SciTegic.value.DoubleValue
0.000

@<SCITEGIC>MOL_PROPERTY
Tether
SciTegic.value.DoubleValue
0.000

@<TRIPOS>MOLECULE
guest-3_vm2.mol2 : vm2 ligand conformer 372
          29          28           1
SMALL
USER_CHARGES
 
@<TRIPOS>ATOM
       1    C1      20.193126   18.197711   20.478444 C.3        1 MOL1        -0.2427
       2    H1      21.238757   18.302251   20.795537 H          1 MOL1         0.0958
       3    H2      19.703973   17.457660   21.123846 H          1 MOL1         0.0958
       4    H3      20.190314   17.795379   19.457188 H          1 MOL1         0.0958
       5    C2      19.458657   19.555226   20.525591 C.3        1 MOL1        -0.1412
       6    H4      18.403789   19.408103   20.254878 H          1 MOL1         0.0947
       7    H5      19.882304   20.212092   19.753099 H          1 MOL1         0.0947
       8    C3      19.547226   20.281605   21.892001 C.3        1 MOL1        -0.1437
       9    H6      20.593527   20.522543   22.125039 H          1 MOL1         0.0947
      10    H7      19.037354   21.249078   21.785377 H          1 MOL1         0.0947
      11    C4      18.894032   19.518594   23.073656 C.3        1 MOL1        -0.1437
      12    H8      18.081716   18.877615   22.704687 H          1 MOL1         0.0947
      13    H9      18.423844   20.256426   23.736931 H          1 MOL1         0.0947
      14    C5      19.906778   18.685994   23.900710 C.3        1 MOL1        -0.1437
      15    H10     20.475506   18.024347   23.236815 H          1 MOL1         0.0947
      16    H11     20.646987   19.357102   24.356087 H          1 MOL1         0.0947
      17    C6      19.238879   17.814501   24.995355 C.3        1 MOL1        -0.1437
      18    H12     20.014449   17.221699   25.498580 H          1 MOL1         0.0947
      19    H13     18.572902   17.084803   24.514586 H          1 MOL1         0.0947
      20    C7      18.430199   18.605276   26.057018 C.3        1 MOL1        -0.1477
      21    H14     17.550809   19.062801   25.586023 H          1 MOL1         0.0947
      22    H15     18.038102   17.905276   26.806643 H          1 MOL1         0.0947
      23    C8      19.241870   19.705064   26.770159 C.3        1 MOL1         0.0145
      24    H16     18.596089   20.234058   27.476245 H          1 MOL1         0.0921
      25    H17     19.607845   20.427785   26.036244 H          1 MOL1         0.0921
      26    N1      20.433233   19.174029   27.542066 N.4        1 MOL1        -0.5969
      27    H18     20.148828   18.510678   28.270189 H          1 MOL1         0.3603
      28    H19     20.952847   19.926468   28.007002 H          1 MOL1         0.3603
      29    H20     21.092223   18.685832   26.927607 H          1 MOL1         0.3603
@<TRIPOS>BOND
    1     1     2    1
    2     1     3    1
    3     1     4    1
    4     1     5    1
    5     5     6    1
    6     5     7    1
    7     5     8    1
    8     8     9    1
    9     8    10    1
   10     8    11    1
   11    11    12    1
   12    11    13    1
   13    11    14    1
   14    14    15    1
   15    14    16    1
   16    14    17    1
   17    17    18    1
   18    17    19    1
   19    17    20    1
   20    20    21    1
   21    20    22    1
   22    20    23    1
   23    23    24    1
   24    23    25    1
   25    23    26    1
   26    26    27    1
   27    26    28    1
   28    26    29    1
@<TRIPOS>SUBSTRUCTURE
       1 MOL1            1 RESIDUE      1      MOL     
@<SCITEGIC>MOL_PROPERTY
VM2 Rank
SciTegic.value.IntegerValue
372

@<SCITEGIC>MOL_PROPERTY
Conf_Id
SciTegic.value.IntegerValue
342

@<SCITEGIC>MOL_PROPERTY
Probability
SciTegic.value.DoubleValue
0.00

@<SCITEGIC>MOL_PROPERTY
Sum Probability
SciTegic.value.DoubleValue
99.97

@<SCITEGIC>MOL_PROPERTY
Delta G
SciTegic.value.DoubleValue
4.914

@<SCITEGIC>MOL_PROPERTY
G
SciTegic.value.DoubleValue
63.062

@<SCITEGIC>MOL_PROPERTY
E
SciTegic.value.DoubleValue
24.933

@<SCITEGIC>MOL_PROPERTY
-TS
SciTegic.value.DoubleValue
38.129

@<SCITEGIC>MOL_PROPERTY
U+W
SciTegic.value.DoubleValue
0.788

@<SCITEGIC>MOL_PROPERTY
U
SciTegic.value.DoubleValue
52.915

@<SCITEGIC>MOL_PROPERTY
W
SciTegic.value.DoubleValue
-52.126

@<SCITEGIC>MOL_PROPERTY
W(PB)
SciTegic.value.DoubleValue
-54.566

@<SCITEGIC>MOL_PROPERTY
W(SA)
SciTegic.value.DoubleValue
2.440

@<SCITEGIC>MOL_PROPERTY
Valence
SciTegic.value.DoubleValue
6.450

@<SCITEGIC>MOL_PROPERTY
Coulomb
SciTegic.value.DoubleValue
45.609

@<SCITEGIC>MOL_PROPERTY
VdW
SciTegic.value.DoubleValue
0.855

@<SCITEGIC>MOL_PROPERTY
VdW6
SciTegic.value.DoubleValue
-10.786

@<SCITEGIC>MOL_PROPERTY
VdW12
SciTegic.value.DoubleValue
11.641

@<SCITEGIC>MOL_PROPERTY
Bond
SciTegic.value.DoubleValue
0.323

@<SCITEGIC>MOL_PROPERTY
Angle
SciTegic.value.DoubleValue
1.665

@<SCITEGIC>MOL_PROPERTY
Pdih
SciTegic.value.DoubleValue
4.462

@<SCITEGIC>MOL_PROPERTY
Idih
SciTegic.value.DoubleValue
0.000

@<SCITEGIC>MOL_PROPERTY
Tether
SciTegic.value.DoubleValue
0.000

@<TRIPOS>MOLECULE
guest-3_vm2.mol2 : vm2 ligand conformer 373
          29          28           1
SMALL
USER_CHARGES
 
@<TRIPOS>ATOM
       1    C1      19.849144   18.751847   19.931138 C.3        1 MOL1        -0.2427
       2    H1      20.904802   18.452071   19.958077 H          1 MOL1         0.0958
       3    H2      19.425916   18.405378   18.979429 H          1 MOL1         0.0958
       4    H3      19.802025   19.847836   19.932734 H          1 MOL1         0.0958
       5    C2      19.069372   18.147932   21.121039 C.3        1 MOL1        -0.1412
       6    H4      19.038413   17.055550   21.004897 H          1 MOL1         0.0947
       7    H5      18.025425   18.489892   21.090568 H          1 MOL1         0.0947
       8    C3      19.689140   18.482451   22.499297 C.3        1 MOL1        -0.1437
       9    H6      19.147282   17.912674   23.261734 H          1 MOL1         0.0947
      10    H7      20.727157   18.123830   22.529123 H          1 MOL1         0.0947
      11    C4      19.651673   19.994191   22.840340 C.3        1 MOL1        -0.1437
      12    H8      18.630809   20.385053   22.731826 H          1 MOL1         0.0947
      13    H9      20.262746   20.531482   22.103440 H          1 MOL1         0.0947
      14    C5      20.204373   20.330723   24.250287 C.3        1 MOL1        -0.1437
      15    H10     20.987447   19.616301   24.537129 H          1 MOL1         0.0947
      16    H11     20.709218   21.304707   24.187922 H          1 MOL1         0.0947
      17    C6      19.126010   20.445208   25.361305 C.3        1 MOL1        -0.1437
      18    H12     18.392355   21.209065   25.069144 H          1 MOL1         0.0947
      19    H13     19.601727   20.830497   26.273056 H          1 MOL1         0.0947
      20    C7      18.372374   19.134988   25.702251 C.3        1 MOL1        -0.1477
      21    H14     17.652094   19.334488   26.506651 H          1 MOL1         0.0947
      22    H15     17.773100   18.819105   24.839439 H          1 MOL1         0.0947
      23    C8      19.296569   17.978642   26.134452 C.3        1 MOL1         0.0145
      24    H16     20.008147   17.755423   25.335564 H          1 MOL1         0.0921
      25    H17     18.697123   17.082795   26.317647 H          1 MOL1         0.0921
      26    N1      20.085345   18.272019   27.394891 N.4        1 MOL1        -0.5969
      27    H18     19.469915   18.462369   28.192441 H          1 MOL1         0.3603
      28    H19     20.691547   19.089918   27.277549 H          1 MOL1         0.3603
      29    H20     20.687073   17.484834   27.660550 H          1 MOL1         0.3603
@<TRIPOS>BOND
    1     1     2    1
    2     1     3    1
    3     1     4    1
    4     1     5    1
    5     5     6    1
    6     5     7    1
    7     5     8    1
    8     8     9    1
    9     8    10    1
   10     8    11    1
   11    11    12    1
   12    11    13    1
   13    11    14    1
   14    14    15    1
   15    14    16    1
   16    14    17    1
   17    17    18    1
   18    17    19    1
   19    17    20    1
   20    20    21    1
   21    20    22    1
   22    20    23    1
   23    23    24    1
   24    23    25    1
   25    23    26    1
   26    26    27    1
   27    26    28    1
   28    26    29    1
@<TRIPOS>SUBSTRUCTURE
       1 MOL1            1 RESIDUE      1      MOL     
@<SCITEGIC>MOL_PROPERTY
VM2 Rank
SciTegic.value.IntegerValue
373

@<SCITEGIC>MOL_PROPERTY
Conf_Id
SciTegic.value.IntegerValue
2319

@<SCITEGIC>MOL_PROPERTY
Probability
SciTegic.value.DoubleValue
0.00

@<SCITEGIC>MOL_PROPERTY
Sum Probability
SciTegic.value.DoubleValue
99.97

@<SCITEGIC>MOL_PROPERTY
Delta G
SciTegic.value.DoubleValue
4.986

@<SCITEGIC>MOL_PROPERTY
G
SciTegic.value.DoubleValue
63.134

@<SCITEGIC>MOL_PROPERTY
E
SciTegic.value.DoubleValue
24.954

@<SCITEGIC>MOL_PROPERTY
-TS
SciTegic.value.DoubleValue
38.180

@<SCITEGIC>MOL_PROPERTY
U+W
SciTegic.value.DoubleValue
0.809

@<SCITEGIC>MOL_PROPERTY
U
SciTegic.value.DoubleValue
53.215

@<SCITEGIC>MOL_PROPERTY
W
SciTegic.value.DoubleValue
-52.405

@<SCITEGIC>MOL_PROPERTY
W(PB)
SciTegic.value.DoubleValue
-54.829

@<SCITEGIC>MOL_PROPERTY
W(SA)
SciTegic.value.DoubleValue
2.424

@<SCITEGIC>MOL_PROPERTY
Valence
SciTegic.value.DoubleValue
6.573

@<SCITEGIC>MOL_PROPERTY
Coulomb
SciTegic.value.DoubleValue
45.976

@<SCITEGIC>MOL_PROPERTY
VdW
SciTegic.value.DoubleValue
0.665

@<SCITEGIC>MOL_PROPERTY
VdW6
SciTegic.value.DoubleValue
-10.949

@<SCITEGIC>MOL_PROPERTY
VdW12
SciTegic.value.DoubleValue
11.615

@<SCITEGIC>MOL_PROPERTY
Bond
SciTegic.value.DoubleValue
0.323

@<SCITEGIC>MOL_PROPERTY
Angle
SciTegic.value.DoubleValue
1.850

@<SCITEGIC>MOL_PROPERTY
Pdih
SciTegic.value.DoubleValue
4.401

@<SCITEGIC>MOL_PROPERTY
Idih
SciTegic.value.DoubleValue
0.000

@<SCITEGIC>MOL_PROPERTY
Tether
SciTegic.value.DoubleValue
0.000

@<TRIPOS>MOLECULE
guest-3_vm2.mol2 : vm2 ligand conformer 374
          29          28           1
SMALL
USER_CHARGES
 
@<TRIPOS>ATOM
       1    C1      21.059311   18.256250   21.052433 C.3        1 MOL1        -0.2427
       2    H1      21.713086   18.771051   21.767231 H          1 MOL1         0.0958
       3    H2      20.831995   17.258588   21.449917 H          1 MOL1         0.0958
       4    H3      21.626337   18.125769   20.121653 H          1 MOL1         0.0958
       5    C2      19.764331   19.057578   20.788700 C.3        1 MOL1        -0.1412
       6    H4      19.202871   18.567807   19.980869 H          1 MOL1         0.0947
       7    H5      20.018873   20.061579   20.421474 H          1 MOL1         0.0947
       8    C3      18.849424   19.170441   22.031649 C.3        1 MOL1        -0.1437
       9    H6      17.910674   19.656565   21.732619 H          1 MOL1         0.0947
      10    H7      18.582418   18.161638   22.372973 H          1 MOL1         0.0947
      11    C4      19.487754   19.973315   23.192606 C.3        1 MOL1        -0.1437
      12    H8      19.840477   20.939370   22.806172 H          1 MOL1         0.0947
      13    H9      20.377020   19.450176   23.562530 H          1 MOL1         0.0947
      14    C5      18.507388   20.242049   24.363745 C.3        1 MOL1        -0.1437
      15    H10     18.997740   20.873807   25.114401 H          1 MOL1         0.0947
      16    H11     17.668632   20.843532   23.986940 H          1 MOL1         0.0947
      17    C6      17.930220   18.973885   25.047520 C.3        1 MOL1        -0.1437
      18    H12     17.281668   18.448301   24.334131 H          1 MOL1         0.0947
      19    H13     17.267282   19.288259   25.865363 H          1 MOL1         0.0947
      20    C7      18.968918   17.965642   25.607590 C.3        1 MOL1        -0.1477
      21    H14     18.417567   17.089222   25.973017 H          1 MOL1         0.0947
      22    H15     19.623520   17.591048   24.810438 H          1 MOL1         0.0947
      23    C8      19.809897   18.506124   26.782654 C.3        1 MOL1         0.0145
      24    H16     20.234816   17.663774   27.335190 H          1 MOL1         0.0921
      25    H17     19.169286   19.070611   27.465412 H          1 MOL1         0.0921
      26    N1      20.966759   19.392717   26.368105 N.4        1 MOL1        -0.5969
      27    H18     21.641909   18.885976   25.786554 H          1 MOL1         0.3603
      28    H19     21.480283   19.752059   27.180401 H          1 MOL1         0.3603
      29    H20     20.644810   20.201111   25.827934 H          1 MOL1         0.3603
@<TRIPOS>BOND
    1     1     2    1
    2     1     3    1
    3     1     4    1
    4     1     5    1
    5     5     6    1
    6     5     7    1
    7     5     8    1
    8     8     9    1
    9     8    10    1
   10     8    11    1
   11    11    12    1
   12    11    13    1
   13    11    14    1
   14    14    15    1
   15    14    16    1
   16    14    17    1
   17    17    18    1
   18    17    19    1
   19    17    20    1
   20    20    21    1
   21    20    22    1
   22    20    23    1
   23    23    24    1
   24    23    25    1
   25    23    26    1
   26    26    27    1
   27    26    28    1
   28    26    29    1
@<TRIPOS>SUBSTRUCTURE
       1 MOL1            1 RESIDUE      1      MOL     
@<SCITEGIC>MOL_PROPERTY
VM2 Rank
SciTegic.value.IntegerValue
374

@<SCITEGIC>MOL_PROPERTY
Conf_Id
SciTegic.value.IntegerValue
1913

@<SCITEGIC>MOL_PROPERTY
Probability
SciTegic.value.DoubleValue
0.00

@<SCITEGIC>MOL_PROPERTY
Sum Probability
SciTegic.value.DoubleValue
99.97

@<SCITEGIC>MOL_PROPERTY
Delta G
SciTegic.value.DoubleValue
5.008

@<SCITEGIC>MOL_PROPERTY
G
SciTegic.value.DoubleValue
63.156

@<SCITEGIC>MOL_PROPERTY
E
SciTegic.value.DoubleValue
24.854

@<SCITEGIC>MOL_PROPERTY
-TS
SciTegic.value.DoubleValue
38.302

@<SCITEGIC>MOL_PROPERTY
U+W
SciTegic.value.DoubleValue
0.709

@<SCITEGIC>MOL_PROPERTY
U
SciTegic.value.DoubleValue
53.271

@<SCITEGIC>MOL_PROPERTY
W
SciTegic.value.DoubleValue
-52.562

@<SCITEGIC>MOL_PROPERTY
W(PB)
SciTegic.value.DoubleValue
-54.927

@<SCITEGIC>MOL_PROPERTY
W(SA)
SciTegic.value.DoubleValue
2.366

@<SCITEGIC>MOL_PROPERTY
Valence
SciTegic.value.DoubleValue
5.540

@<SCITEGIC>MOL_PROPERTY
Coulomb
SciTegic.value.DoubleValue
47.274

@<SCITEGIC>MOL_PROPERTY
VdW
SciTegic.value.DoubleValue
0.456

@<SCITEGIC>MOL_PROPERTY
VdW6
SciTegic.value.DoubleValue
-11.405

@<SCITEGIC>MOL_PROPERTY
VdW12
SciTegic.value.DoubleValue
11.861

@<SCITEGIC>MOL_PROPERTY
Bond
SciTegic.value.DoubleValue
0.330

@<SCITEGIC>MOL_PROPERTY
Angle
SciTegic.value.DoubleValue
1.973

@<SCITEGIC>MOL_PROPERTY
Pdih
SciTegic.value.DoubleValue
3.237

@<SCITEGIC>MOL_PROPERTY
Idih
SciTegic.value.DoubleValue
0.000

@<SCITEGIC>MOL_PROPERTY
Tether
SciTegic.value.DoubleValue
0.000

@<TRIPOS>MOLECULE
guest-3_vm2.mol2 : vm2 ligand conformer 375
          29          28           1
SMALL
USER_CHARGES
 
@<TRIPOS>ATOM
       1    C1      21.628307   18.915259   21.521942 C.3        1 MOL1        -0.2427
       2    H1      21.515518   18.637075   20.465970 H          1 MOL1         0.0958
       3    H2      22.475395   19.609151   21.598947 H          1 MOL1         0.0958
       4    H3      21.881131   18.009927   22.089004 H          1 MOL1         0.0958
       5    C2      20.339186   19.567001   22.064543 C.3        1 MOL1        -0.1412
       6    H4      20.128714   20.485699   21.499557 H          1 MOL1         0.0947
       7    H5      20.503987   19.868598   23.106440 H          1 MOL1         0.0947
       8    C3      19.129835   18.607292   21.964529 C.3        1 MOL1        -0.1437
       9    H6      19.003645   18.309342   20.914566 H          1 MOL1         0.0947
      10    H7      19.330983   17.678407   22.511856 H          1 MOL1         0.0947
      11    C4      17.799991   19.232642   22.453476 C.3        1 MOL1        -0.1437
      12    H8      16.989863   18.509260   22.287770 H          1 MOL1         0.0947
      13    H9      17.563485   20.093457   21.812990 H          1 MOL1         0.0947
      14    C5      17.761014   19.697152   23.934814 C.3        1 MOL1        -0.1437
      15    H10     18.487590   20.500182   24.106772 H          1 MOL1         0.0947
      16    H11     16.779745   20.164386   24.096343 H          1 MOL1         0.0947
      17    C6      17.915120   18.561876   24.984766 C.3        1 MOL1        -0.1437
      18    H12     17.467263   17.637249   24.595686 H          1 MOL1         0.0947
      19    H13     17.321139   18.826748   25.870558 H          1 MOL1         0.0947
      20    C7      19.365105   18.280092   25.454653 C.3        1 MOL1        -0.1477
      21    H14     19.349277   17.424241   26.142411 H          1 MOL1         0.0947
      22    H15     19.996466   17.981491   24.611560 H          1 MOL1         0.0947
      23    C8      20.003005   19.482068   26.176240 C.3        1 MOL1         0.0145
      24    H16     19.386928   19.765595   27.033794 H          1 MOL1         0.0921
      25    H17     20.061916   20.335982   25.497108 H          1 MOL1         0.0921
      26    N1      21.402436   19.194618   26.680036 N.4        1 MOL1        -0.5969
      27    H18     21.809098   20.006260   27.158008 H          1 MOL1         0.3603
      28    H19     22.039931   18.946129   25.916451 H          1 MOL1         0.3603
      29    H20     21.414420   18.417631   27.349048 H          1 MOL1         0.3603
@<TRIPOS>BOND
    1     1     2    1
    2     1     3    1
    3     1     4    1
    4     1     5    1
    5     5     6    1
    6     5     7    1
    7     5     8    1
    8     8     9    1
    9     8    10    1
   10     8    11    1
   11    11    12    1
   12    11    13    1
   13    11    14    1
   14    14    15    1
   15    14    16    1
   16    14    17    1
   17    17    18    1
   18    17    19    1
   19    17    20    1
   20    20    21    1
   21    20    22    1
   22    20    23    1
   23    23    24    1
   24    23    25    1
   25    23    26    1
   26    26    27    1
   27    26    28    1
   28    26    29    1
@<TRIPOS>SUBSTRUCTURE
       1 MOL1            1 RESIDUE      1      MOL     
@<SCITEGIC>MOL_PROPERTY
VM2 Rank
SciTegic.value.IntegerValue
375

@<SCITEGIC>MOL_PROPERTY
Conf_Id
SciTegic.value.IntegerValue
2274

@<SCITEGIC>MOL_PROPERTY
Probability
SciTegic.value.DoubleValue
0.00

@<SCITEGIC>MOL_PROPERTY
Sum Probability
SciTegic.value.DoubleValue
99.97

@<SCITEGIC>MOL_PROPERTY
Delta G
SciTegic.value.DoubleValue
5.011

@<SCITEGIC>MOL_PROPERTY
G
SciTegic.value.DoubleValue
63.159

@<SCITEGIC>MOL_PROPERTY
E
SciTegic.value.DoubleValue
24.859

@<SCITEGIC>MOL_PROPERTY
-TS
SciTegic.value.DoubleValue
38.300

@<SCITEGIC>MOL_PROPERTY
U+W
SciTegic.value.DoubleValue
0.714

@<SCITEGIC>MOL_PROPERTY
U
SciTegic.value.DoubleValue
53.539

@<SCITEGIC>MOL_PROPERTY
W
SciTegic.value.DoubleValue
-52.825

@<SCITEGIC>MOL_PROPERTY
W(PB)
SciTegic.value.DoubleValue
-55.205

@<SCITEGIC>MOL_PROPERTY
W(SA)
SciTegic.value.DoubleValue
2.380

@<SCITEGIC>MOL_PROPERTY
Valence
SciTegic.value.DoubleValue
6.581

@<SCITEGIC>MOL_PROPERTY
Coulomb
SciTegic.value.DoubleValue
46.681

@<SCITEGIC>MOL_PROPERTY
VdW
SciTegic.value.DoubleValue
0.276

@<SCITEGIC>MOL_PROPERTY
VdW6
SciTegic.value.DoubleValue
-10.907

@<SCITEGIC>MOL_PROPERTY
VdW12
SciTegic.value.DoubleValue
11.183

@<SCITEGIC>MOL_PROPERTY
Bond
SciTegic.value.DoubleValue
0.323

@<SCITEGIC>MOL_PROPERTY
Angle
SciTegic.value.DoubleValue
2.234

@<SCITEGIC>MOL_PROPERTY
Pdih
SciTegic.value.DoubleValue
4.025

@<SCITEGIC>MOL_PROPERTY
Idih
SciTegic.value.DoubleValue
0.000

@<SCITEGIC>MOL_PROPERTY
Tether
SciTegic.value.DoubleValue
0.000

@<TRIPOS>MOLECULE
guest-3_vm2.mol2 : vm2 ligand conformer 376
          29          28           1
SMALL
USER_CHARGES
 
@<TRIPOS>ATOM
       1    C1      19.964320   19.966125   20.196813 C.3        1 MOL1        -0.2427
       2    H1      19.084583   19.555934   19.684141 H          1 MOL1         0.0958
       3    H2      19.636614   20.801265   20.828197 H          1 MOL1         0.0958
       4    H3      20.638086   20.374900   19.432709 H          1 MOL1         0.0958
       5    C2      20.683031   18.876775   21.024543 C.3        1 MOL1        -0.1412
       6    H4      21.540605   19.318579   21.550886 H          1 MOL1         0.0947
       7    H5      21.097583   18.125903   20.337456 H          1 MOL1         0.0947
       8    C3      19.756543   18.163812   22.038735 C.3        1 MOL1        -0.1437
       9    H6      18.914669   17.702318   21.504366 H          1 MOL1         0.0947
      10    H7      20.316486   17.340213   22.502577 H          1 MOL1         0.0947
      11    C4      19.220043   19.100779   23.147057 C.3        1 MOL1        -0.1437
      12    H8      18.588443   19.880765   22.702045 H          1 MOL1         0.0947
      13    H9      20.064242   19.612500   23.625065 H          1 MOL1         0.0947
      14    C5      18.392550   18.325002   24.200107 C.3        1 MOL1        -0.1437
      15    H10     17.568067   17.809573   23.688198 H          1 MOL1         0.0947
      16    H11     18.997300   17.531152   24.655290 H          1 MOL1         0.0947
      17    C6      17.785390   19.230017   25.302075 C.3        1 MOL1        -0.1437
      18    H12     17.175548   18.606410   25.970299 H          1 MOL1         0.0947
      19    H13     17.085761   19.934765   24.831890 H          1 MOL1         0.0947
      20    C7      18.796521   20.037088   26.160038 C.3        1 MOL1        -0.1477
      21    H14     19.351140   20.754524   25.542023 H          1 MOL1         0.0947
      22    H15     18.219804   20.644230   26.870325 H          1 MOL1         0.0947
      23    C8      19.774917   19.167723   26.976774 C.3        1 MOL1         0.0145
      24    H16     19.246186   18.303281   27.387133 H          1 MOL1         0.0921
      25    H17     20.164579   19.755365   27.812393 H          1 MOL1         0.0921
      26    N1      20.970685   18.670679   26.188858 N.4        1 MOL1        -0.5969
      27    H18     20.680606   18.132850   25.366537 H          1 MOL1         0.3603
      28    H19     21.574594   18.064907   26.755494 H          1 MOL1         0.3603
      29    H20     21.552381   19.446312   25.855546 H          1 MOL1         0.3603
@<TRIPOS>BOND
    1     1     2    1
    2     1     3    1
    3     1     4    1
    4     1     5    1
    5     5     6    1
    6     5     7    1
    7     5     8    1
    8     8     9    1
    9     8    10    1
   10     8    11    1
   11    11    12    1
   12    11    13    1
   13    11    14    1
   14    14    15    1
   15    14    16    1
   16    14    17    1
   17    17    18    1
   18    17    19    1
   19    17    20    1
   20    20    21    1
   21    20    22    1
   22    20    23    1
   23    23    24    1
   24    23    25    1
   25    23    26    1
   26    26    27    1
   27    26    28    1
   28    26    29    1
@<TRIPOS>SUBSTRUCTURE
       1 MOL1            1 RESIDUE      1      MOL     
@<SCITEGIC>MOL_PROPERTY
VM2 Rank
SciTegic.value.IntegerValue
376

@<SCITEGIC>MOL_PROPERTY
Conf_Id
SciTegic.value.IntegerValue
1353

@<SCITEGIC>MOL_PROPERTY
Probability
SciTegic.value.DoubleValue
0.00

@<SCITEGIC>MOL_PROPERTY
Sum Probability
SciTegic.value.DoubleValue
99.97

@<SCITEGIC>MOL_PROPERTY
Delta G
SciTegic.value.DoubleValue
5.013

@<SCITEGIC>MOL_PROPERTY
G
SciTegic.value.DoubleValue
63.161

@<SCITEGIC>MOL_PROPERTY
E
SciTegic.value.DoubleValue
25.085

@<SCITEGIC>MOL_PROPERTY
-TS
SciTegic.value.DoubleValue
38.076

@<SCITEGIC>MOL_PROPERTY
U+W
SciTegic.value.DoubleValue
0.940

@<SCITEGIC>MOL_PROPERTY
U
SciTegic.value.DoubleValue
52.883

@<SCITEGIC>MOL_PROPERTY
W
SciTegic.value.DoubleValue
-51.943

@<SCITEGIC>MOL_PROPERTY
W(PB)
SciTegic.value.DoubleValue
-54.356

@<SCITEGIC>MOL_PROPERTY
W(SA)
SciTegic.value.DoubleValue
2.413

@<SCITEGIC>MOL_PROPERTY
Valence
SciTegic.value.DoubleValue
5.142

@<SCITEGIC>MOL_PROPERTY
Coulomb
SciTegic.value.DoubleValue
47.175

@<SCITEGIC>MOL_PROPERTY
VdW
SciTegic.value.DoubleValue
0.565

@<SCITEGIC>MOL_PROPERTY
VdW6
SciTegic.value.DoubleValue
-10.483

@<SCITEGIC>MOL_PROPERTY
VdW12
SciTegic.value.DoubleValue
11.049

@<SCITEGIC>MOL_PROPERTY
Bond
SciTegic.value.DoubleValue
0.281

@<SCITEGIC>MOL_PROPERTY
Angle
SciTegic.value.DoubleValue
1.694

@<SCITEGIC>MOL_PROPERTY
Pdih
SciTegic.value.DoubleValue
3.167

@<SCITEGIC>MOL_PROPERTY
Idih
SciTegic.value.DoubleValue
0.000

@<SCITEGIC>MOL_PROPERTY
Tether
SciTegic.value.DoubleValue
0.000

@<TRIPOS>MOLECULE
guest-3_vm2.mol2 : vm2 ligand conformer 377
          29          28           1
SMALL
USER_CHARGES
 
@<TRIPOS>ATOM
       1    C1      21.187868   19.247368   21.324051 C.3        1 MOL1        -0.2427
       2    H1      21.538616   20.172769   21.798833 H          1 MOL1         0.0958
       3    H2      21.302552   18.429758   22.042986 H          1 MOL1         0.0958
       4    H3      21.853673   19.034656   20.477710 H          1 MOL1         0.0958
       5    C2      19.728221   19.393178   20.835979 C.3        1 MOL1        -0.1412
       6    H4      19.392123   18.462231   20.358782 H          1 MOL1         0.0947
       7    H5      19.714514   20.158200   20.047069 H          1 MOL1         0.0947
       8    C3      18.730673   19.820786   21.943959 C.3        1 MOL1        -0.1437
       9    H6      19.212265   20.507139   22.652559 H          1 MOL1         0.0947
      10    H7      17.937407   20.411109   21.464949 H          1 MOL1         0.0947
      11    C4      18.036373   18.650037   22.691156 C.3        1 MOL1        -0.1437
      12    H8      17.530732   18.010993   21.954389 H          1 MOL1         0.0947
      13    H9      17.231902   19.061168   23.314939 H          1 MOL1         0.0947
      14    C5      18.951255   17.759721   23.571938 C.3        1 MOL1        -0.1437
      15    H10     18.329510   16.993048   24.054249 H          1 MOL1         0.0947
      16    H11     19.644998   17.204826   22.928346 H          1 MOL1         0.0947
      17    C6      19.752099   18.509683   24.668183 C.3        1 MOL1        -0.1437
      18    H12     20.439524   19.230600   24.207728 H          1 MOL1         0.0947
      19    H13     20.383969   17.777207   25.187258 H          1 MOL1         0.0947
      20    C7      18.853756   19.236839   25.699462 C.3        1 MOL1        -0.1477
      21    H14     18.247756   19.997262   25.191302 H          1 MOL1         0.0947
      22    H15     18.151372   18.526176   26.154737 H          1 MOL1         0.0947
      23    C8      19.666491   19.937634   26.805017 C.3        1 MOL1         0.0145
      24    H16     18.989481   20.511378   27.443758 H          1 MOL1         0.0921
      25    H17     20.380020   20.632128   26.353447 H          1 MOL1         0.0921
      26    N1      20.437265   18.982754   27.695255 N.4        1 MOL1        -0.5969
      27    H18     19.815916   18.317002   28.166370 H          1 MOL1         0.3603
      28    H19     20.955598   19.479736   28.427964 H          1 MOL1         0.3603
      29    H20     21.120332   18.435272   27.162565 H          1 MOL1         0.3603
@<TRIPOS>BOND
    1     1     2    1
    2     1     3    1
    3     1     4    1
    4     1     5    1
    5     5     6    1
    6     5     7    1
    7     5     8    1
    8     8     9    1
    9     8    10    1
   10     8    11    1
   11    11    12    1
   12    11    13    1
   13    11    14    1
   14    14    15    1
   15    14    16    1
   16    14    17    1
   17    17    18    1
   18    17    19    1
   19    17    20    1
   20    20    21    1
   21    20    22    1
   22    20    23    1
   23    23    24    1
   24    23    25    1
   25    23    26    1
   26    26    27    1
   27    26    28    1
   28    26    29    1
@<TRIPOS>SUBSTRUCTURE
       1 MOL1            1 RESIDUE      1      MOL     
@<SCITEGIC>MOL_PROPERTY
VM2 Rank
SciTegic.value.IntegerValue
377

@<SCITEGIC>MOL_PROPERTY
Conf_Id
SciTegic.value.IntegerValue
338

@<SCITEGIC>MOL_PROPERTY
Probability
SciTegic.value.DoubleValue
0.00

@<SCITEGIC>MOL_PROPERTY
Sum Probability
SciTegic.value.DoubleValue
99.97

@<SCITEGIC>MOL_PROPERTY
Delta G
SciTegic.value.DoubleValue
5.014

@<SCITEGIC>MOL_PROPERTY
G
SciTegic.value.DoubleValue
63.162

@<SCITEGIC>MOL_PROPERTY
E
SciTegic.value.DoubleValue
24.822

@<SCITEGIC>MOL_PROPERTY
-TS
SciTegic.value.DoubleValue
38.340

@<SCITEGIC>MOL_PROPERTY
U+W
SciTegic.value.DoubleValue
0.677

@<SCITEGIC>MOL_PROPERTY
U
SciTegic.value.DoubleValue
52.977

@<SCITEGIC>MOL_PROPERTY
W
SciTegic.value.DoubleValue
-52.300

@<SCITEGIC>MOL_PROPERTY
W(PB)
SciTegic.value.DoubleValue
-54.669

@<SCITEGIC>MOL_PROPERTY
W(SA)
SciTegic.value.DoubleValue
2.369

@<SCITEGIC>MOL_PROPERTY
Valence
SciTegic.value.DoubleValue
6.751

@<SCITEGIC>MOL_PROPERTY
Coulomb
SciTegic.value.DoubleValue
45.559

@<SCITEGIC>MOL_PROPERTY
VdW
SciTegic.value.DoubleValue
0.667

@<SCITEGIC>MOL_PROPERTY
VdW6
SciTegic.value.DoubleValue
-11.105

@<SCITEGIC>MOL_PROPERTY
VdW12
SciTegic.value.DoubleValue
11.772

@<SCITEGIC>MOL_PROPERTY
Bond
SciTegic.value.DoubleValue
0.347

@<SCITEGIC>MOL_PROPERTY
Angle
SciTegic.value.DoubleValue
2.334

@<SCITEGIC>MOL_PROPERTY
Pdih
SciTegic.value.DoubleValue
4.070

@<SCITEGIC>MOL_PROPERTY
Idih
SciTegic.value.DoubleValue
0.000

@<SCITEGIC>MOL_PROPERTY
Tether
SciTegic.value.DoubleValue
0.000

@<TRIPOS>MOLECULE
guest-3_vm2.mol2 : vm2 ligand conformer 378
          29          28           1
SMALL
USER_CHARGES
 
@<TRIPOS>ATOM
       1    C1      21.388688   19.653539   21.720306 C.3        1 MOL1        -0.2427
       2    H1      21.543570   19.311484   20.688821 H          1 MOL1         0.0958
       3    H2      22.088910   20.477759   21.907977 H          1 MOL1         0.0958
       4    H3      21.657336   18.833645   22.396834 H          1 MOL1         0.0958
       5    C2      19.931864   20.123637   21.936298 C.3        1 MOL1        -0.1412
       6    H4      19.759011   21.012002   21.313010 H          1 MOL1         0.0947
       7    H5      19.802432   20.456242   22.972137 H          1 MOL1         0.0947
       8    C3      18.875714   19.051891   21.560383 C.3        1 MOL1        -0.1437
       9    H6      17.877023   19.509445   21.553275 H          1 MOL1         0.0947
      10    H7      19.063219   18.743507   20.522621 H          1 MOL1         0.0947
      11    C4      18.854624   17.781538   22.455045 C.3        1 MOL1        -0.1437
      12    H8      19.861075   17.522045   22.802591 H          1 MOL1         0.0947
      13    H9      18.547459   16.937544   21.822246 H          1 MOL1         0.0947
      14    C5      17.861362   17.836745   23.647456 C.3        1 MOL1        -0.1437
      15    H10     16.846678   17.992360   23.255926 H          1 MOL1         0.0947
      16    H11     17.843542   16.850868   24.132121 H          1 MOL1         0.0947
      17    C6      18.146746   18.911202   24.725652 C.3        1 MOL1        -0.1437
      18    H12     17.353078   18.857706   25.483736 H          1 MOL1         0.0947
      19    H13     18.069123   19.913382   24.286026 H          1 MOL1         0.0947
      20    C7      19.514072   18.734154   25.426817 C.3        1 MOL1        -0.1477
      21    H14     19.573698   17.730924   25.869197 H          1 MOL1         0.0947
      22    H15     20.329096   18.812112   24.697290 H          1 MOL1         0.0947
      23    C8      19.720650   19.791398   26.525101 C.3        1 MOL1         0.0145
      24    H16     18.926780   19.706440   27.272078 H          1 MOL1         0.0921
      25    H17     19.675049   20.791749   26.086208 H          1 MOL1         0.0921
      26    N1      21.050278   19.653895   27.237941 N.4        1 MOL1        -0.5969
      27    H18     21.144978   18.741298   27.695821 H          1 MOL1         0.3603
      28    H19     21.167180   20.367101   27.966178 H          1 MOL1         0.3603
      29    H20     21.841381   19.752412   26.593142 H          1 MOL1         0.3603
@<TRIPOS>BOND
    1     1     2    1
    2     1     3    1
    3     1     4    1
    4     1     5    1
    5     5     6    1
    6     5     7    1
    7     5     8    1
    8     8     9    1
    9     8    10    1
   10     8    11    1
   11    11    12    1
   12    11    13    1
   13    11    14    1
   14    14    15    1
   15    14    16    1
   16    14    17    1
   17    17    18    1
   18    17    19    1
   19    17    20    1
   20    20    21    1
   21    20    22    1
   22    20    23    1
   23    23    24    1
   24    23    25    1
   25    23    26    1
   26    26    27    1
   27    26    28    1
   28    26    29    1
@<TRIPOS>SUBSTRUCTURE
       1 MOL1            1 RESIDUE      1      MOL     
@<SCITEGIC>MOL_PROPERTY
VM2 Rank
SciTegic.value.IntegerValue
378

@<SCITEGIC>MOL_PROPERTY
Conf_Id
SciTegic.value.IntegerValue
2002

@<SCITEGIC>MOL_PROPERTY
Probability
SciTegic.value.DoubleValue
0.00

@<SCITEGIC>MOL_PROPERTY
Sum Probability
SciTegic.value.DoubleValue
99.97

@<SCITEGIC>MOL_PROPERTY
Delta G
SciTegic.value.DoubleValue
5.016

@<SCITEGIC>MOL_PROPERTY
G
SciTegic.value.DoubleValue
63.164

@<SCITEGIC>MOL_PROPERTY
E
SciTegic.value.DoubleValue
24.842

@<SCITEGIC>MOL_PROPERTY
-TS
SciTegic.value.DoubleValue
38.322

@<SCITEGIC>MOL_PROPERTY
U+W
SciTegic.value.DoubleValue
0.697

@<SCITEGIC>MOL_PROPERTY
U
SciTegic.value.DoubleValue
53.285

@<SCITEGIC>MOL_PROPERTY
W
SciTegic.value.DoubleValue
-52.588

@<SCITEGIC>MOL_PROPERTY
W(PB)
SciTegic.value.DoubleValue
-54.953

@<SCITEGIC>MOL_PROPERTY
W(SA)
SciTegic.value.DoubleValue
2.365

@<SCITEGIC>MOL_PROPERTY
Valence
SciTegic.value.DoubleValue
6.888

@<SCITEGIC>MOL_PROPERTY
Coulomb
SciTegic.value.DoubleValue
45.950

@<SCITEGIC>MOL_PROPERTY
VdW
SciTegic.value.DoubleValue
0.447

@<SCITEGIC>MOL_PROPERTY
VdW6
SciTegic.value.DoubleValue
-10.701

@<SCITEGIC>MOL_PROPERTY
VdW12
SciTegic.value.DoubleValue
11.148

@<SCITEGIC>MOL_PROPERTY
Bond
SciTegic.value.DoubleValue
0.336

@<SCITEGIC>MOL_PROPERTY
Angle
SciTegic.value.DoubleValue
2.314

@<SCITEGIC>MOL_PROPERTY
Pdih
SciTegic.value.DoubleValue
4.238

@<SCITEGIC>MOL_PROPERTY
Idih
SciTegic.value.DoubleValue
0.000

@<SCITEGIC>MOL_PROPERTY
Tether
SciTegic.value.DoubleValue
0.000

@<TRIPOS>MOLECULE
guest-3_vm2.mol2 : vm2 ligand conformer 379
          29          28           1
SMALL
USER_CHARGES
 
@<TRIPOS>ATOM
       1    C1      21.063575   18.918190   20.734984 C.3        1 MOL1        -0.2427
       2    H1      21.489417   19.247528   21.689221 H          1 MOL1         0.0958
       3    H2      21.343684   17.867334   20.585673 H          1 MOL1         0.0958
       4    H3      21.537629   19.505542   19.938008 H          1 MOL1         0.0958
       5    C2      19.527227   19.090025   20.693041 C.3        1 MOL1        -0.1412
       6    H4      19.175709   18.754258   19.707371 H          1 MOL1         0.0947
       7    H5      19.259246   20.153437   20.762960 H          1 MOL1         0.0947
       8    C3      18.789022   18.274653   21.785716 C.3        1 MOL1        -0.1437
       9    H6      17.851356   17.896932   21.355077 H          1 MOL1         0.0947
      10    H7      19.371664   17.382303   22.052877 H          1 MOL1         0.0947
      11    C4      18.425684   19.074630   23.063365 C.3        1 MOL1        -0.1437
      12    H8      17.850251   18.409637   23.719662 H          1 MOL1         0.0947
      13    H9      17.753036   19.901459   22.797253 H          1 MOL1         0.0947
      14    C5      19.647215   19.633366   23.833653 C.3        1 MOL1        -0.1437
      15    H10     20.356728   18.822311   24.043773 H          1 MOL1         0.0947
      16    H11     20.176847   20.349614   23.192892 H          1 MOL1         0.0947
      17    C6      19.270783   20.367528   25.146937 C.3        1 MOL1        -0.1437
      18    H12     18.622513   21.221600   24.907284 H          1 MOL1         0.0947
      19    H13     20.181815   20.800021   25.581921 H          1 MOL1         0.0947
      20    C7      18.566807   19.488806   26.214412 C.3        1 MOL1        -0.1477
      21    H14     18.405667   20.085262   27.122140 H          1 MOL1         0.0947
      22    H15     17.566548   19.207253   25.861954 H          1 MOL1         0.0947
      23    C8      19.343335   18.209231   26.583813 C.3        1 MOL1         0.0145
      24    H16     19.477989   17.589715   25.693298 H          1 MOL1         0.0921
      25    H17     18.769764   17.633726   27.315409 H          1 MOL1         0.0921
      26    N1      20.710351   18.481570   27.179081 N.4        1 MOL1        -0.5969
      27    H18     21.307229   19.001243   26.528065 H          1 MOL1         0.3603
      28    H19     21.203326   17.613630   27.415681 H          1 MOL1         0.3603
      29    H20     20.646194   19.035016   28.039700 H          1 MOL1         0.3603
@<TRIPOS>BOND
    1     1     2    1
    2     1     3    1
    3     1     4    1
    4     1     5    1
    5     5     6    1
    6     5     7    1
    7     5     8    1
    8     8     9    1
    9     8    10    1
   10     8    11    1
   11    11    12    1
   12    11    13    1
   13    11    14    1
   14    14    15    1
   15    14    16    1
   16    14    17    1
   17    17    18    1
   18    17    19    1
   19    17    20    1
   20    20    21    1
   21    20    22    1
   22    20    23    1
   23    23    24    1
   24    23    25    1
   25    23    26    1
   26    26    27    1
   27    26    28    1
   28    26    29    1
@<TRIPOS>SUBSTRUCTURE
       1 MOL1            1 RESIDUE      1      MOL     
@<SCITEGIC>MOL_PROPERTY
VM2 Rank
SciTegic.value.IntegerValue
379

@<SCITEGIC>MOL_PROPERTY
Conf_Id
SciTegic.value.IntegerValue
889

@<SCITEGIC>MOL_PROPERTY
Probability
SciTegic.value.DoubleValue
0.00

@<SCITEGIC>MOL_PROPERTY
Sum Probability
SciTegic.value.DoubleValue
99.98

@<SCITEGIC>MOL_PROPERTY
Delta G
SciTegic.value.DoubleValue
5.021

@<SCITEGIC>MOL_PROPERTY
G
SciTegic.value.DoubleValue
63.169

@<SCITEGIC>MOL_PROPERTY
E
SciTegic.value.DoubleValue
25.120

@<SCITEGIC>MOL_PROPERTY
-TS
SciTegic.value.DoubleValue
38.049

@<SCITEGIC>MOL_PROPERTY
U+W
SciTegic.value.DoubleValue
0.975

@<SCITEGIC>MOL_PROPERTY
U
SciTegic.value.DoubleValue
53.225

@<SCITEGIC>MOL_PROPERTY
W
SciTegic.value.DoubleValue
-52.250

@<SCITEGIC>MOL_PROPERTY
W(PB)
SciTegic.value.DoubleValue
-54.667

@<SCITEGIC>MOL_PROPERTY
W(SA)
SciTegic.value.DoubleValue
2.417

@<SCITEGIC>MOL_PROPERTY
Valence
SciTegic.value.DoubleValue
6.562

@<SCITEGIC>MOL_PROPERTY
Coulomb
SciTegic.value.DoubleValue
45.742

@<SCITEGIC>MOL_PROPERTY
VdW
SciTegic.value.DoubleValue
0.921

@<SCITEGIC>MOL_PROPERTY
VdW6
SciTegic.value.DoubleValue
-10.737

@<SCITEGIC>MOL_PROPERTY
VdW12
SciTegic.value.DoubleValue
11.658

@<SCITEGIC>MOL_PROPERTY
Bond
SciTegic.value.DoubleValue
0.330

@<SCITEGIC>MOL_PROPERTY
Angle
SciTegic.value.DoubleValue
1.826

@<SCITEGIC>MOL_PROPERTY
Pdih
SciTegic.value.DoubleValue
4.407

@<SCITEGIC>MOL_PROPERTY
Idih
SciTegic.value.DoubleValue
0.000

@<SCITEGIC>MOL_PROPERTY
Tether
SciTegic.value.DoubleValue
0.000

@<TRIPOS>MOLECULE
guest-3_vm2.mol2 : vm2 ligand conformer 380
          29          28           1
SMALL
USER_CHARGES
 
@<TRIPOS>ATOM
       1    C1      21.252348   18.797371   21.064576 C.3        1 MOL1        -0.2427
       2    H1      21.422708   17.957113   21.748914 H          1 MOL1         0.0958
       3    H2      21.787134   18.576627   20.131745 H          1 MOL1         0.0958
       4    H3      21.701914   19.696923   21.504681 H          1 MOL1         0.0958
       5    C2      19.746423   19.007462   20.787616 C.3        1 MOL1        -0.1412
       6    H4      19.313499   18.084573   20.377107 H          1 MOL1         0.0947
       7    H5      19.633021   19.773662   20.008012 H          1 MOL1         0.0947
       8    C3      18.948993   19.449488   22.037990 C.3        1 MOL1        -0.1437
       9    H6      19.375603   20.385069   22.422918 H          1 MOL1         0.0947
      10    H7      17.918785   19.679265   21.733260 H          1 MOL1         0.0947
      11    C4      18.918951   18.378504   23.156913 C.3        1 MOL1        -0.1437
      12    H8      19.933253   18.205900   23.534687 H          1 MOL1         0.0947
      13    H9      18.586463   17.423531   22.727395 H          1 MOL1         0.0947
      14    C5      17.973203   18.744196   24.330256 C.3        1 MOL1        -0.1437
      15    H10     16.948519   18.824322   23.941827 H          1 MOL1         0.0947
      16    H11     17.942822   17.915576   25.048248 H          1 MOL1         0.0947
      17    C6      18.318606   20.063130   25.071888 C.3        1 MOL1        -0.1437
      18    H12     17.594850   20.206734   25.885976 H          1 MOL1         0.0947
      19    H13     18.158726   20.908192   24.389179 H          1 MOL1         0.0947
      20    C7      19.752838   20.163991   25.656634 C.3        1 MOL1        -0.1477
      21    H14     20.507931   20.071328   24.865735 H          1 MOL1         0.0947
      22    H15     19.874991   21.176214   26.064214 H          1 MOL1         0.0947
      23    C8      20.045796   19.167483   26.797375 C.3        1 MOL1         0.0145
      24    H16     19.183049   19.108936   27.466274 H          1 MOL1         0.0921
      25    H17     20.899863   19.528500   27.376722 H          1 MOL1         0.0921
      26    N1      20.386843   17.766373   26.331752 N.4        1 MOL1        -0.5969
      27    H18     20.545879   17.131468   27.121855 H          1 MOL1         0.3603
      28    H19     21.238387   17.754398   25.761184 H          1 MOL1         0.3603
      29    H20     19.633820   17.365997   25.764667 H          1 MOL1         0.3603
@<TRIPOS>BOND
    1     1     2    1
    2     1     3    1
    3     1     4    1
    4     1     5    1
    5     5     6    1
    6     5     7    1
    7     5     8    1
    8     8     9    1
    9     8    10    1
   10     8    11    1
   11    11    12    1
   12    11    13    1
   13    11    14    1
   14    14    15    1
   15    14    16    1
   16    14    17    1
   17    17    18    1
   18    17    19    1
   19    17    20    1
   20    20    21    1
   21    20    22    1
   22    20    23    1
   23    23    24    1
   24    23    25    1
   25    23    26    1
   26    26    27    1
   27    26    28    1
   28    26    29    1
@<TRIPOS>SUBSTRUCTURE
       1 MOL1            1 RESIDUE      1      MOL     
@<SCITEGIC>MOL_PROPERTY
VM2 Rank
SciTegic.value.IntegerValue
380

@<SCITEGIC>MOL_PROPERTY
Conf_Id
SciTegic.value.IntegerValue
2590

@<SCITEGIC>MOL_PROPERTY
Probability
SciTegic.value.DoubleValue
0.00

@<SCITEGIC>MOL_PROPERTY
Sum Probability
SciTegic.value.DoubleValue
99.98

@<SCITEGIC>MOL_PROPERTY
Delta G
SciTegic.value.DoubleValue
5.046

@<SCITEGIC>MOL_PROPERTY
G
SciTegic.value.DoubleValue
63.194

@<SCITEGIC>MOL_PROPERTY
E
SciTegic.value.DoubleValue
24.891

@<SCITEGIC>MOL_PROPERTY
-TS
SciTegic.value.DoubleValue
38.303

@<SCITEGIC>MOL_PROPERTY
U+W
SciTegic.value.DoubleValue
0.746

@<SCITEGIC>MOL_PROPERTY
U
SciTegic.value.DoubleValue
53.271

@<SCITEGIC>MOL_PROPERTY
W
SciTegic.value.DoubleValue
-52.524

@<SCITEGIC>MOL_PROPERTY
W(PB)
SciTegic.value.DoubleValue
-54.886

@<SCITEGIC>MOL_PROPERTY
W(SA)
SciTegic.value.DoubleValue
2.362

@<SCITEGIC>MOL_PROPERTY
Valence
SciTegic.value.DoubleValue
5.540

@<SCITEGIC>MOL_PROPERTY
Coulomb
SciTegic.value.DoubleValue
47.274

@<SCITEGIC>MOL_PROPERTY
VdW
SciTegic.value.DoubleValue
0.456

@<SCITEGIC>MOL_PROPERTY
VdW6
SciTegic.value.DoubleValue
-11.405

@<SCITEGIC>MOL_PROPERTY
VdW12
SciTegic.value.DoubleValue
11.861

@<SCITEGIC>MOL_PROPERTY
Bond
SciTegic.value.DoubleValue
0.330

@<SCITEGIC>MOL_PROPERTY
Angle
SciTegic.value.DoubleValue
1.973

@<SCITEGIC>MOL_PROPERTY
Pdih
SciTegic.value.DoubleValue
3.237

@<SCITEGIC>MOL_PROPERTY
Idih
SciTegic.value.DoubleValue
0.000

@<SCITEGIC>MOL_PROPERTY
Tether
SciTegic.value.DoubleValue
0.000

@<TRIPOS>MOLECULE
guest-3_vm2.mol2 : vm2 ligand conformer 381
          29          28           1
SMALL
USER_CHARGES
 
@<TRIPOS>ATOM
       1    C1      20.879647   20.307579   21.917444 C.3        1 MOL1        -0.2427
       2    H1      21.717054   19.846748   21.377781 H          1 MOL1         0.0958
       3    H2      21.009181   21.396536   21.871410 H          1 MOL1         0.0958
       4    H3      20.947777   20.009983   22.970517 H          1 MOL1         0.0958
       5    C2      19.526663   19.896265   21.293156 C.3        1 MOL1        -0.1412
       6    H4      19.481054   20.289625   20.268095 H          1 MOL1         0.0947
       7    H5      18.697563   20.374264   21.829615 H          1 MOL1         0.0947
       8    C3      19.315859   18.363531   21.238376 C.3        1 MOL1        -0.1437
       9    H6      18.368879   18.155514   20.721685 H          1 MOL1         0.0947
      10    H7      20.100690   17.927139   20.605360 H          1 MOL1         0.0947
      11    C4      19.317425   17.622763   22.603018 C.3        1 MOL1        -0.1437
      12    H8      20.286274   17.739556   23.101577 H          1 MOL1         0.0947
      13    H9      19.238617   16.549084   22.383699 H          1 MOL1         0.0947
      14    C5      18.142427   17.992618   23.550450 C.3        1 MOL1        -0.1437
      15    H10     17.258543   18.247689   22.950004 H          1 MOL1         0.0947
      16    H11     17.858977   17.097481   24.121089 H          1 MOL1         0.0947
      17    C6      18.425048   19.135056   24.561255 C.3        1 MOL1        -0.1437
      18    H12     17.480207   19.392530   25.059695 H          1 MOL1         0.0947
      19    H13     18.746287   20.043609   24.040188 H          1 MOL1         0.0947
      20    C7      19.465118   18.760719   25.643745 C.3        1 MOL1        -0.1477
      21    H14     19.148375   17.844338   26.159220 H          1 MOL1         0.0947
      22    H15     20.438335   18.551643   25.183727 H          1 MOL1         0.0947
      23    C8      19.632096   19.892895   26.672185 C.3        1 MOL1         0.0145
      24    H16     18.672325   20.096591   27.154655 H          1 MOL1         0.0921
      25    H17     19.963461   20.803792   26.166298 H          1 MOL1         0.0921
      26    N1      20.639716   19.566574   27.755371 N.4        1 MOL1        -0.5969
      27    H18     20.371167   18.732126   28.287407 H          1 MOL1         0.3603
      28    H19     20.734926   20.333446   28.430290 H          1 MOL1         0.3603
      29    H20     21.573031   19.391113   27.368705 H          1 MOL1         0.3603
@<TRIPOS>BOND
    1     1     2    1
    2     1     3    1
    3     1     4    1
    4     1     5    1
    5     5     6    1
    6     5     7    1
    7     5     8    1
    8     8     9    1
    9     8    10    1
   10     8    11    1
   11    11    12    1
   12    11    13    1
   13    11    14    1
   14    14    15    1
   15    14    16    1
   16    14    17    1
   17    17    18    1
   18    17    19    1
   19    17    20    1
   20    20    21    1
   21    20    22    1
   22    20    23    1
   23    23    24    1
   24    23    25    1
   25    23    26    1
   26    26    27    1
   27    26    28    1
   28    26    29    1
@<TRIPOS>SUBSTRUCTURE
       1 MOL1            1 RESIDUE      1      MOL     
@<SCITEGIC>MOL_PROPERTY
VM2 Rank
SciTegic.value.IntegerValue
381

@<SCITEGIC>MOL_PROPERTY
Conf_Id
SciTegic.value.IntegerValue
1026

@<SCITEGIC>MOL_PROPERTY
Probability
SciTegic.value.DoubleValue
0.00

@<SCITEGIC>MOL_PROPERTY
Sum Probability
SciTegic.value.DoubleValue
99.98

@<SCITEGIC>MOL_PROPERTY
Delta G
SciTegic.value.DoubleValue
5.050

@<SCITEGIC>MOL_PROPERTY
G
SciTegic.value.DoubleValue
63.198

@<SCITEGIC>MOL_PROPERTY
E
SciTegic.value.DoubleValue
24.959

@<SCITEGIC>MOL_PROPERTY
-TS
SciTegic.value.DoubleValue
38.239

@<SCITEGIC>MOL_PROPERTY
U+W
SciTegic.value.DoubleValue
0.815

@<SCITEGIC>MOL_PROPERTY
U
SciTegic.value.DoubleValue
53.092

@<SCITEGIC>MOL_PROPERTY
W
SciTegic.value.DoubleValue
-52.277

@<SCITEGIC>MOL_PROPERTY
W(PB)
SciTegic.value.DoubleValue
-54.666

@<SCITEGIC>MOL_PROPERTY
W(SA)
SciTegic.value.DoubleValue
2.388

@<SCITEGIC>MOL_PROPERTY
Valence
SciTegic.value.DoubleValue
6.910

@<SCITEGIC>MOL_PROPERTY
Coulomb
SciTegic.value.DoubleValue
45.632

@<SCITEGIC>MOL_PROPERTY
VdW
SciTegic.value.DoubleValue
0.550

@<SCITEGIC>MOL_PROPERTY
VdW6
SciTegic.value.DoubleValue
-10.516

@<SCITEGIC>MOL_PROPERTY
VdW12
SciTegic.value.DoubleValue
11.066

@<SCITEGIC>MOL_PROPERTY
Bond
SciTegic.value.DoubleValue
0.337

@<SCITEGIC>MOL_PROPERTY
Angle
SciTegic.value.DoubleValue
2.297

@<SCITEGIC>MOL_PROPERTY
Pdih
SciTegic.value.DoubleValue
4.276

@<SCITEGIC>MOL_PROPERTY
Idih
SciTegic.value.DoubleValue
0.000

@<SCITEGIC>MOL_PROPERTY
Tether
SciTegic.value.DoubleValue
0.000

@<TRIPOS>MOLECULE
guest-3_vm2.mol2 : vm2 ligand conformer 382
          29          28           1
SMALL
USER_CHARGES
 
@<TRIPOS>ATOM
       1    C1      19.333040   18.202197   20.157296 C.3        1 MOL1        -0.2427
       2    H1      18.541027   17.740110   20.759529 H          1 MOL1         0.0958
       3    H2      18.920496   19.097298   19.673947 H          1 MOL1         0.0958
       4    H3      19.605474   17.489664   19.368000 H          1 MOL1         0.0958
       5    C2      20.567727   18.554465   21.017425 C.3        1 MOL1        -0.1412
       6    H4      21.374246   18.898551   20.354942 H          1 MOL1         0.0947
       7    H5      20.942844   17.648483   21.513552 H          1 MOL1         0.0947
       8    C3      20.289339   19.652272   22.072220 C.3        1 MOL1        -0.1437
       9    H6      21.237927   19.914518   22.560491 H          1 MOL1         0.0947
      10    H7      19.938986   20.563825   21.568631 H          1 MOL1         0.0947
      11    C4      19.264474   19.225137   23.149868 C.3        1 MOL1        -0.1437
      12    H8      19.585603   18.275610   23.595173 H          1 MOL1         0.0947
      13    H9      18.287908   19.041198   22.683159 H          1 MOL1         0.0947
      14    C5      19.101827   20.307179   24.244497 C.3        1 MOL1        -0.1437
      15    H10     20.066321   20.518597   24.722165 H          1 MOL1         0.0947
      16    H11     18.798596   21.248346   23.765175 H          1 MOL1         0.0947
      17    C6      18.042891   19.949723   25.318230 C.3        1 MOL1        -0.1437
      18    H12     17.061762   19.867889   24.830465 H          1 MOL1         0.0947
      19    H13     17.957471   20.791511   26.019238 H          1 MOL1         0.0947
      20    C7      18.300544   18.651271   26.129087 C.3        1 MOL1        -0.1477
      21    H14     17.459669   18.520118   26.822961 H          1 MOL1         0.0947
      22    H15     18.282925   17.770057   25.475319 H          1 MOL1         0.0947
      23    C8      19.596758   18.669597   26.965513 C.3        1 MOL1         0.0145
      24    H16     19.513498   17.935615   27.771589 H          1 MOL1         0.0921
      25    H17     19.730572   19.656128   27.417246 H          1 MOL1         0.0921
      26    N1      20.847400   18.326159   26.180864 N.4        1 MOL1        -0.5969
      27    H18     20.809737   17.371571   25.808820 H          1 MOL1         0.3603
      28    H19     21.690475   18.388336   26.762327 H          1 MOL1         0.3603
      29    H20     20.975874   18.958018   25.384707 H          1 MOL1         0.3603
@<TRIPOS>BOND
    1     1     2    1
    2     1     3    1
    3     1     4    1
    4     1     5    1
    5     5     6    1
    6     5     7    1
    7     5     8    1
    8     8     9    1
    9     8    10    1
   10     8    11    1
   11    11    12    1
   12    11    13    1
   13    11    14    1
   14    14    15    1
   15    14    16    1
   16    14    17    1
   17    17    18    1
   18    17    19    1
   19    17    20    1
   20    20    21    1
   21    20    22    1
   22    20    23    1
   23    23    24    1
   24    23    25    1
   25    23    26    1
   26    26    27    1
   27    26    28    1
   28    26    29    1
@<TRIPOS>SUBSTRUCTURE
       1 MOL1            1 RESIDUE      1      MOL     
@<SCITEGIC>MOL_PROPERTY
VM2 Rank
SciTegic.value.IntegerValue
382

@<SCITEGIC>MOL_PROPERTY
Conf_Id
SciTegic.value.IntegerValue
2234

@<SCITEGIC>MOL_PROPERTY
Probability
SciTegic.value.DoubleValue
0.00

@<SCITEGIC>MOL_PROPERTY
Sum Probability
SciTegic.value.DoubleValue
99.98

@<SCITEGIC>MOL_PROPERTY
Delta G
SciTegic.value.DoubleValue
5.056

@<SCITEGIC>MOL_PROPERTY
G
SciTegic.value.DoubleValue
63.204

@<SCITEGIC>MOL_PROPERTY
E
SciTegic.value.DoubleValue
25.128

@<SCITEGIC>MOL_PROPERTY
-TS
SciTegic.value.DoubleValue
38.076

@<SCITEGIC>MOL_PROPERTY
U+W
SciTegic.value.DoubleValue
0.983

@<SCITEGIC>MOL_PROPERTY
U
SciTegic.value.DoubleValue
52.883

@<SCITEGIC>MOL_PROPERTY
W
SciTegic.value.DoubleValue
-51.900

@<SCITEGIC>MOL_PROPERTY
W(PB)
SciTegic.value.DoubleValue
-54.321

@<SCITEGIC>MOL_PROPERTY
W(SA)
SciTegic.value.DoubleValue
2.421

@<SCITEGIC>MOL_PROPERTY
Valence
SciTegic.value.DoubleValue
5.142

@<SCITEGIC>MOL_PROPERTY
Coulomb
SciTegic.value.DoubleValue
47.176

@<SCITEGIC>MOL_PROPERTY
VdW
SciTegic.value.DoubleValue
0.566

@<SCITEGIC>MOL_PROPERTY
VdW6
SciTegic.value.DoubleValue
-10.484

@<SCITEGIC>MOL_PROPERTY
VdW12
SciTegic.value.DoubleValue
11.049

@<SCITEGIC>MOL_PROPERTY
Bond
SciTegic.value.DoubleValue
0.281

@<SCITEGIC>MOL_PROPERTY
Angle
SciTegic.value.DoubleValue
1.694

@<SCITEGIC>MOL_PROPERTY
Pdih
SciTegic.value.DoubleValue
3.167

@<SCITEGIC>MOL_PROPERTY
Idih
SciTegic.value.DoubleValue
0.000

@<SCITEGIC>MOL_PROPERTY
Tether
SciTegic.value.DoubleValue
0.000

@<TRIPOS>MOLECULE
guest-3_vm2.mol2 : vm2 ligand conformer 383
          29          28           1
SMALL
USER_CHARGES
 
@<TRIPOS>ATOM
       1    C1      19.804771   17.290318   21.850044 C.3        1 MOL1        -0.2427
       2    H1      20.752554   17.139213   21.317384 H          1 MOL1         0.0958
       3    H2      20.030663   17.435831   22.913043 H          1 MOL1         0.0958
       4    H3      19.217643   16.367436   21.758978 H          1 MOL1         0.0958
       5    C2      19.025156   18.488446   21.261682 C.3        1 MOL1        -0.1412
       6    H4      18.073045   18.621185   21.790400 H          1 MOL1         0.0947
       7    H5      18.755737   18.253437   20.222573 H          1 MOL1         0.0947
       8    C3      19.831216   19.810146   21.270691 C.3        1 MOL1        -0.1437
       9    H6      20.724082   19.677013   20.644453 H          1 MOL1         0.0947
      10    H7      19.236192   20.590089   20.776074 H          1 MOL1         0.0947
      11    C4      20.281295   20.328397   22.663468 C.3        1 MOL1        -0.1437
      12    H8      20.901873   21.217890   22.488017 H          1 MOL1         0.0947
      13    H9      20.951159   19.605946   23.143278 H          1 MOL1         0.0947
      14    C5      19.123713   20.747173   23.611981 C.3        1 MOL1        -0.1437
      15    H10     19.461727   21.596510   24.221583 H          1 MOL1         0.0947
      16    H11     18.286114   21.132142   23.014426 H          1 MOL1         0.0947
      17    C6      18.606427   19.644306   24.572642 C.3        1 MOL1        -0.1437
      18    H12     18.288488   18.758747   24.011502 H          1 MOL1         0.0947
      19    H13     17.704567   20.022417   25.073782 H          1 MOL1         0.0947
      20    C7      19.633631   19.233838   25.654323 C.3        1 MOL1        -0.1477
      21    H14     20.526360   18.798840   25.189249 H          1 MOL1         0.0947
      22    H15     19.960063   20.122843   26.210116 H          1 MOL1         0.0947
      23    C8      19.033013   18.211292   26.634659 C.3        1 MOL1         0.0145
      24    H16     18.721168   17.316935   26.088459 H          1 MOL1         0.0921
      25    H17     18.153841   18.641102   27.122257 H          1 MOL1         0.0921
      26    N1      20.004777   17.784084   27.715511 N.4        1 MOL1        -0.5969
      27    H18     20.844291   17.345399   27.322891 H          1 MOL1         0.3603
      28    H19     19.584421   17.103596   28.358091 H          1 MOL1         0.3603
      29    H20     20.316564   18.578529   28.283959 H          1 MOL1         0.3603
@<TRIPOS>BOND
    1     1     2    1
    2     1     3    1
    3     1     4    1
    4     1     5    1
    5     5     6    1
    6     5     7    1
    7     5     8    1
    8     8     9    1
    9     8    10    1
   10     8    11    1
   11    11    12    1
   12    11    13    1
   13    11    14    1
   14    14    15    1
   15    14    16    1
   16    14    17    1
   17    17    18    1
   18    17    19    1
   19    17    20    1
   20    20    21    1
   21    20    22    1
   22    20    23    1
   23    23    24    1
   24    23    25    1
   25    23    26    1
   26    26    27    1
   27    26    28    1
   28    26    29    1
@<TRIPOS>SUBSTRUCTURE
       1 MOL1            1 RESIDUE      1      MOL     
@<SCITEGIC>MOL_PROPERTY
VM2 Rank
SciTegic.value.IntegerValue
383

@<SCITEGIC>MOL_PROPERTY
Conf_Id
SciTegic.value.IntegerValue
1515

@<SCITEGIC>MOL_PROPERTY
Probability
SciTegic.value.DoubleValue
0.00

@<SCITEGIC>MOL_PROPERTY
Sum Probability
SciTegic.value.DoubleValue
99.98

@<SCITEGIC>MOL_PROPERTY
Delta G
SciTegic.value.DoubleValue
5.100

@<SCITEGIC>MOL_PROPERTY
G
SciTegic.value.DoubleValue
63.248

@<SCITEGIC>MOL_PROPERTY
E
SciTegic.value.DoubleValue
25.009

@<SCITEGIC>MOL_PROPERTY
-TS
SciTegic.value.DoubleValue
38.239

@<SCITEGIC>MOL_PROPERTY
U+W
SciTegic.value.DoubleValue
0.865

@<SCITEGIC>MOL_PROPERTY
U
SciTegic.value.DoubleValue
53.092

@<SCITEGIC>MOL_PROPERTY
W
SciTegic.value.DoubleValue
-52.227

@<SCITEGIC>MOL_PROPERTY
W(PB)
SciTegic.value.DoubleValue
-54.663

@<SCITEGIC>MOL_PROPERTY
W(SA)
SciTegic.value.DoubleValue
2.436

@<SCITEGIC>MOL_PROPERTY
Valence
SciTegic.value.DoubleValue
6.910

@<SCITEGIC>MOL_PROPERTY
Coulomb
SciTegic.value.DoubleValue
45.632

@<SCITEGIC>MOL_PROPERTY
VdW
SciTegic.value.DoubleValue
0.550

@<SCITEGIC>MOL_PROPERTY
VdW6
SciTegic.value.DoubleValue
-10.516

@<SCITEGIC>MOL_PROPERTY
VdW12
SciTegic.value.DoubleValue
11.066

@<SCITEGIC>MOL_PROPERTY
Bond
SciTegic.value.DoubleValue
0.337

@<SCITEGIC>MOL_PROPERTY
Angle
SciTegic.value.DoubleValue
2.297

@<SCITEGIC>MOL_PROPERTY
Pdih
SciTegic.value.DoubleValue
4.276

@<SCITEGIC>MOL_PROPERTY
Idih
SciTegic.value.DoubleValue
0.000

@<SCITEGIC>MOL_PROPERTY
Tether
SciTegic.value.DoubleValue
0.000

@<TRIPOS>MOLECULE
guest-3_vm2.mol2 : vm2 ligand conformer 384
          29          28           1
SMALL
USER_CHARGES
 
@<TRIPOS>ATOM
       1    C1      21.586852   19.175242   21.278103 C.3        1 MOL1        -0.2427
       2    H1      22.087490   20.034284   20.812903 H          1 MOL1         0.0958
       3    H2      22.196993   18.850872   22.131147 H          1 MOL1         0.0958
       4    H3      21.564907   18.359842   20.543365 H          1 MOL1         0.0958
       5    C2      20.160633   19.554749   21.729273 C.3        1 MOL1        -0.1412
       6    H4      19.584994   19.904535   20.861018 H          1 MOL1         0.0947
       7    H5      20.224417   20.398232   22.428048 H          1 MOL1         0.0947
       8    C3      19.435697   18.356764   22.387769 C.3        1 MOL1        -0.1437
       9    H6      19.441234   17.515531   21.681060 H          1 MOL1         0.0947
      10    H7      20.004959   18.015761   23.258357 H          1 MOL1         0.0947
      11    C4      17.960931   18.651173   22.771429 C.3        1 MOL1        -0.1437
      12    H8      17.468135   17.715433   23.068689 H          1 MOL1         0.0947
      13    H9      17.437407   18.981191   21.863538 H          1 MOL1         0.0947
      14    C5      17.741827   19.719906   23.878318 C.3        1 MOL1        -0.1437
      15    H10     18.468165   20.536319   23.793966 H          1 MOL1         0.0947
      16    H11     16.766344   20.189995   23.691970 H          1 MOL1         0.0947
      17    C6      17.706398   19.170843   25.330575 C.3        1 MOL1        -0.1437
      18    H12     16.896818   18.433106   25.416767 H          1 MOL1         0.0947
      19    H13     17.431352   19.994658   26.003713 H          1 MOL1         0.0947
      20    C7      19.019298   18.535980   25.847153 C.3        1 MOL1        -0.1477
      21    H14     18.881168   18.247365   26.897573 H          1 MOL1         0.0947
      22    H15     19.223757   17.606038   25.303352 H          1 MOL1         0.0947
      23    C8      20.223558   19.490652   25.744927 C.3        1 MOL1         0.0145
      24    H16     20.021825   20.399767   26.317719 H          1 MOL1         0.0921
      25    H17     20.385130   19.770370   24.700853 H          1 MOL1         0.0921
      26    N1      21.508806   18.882692   26.267454 N.4        1 MOL1        -0.5969
      27    H18     21.432503   18.623394   27.256558 H          1 MOL1         0.3603
      28    H19     22.297265   19.534404   26.189685 H          1 MOL1         0.3603
      29    H20     21.768140   18.035292   25.752123 H          1 MOL1         0.3603
@<TRIPOS>BOND
    1     1     2    1
    2     1     3    1
    3     1     4    1
    4     1     5    1
    5     5     6    1
    6     5     7    1
    7     5     8    1
    8     8     9    1
    9     8    10    1
   10     8    11    1
   11    11    12    1
   12    11    13    1
   13    11    14    1
   14    14    15    1
   15    14    16    1
   16    14    17    1
   17    17    18    1
   18    17    19    1
   19    17    20    1
   20    20    21    1
   21    20    22    1
   22    20    23    1
   23    23    24    1
   24    23    25    1
   25    23    26    1
   26    26    27    1
   27    26    28    1
   28    26    29    1
@<TRIPOS>SUBSTRUCTURE
       1 MOL1            1 RESIDUE      1      MOL     
@<SCITEGIC>MOL_PROPERTY
VM2 Rank
SciTegic.value.IntegerValue
384

@<SCITEGIC>MOL_PROPERTY
Conf_Id
SciTegic.value.IntegerValue
319

@<SCITEGIC>MOL_PROPERTY
Probability
SciTegic.value.DoubleValue
0.00

@<SCITEGIC>MOL_PROPERTY
Sum Probability
SciTegic.value.DoubleValue
99.98

@<SCITEGIC>MOL_PROPERTY
Delta G
SciTegic.value.DoubleValue
5.136

@<SCITEGIC>MOL_PROPERTY
G
SciTegic.value.DoubleValue
63.284

@<SCITEGIC>MOL_PROPERTY
E
SciTegic.value.DoubleValue
25.047

@<SCITEGIC>MOL_PROPERTY
-TS
SciTegic.value.DoubleValue
38.238

@<SCITEGIC>MOL_PROPERTY
U+W
SciTegic.value.DoubleValue
0.902

@<SCITEGIC>MOL_PROPERTY
U
SciTegic.value.DoubleValue
53.767

@<SCITEGIC>MOL_PROPERTY
W
SciTegic.value.DoubleValue
-52.865

@<SCITEGIC>MOL_PROPERTY
W(PB)
SciTegic.value.DoubleValue
-55.256

@<SCITEGIC>MOL_PROPERTY
W(SA)
SciTegic.value.DoubleValue
2.391

@<SCITEGIC>MOL_PROPERTY
Valence
SciTegic.value.DoubleValue
6.611

@<SCITEGIC>MOL_PROPERTY
Coulomb
SciTegic.value.DoubleValue
46.905

@<SCITEGIC>MOL_PROPERTY
VdW
SciTegic.value.DoubleValue
0.251

@<SCITEGIC>MOL_PROPERTY
VdW6
SciTegic.value.DoubleValue
-11.031

@<SCITEGIC>MOL_PROPERTY
VdW12
SciTegic.value.DoubleValue
11.281

@<SCITEGIC>MOL_PROPERTY
Bond
SciTegic.value.DoubleValue
0.334

@<SCITEGIC>MOL_PROPERTY
Angle
SciTegic.value.DoubleValue
2.337

@<SCITEGIC>MOL_PROPERTY
Pdih
SciTegic.value.DoubleValue
3.940

@<SCITEGIC>MOL_PROPERTY
Idih
SciTegic.value.DoubleValue
0.000

@<SCITEGIC>MOL_PROPERTY
Tether
SciTegic.value.DoubleValue
0.000

@<TRIPOS>MOLECULE
guest-3_vm2.mol2 : vm2 ligand conformer 385
          29          28           1
SMALL
USER_CHARGES
 
@<TRIPOS>ATOM
       1    C1      20.357465   18.436113   20.355959 C.3        1 MOL1        -0.2427
       2    H1      20.438333   17.628920   21.094606 H          1 MOL1         0.0958
       3    H2      20.086193   17.979228   19.395492 H          1 MOL1         0.0958
       4    H3      21.346359   18.898548   20.241175 H          1 MOL1         0.0958
       5    C2      19.300604   19.482641   20.775268 C.3        1 MOL1        -0.1412
       6    H4      18.325505   18.994256   20.903967 H          1 MOL1         0.0947
       7    H5      19.169626   20.201059   19.954090 H          1 MOL1         0.0947
       8    C3      19.682492   20.265180   22.057650 C.3        1 MOL1        -0.1437
       9    H6      20.593796   20.845812   21.858912 H          1 MOL1         0.0947
      10    H7      18.896532   21.003283   22.268759 H          1 MOL1         0.0947
      11    C4      19.912684   19.399363   23.323371 C.3        1 MOL1        -0.1437
      12    H8      20.209580   20.070713   24.135858 H          1 MOL1         0.0947
      13    H9      20.764909   18.726084   23.163014 H          1 MOL1         0.0947
      14    C5      18.667814   18.575842   23.742477 C.3        1 MOL1        -0.1437
      15    H10     17.792156   19.231755   23.841504 H          1 MOL1         0.0947
      16    H11     18.430714   17.871054   22.934874 H          1 MOL1         0.0947
      17    C6      18.865402   17.752370   25.042027 C.3        1 MOL1        -0.1437
      18    H12     19.896668   17.380810   25.107466 H          1 MOL1         0.0947
      19    H13     18.236256   16.854445   24.969087 H          1 MOL1         0.0947
      20    C7      18.462037   18.489798   26.346649 C.3        1 MOL1        -0.1477
      21    H14     17.410027   18.796625   26.276948 H          1 MOL1         0.0947
      22    H15     18.515056   17.783810   27.186036 H          1 MOL1         0.0947
      23    C8      19.314132   19.726391   26.689343 C.3        1 MOL1         0.0145
      24    H16     18.936887   20.181556   27.609096 H          1 MOL1         0.0921
      25    H17     19.232102   20.466322   25.889901 H          1 MOL1         0.0921
      26    N1      20.781369   19.410301   26.902256 N.4        1 MOL1        -0.5969
      27    H18     20.917859   18.747702   27.672681 H          1 MOL1         0.3603
      28    H19     21.323732   20.250866   27.129609 H          1 MOL1         0.3603
      29    H20     21.201386   18.993416   26.065815 H          1 MOL1         0.3603
@<TRIPOS>BOND
    1     1     2    1
    2     1     3    1
    3     1     4    1
    4     1     5    1
    5     5     6    1
    6     5     7    1
    7     5     8    1
    8     8     9    1
    9     8    10    1
   10     8    11    1
   11    11    12    1
   12    11    13    1
   13    11    14    1
   14    14    15    1
   15    14    16    1
   16    14    17    1
   17    17    18    1
   18    17    19    1
   19    17    20    1
   20    20    21    1
   21    20    22    1
   22    20    23    1
   23    23    24    1
   24    23    25    1
   25    23    26    1
   26    26    27    1
   27    26    28    1
   28    26    29    1
@<TRIPOS>SUBSTRUCTURE
       1 MOL1            1 RESIDUE      1      MOL     
@<SCITEGIC>MOL_PROPERTY
VM2 Rank
SciTegic.value.IntegerValue
385

@<SCITEGIC>MOL_PROPERTY
Conf_Id
SciTegic.value.IntegerValue
223

@<SCITEGIC>MOL_PROPERTY
Probability
SciTegic.value.DoubleValue
0.00

@<SCITEGIC>MOL_PROPERTY
Sum Probability
SciTegic.value.DoubleValue
99.98

@<SCITEGIC>MOL_PROPERTY
Delta G
SciTegic.value.DoubleValue
5.139

@<SCITEGIC>MOL_PROPERTY
G
SciTegic.value.DoubleValue
63.287

@<SCITEGIC>MOL_PROPERTY
E
SciTegic.value.DoubleValue
25.116

@<SCITEGIC>MOL_PROPERTY
-TS
SciTegic.value.DoubleValue
38.171

@<SCITEGIC>MOL_PROPERTY
U+W
SciTegic.value.DoubleValue
0.972

@<SCITEGIC>MOL_PROPERTY
U
SciTegic.value.DoubleValue
53.454

@<SCITEGIC>MOL_PROPERTY
W
SciTegic.value.DoubleValue
-52.482

@<SCITEGIC>MOL_PROPERTY
W(PB)
SciTegic.value.DoubleValue
-54.867

@<SCITEGIC>MOL_PROPERTY
W(SA)
SciTegic.value.DoubleValue
2.385

@<SCITEGIC>MOL_PROPERTY
Valence
SciTegic.value.DoubleValue
6.344

@<SCITEGIC>MOL_PROPERTY
Coulomb
SciTegic.value.DoubleValue
46.378

@<SCITEGIC>MOL_PROPERTY
VdW
SciTegic.value.DoubleValue
0.731

@<SCITEGIC>MOL_PROPERTY
VdW6
SciTegic.value.DoubleValue
-10.924

@<SCITEGIC>MOL_PROPERTY
VdW12
SciTegic.value.DoubleValue
11.655

@<SCITEGIC>MOL_PROPERTY
Bond
SciTegic.value.DoubleValue
0.338

@<SCITEGIC>MOL_PROPERTY
Angle
SciTegic.value.DoubleValue
2.042

@<SCITEGIC>MOL_PROPERTY
Pdih
SciTegic.value.DoubleValue
3.964

@<SCITEGIC>MOL_PROPERTY
Idih
SciTegic.value.DoubleValue
0.000

@<SCITEGIC>MOL_PROPERTY
Tether
SciTegic.value.DoubleValue
0.000

@<TRIPOS>MOLECULE
guest-3_vm2.mol2 : vm2 ligand conformer 386
          29          28           1
SMALL
USER_CHARGES
 
@<TRIPOS>ATOM
       1    C1      19.981143   18.001244   20.697718 C.3        1 MOL1        -0.2427
       2    H1      19.351032   17.400757   21.361699 H          1 MOL1         0.0958
       3    H2      19.808310   17.646722   19.673372 H          1 MOL1         0.0958
       4    H3      21.030905   17.799419   20.946881 H          1 MOL1         0.0958
       5    C2      19.666362   19.511104   20.804116 C.3        1 MOL1        -0.1412
       6    H4      18.615331   19.699622   20.545008 H          1 MOL1         0.0947
       7    H5      20.262682   20.031380   20.041528 H          1 MOL1         0.0947
       8    C3      19.999742   20.129809   22.186715 C.3        1 MOL1        -0.1437
       9    H6      20.886221   19.648869   22.620249 H          1 MOL1         0.0947
      10    H7      20.291355   21.175891   22.019795 H          1 MOL1         0.0947
      11    C4      18.824432   20.142531   23.201258 C.3        1 MOL1        -0.1437
      12    H8      17.970503   20.663595   22.747243 H          1 MOL1         0.0947
      13    H9      19.113143   20.758216   24.063288 H          1 MOL1         0.0947
      14    C5      18.346248   18.758131   23.710400 C.3        1 MOL1        -0.1437
      15    H10     17.518117   18.912865   24.414808 H          1 MOL1         0.0947
      16    H11     17.906669   18.196805   22.876845 H          1 MOL1         0.0947
      17    C6      19.439698   17.893028   24.394024 C.3        1 MOL1        -0.1437
      18    H12     20.204322   17.613350   23.658148 H          1 MOL1         0.0947
      19    H13     18.984508   16.948678   24.722843 H          1 MOL1         0.0947
      20    C7      20.132589   18.562950   25.606202 C.3        1 MOL1        -0.1477
      21    H14     20.873291   17.866172   26.020400 H          1 MOL1         0.0947
      22    H15     20.692157   19.447679   25.276788 H          1 MOL1         0.0947
      23    C8      19.139607   18.959519   26.714141 C.3        1 MOL1         0.0145
      24    H16     18.591395   18.075464   27.050578 H          1 MOL1         0.0921
      25    H17     18.420088   19.683346   26.322703 H          1 MOL1         0.0921
      26    N1      19.814179   19.579683   27.920425 N.4        1 MOL1        -0.5969
      27    H18     20.486088   18.937630   28.353671 H          1 MOL1         0.3603
      28    H19     19.135789   19.836615   28.645917 H          1 MOL1         0.3603
      29    H20     20.326845   20.432898   27.674504 H          1 MOL1         0.3603
@<TRIPOS>BOND
    1     1     2    1
    2     1     3    1
    3     1     4    1
    4     1     5    1
    5     5     6    1
    6     5     7    1
    7     5     8    1
    8     8     9    1
    9     8    10    1
   10     8    11    1
   11    11    12    1
   12    11    13    1
   13    11    14    1
   14    14    15    1
   15    14    16    1
   16    14    17    1
   17    17    18    1
   18    17    19    1
   19    17    20    1
   20    20    21    1
   21    20    22    1
   22    20    23    1
   23    23    24    1
   24    23    25    1
   25    23    26    1
   26    26    27    1
   27    26    28    1
   28    26    29    1
@<TRIPOS>SUBSTRUCTURE
       1 MOL1            1 RESIDUE      1      MOL     
@<SCITEGIC>MOL_PROPERTY
VM2 Rank
SciTegic.value.IntegerValue
386

@<SCITEGIC>MOL_PROPERTY
Conf_Id
SciTegic.value.IntegerValue
656

@<SCITEGIC>MOL_PROPERTY
Probability
SciTegic.value.DoubleValue
0.00

@<SCITEGIC>MOL_PROPERTY
Sum Probability
SciTegic.value.DoubleValue
99.98

@<SCITEGIC>MOL_PROPERTY
Delta G
SciTegic.value.DoubleValue
5.165

@<SCITEGIC>MOL_PROPERTY
G
SciTegic.value.DoubleValue
63.313

@<SCITEGIC>MOL_PROPERTY
E
SciTegic.value.DoubleValue
24.839

@<SCITEGIC>MOL_PROPERTY
-TS
SciTegic.value.DoubleValue
38.474

@<SCITEGIC>MOL_PROPERTY
U+W
SciTegic.value.DoubleValue
0.694

@<SCITEGIC>MOL_PROPERTY
U
SciTegic.value.DoubleValue
53.063

@<SCITEGIC>MOL_PROPERTY
W
SciTegic.value.DoubleValue
-52.369

@<SCITEGIC>MOL_PROPERTY
W(PB)
SciTegic.value.DoubleValue
-54.754

@<SCITEGIC>MOL_PROPERTY
W(SA)
SciTegic.value.DoubleValue
2.385

@<SCITEGIC>MOL_PROPERTY
Valence
SciTegic.value.DoubleValue
6.871

@<SCITEGIC>MOL_PROPERTY
Coulomb
SciTegic.value.DoubleValue
45.732

@<SCITEGIC>MOL_PROPERTY
VdW
SciTegic.value.DoubleValue
0.459

@<SCITEGIC>MOL_PROPERTY
VdW6
SciTegic.value.DoubleValue
-11.438

@<SCITEGIC>MOL_PROPERTY
VdW12
SciTegic.value.DoubleValue
11.898

@<SCITEGIC>MOL_PROPERTY
Bond
SciTegic.value.DoubleValue
0.351

@<SCITEGIC>MOL_PROPERTY
Angle
SciTegic.value.DoubleValue
2.406

@<SCITEGIC>MOL_PROPERTY
Pdih
SciTegic.value.DoubleValue
4.115

@<SCITEGIC>MOL_PROPERTY
Idih
SciTegic.value.DoubleValue
0.000

@<SCITEGIC>MOL_PROPERTY
Tether
SciTegic.value.DoubleValue
0.000

@<TRIPOS>MOLECULE
guest-3_vm2.mol2 : vm2 ligand conformer 387
          29          28           1
SMALL
USER_CHARGES
 
@<TRIPOS>ATOM
       1    C1      20.777638   17.681111   21.574197 C.3        1 MOL1        -0.2427
       2    H1      21.463809   17.654219   22.430454 H          1 MOL1         0.0958
       3    H2      19.915418   17.042900   21.803152 H          1 MOL1         0.0958
       4    H3      21.296812   17.237474   20.714825 H          1 MOL1         0.0958
       5    C2      20.344394   19.129836   21.254007 C.3        1 MOL1        -0.1412
       6    H4      19.641825   19.129211   20.408994 H          1 MOL1         0.0947
       7    H5      21.225254   19.696580   20.921476 H          1 MOL1         0.0947
       8    C3      19.711707   19.859669   22.462495 C.3        1 MOL1        -0.1437
       9    H6      20.423392   19.851327   23.296354 H          1 MOL1         0.0947
      10    H7      19.561584   20.914957   22.196409 H          1 MOL1         0.0947
      11    C4      18.353998   19.255628   22.901648 C.3        1 MOL1        -0.1437
      12    H8      18.467259   18.204080   23.188524 H          1 MOL1         0.0947
      13    H9      17.674071   19.255646   22.038749 H          1 MOL1         0.0947
      14    C5      17.676631   20.037572   24.054464 C.3        1 MOL1        -0.1437
      15    H10     17.474229   21.062199   23.713402 H          1 MOL1         0.0947
      16    H11     16.692183   19.590353   24.249320 H          1 MOL1         0.0947
      17    C6      18.465750   20.107425   25.390234 C.3        1 MOL1        -0.1437
      18    H12     17.870031   20.713005   26.087088 H          1 MOL1         0.0947
      19    H13     19.402636   20.662232   25.256658 H          1 MOL1         0.0947
      20    C7      18.727870   18.733505   26.063790 C.3        1 MOL1        -0.1477
      21    H14     18.811895   18.877822   27.149137 H          1 MOL1         0.0947
      22    H15     17.858909   18.079066   25.914736 H          1 MOL1         0.0947
      23    C8      20.001090   18.011960   25.575169 C.3        1 MOL1         0.0145
      24    H16     19.984895   17.907042   24.488817 H          1 MOL1         0.0921
      25    H17     20.037314   17.010326   26.012028 H          1 MOL1         0.0921
      26    N1      21.284921   18.721294   25.958996 N.4        1 MOL1        -0.5969
      27    H18     22.113402   18.215206   25.627715 H          1 MOL1         0.3603
      28    H19     21.377039   18.812035   26.976129 H          1 MOL1         0.3603
      29    H20     21.329118   19.666283   25.566280 H          1 MOL1         0.3603
@<TRIPOS>BOND
    1     1     2    1
    2     1     3    1
    3     1     4    1
    4     1     5    1
    5     5     6    1
    6     5     7    1
    7     5     8    1
    8     8     9    1
    9     8    10    1
   10     8    11    1
   11    11    12    1
   12    11    13    1
   13    11    14    1
   14    14    15    1
   15    14    16    1
   16    14    17    1
   17    17    18    1
   18    17    19    1
   19    17    20    1
   20    20    21    1
   21    20    22    1
   22    20    23    1
   23    23    24    1
   24    23    25    1
   25    23    26    1
   26    26    27    1
   27    26    28    1
   28    26    29    1
@<TRIPOS>SUBSTRUCTURE
       1 MOL1            1 RESIDUE      1      MOL     
@<SCITEGIC>MOL_PROPERTY
VM2 Rank
SciTegic.value.IntegerValue
387

@<SCITEGIC>MOL_PROPERTY
Conf_Id
SciTegic.value.IntegerValue
292

@<SCITEGIC>MOL_PROPERTY
Probability
SciTegic.value.DoubleValue
0.00

@<SCITEGIC>MOL_PROPERTY
Sum Probability
SciTegic.value.DoubleValue
99.98

@<SCITEGIC>MOL_PROPERTY
Delta G
SciTegic.value.DoubleValue
5.165

@<SCITEGIC>MOL_PROPERTY
G
SciTegic.value.DoubleValue
63.313

@<SCITEGIC>MOL_PROPERTY
E
SciTegic.value.DoubleValue
24.780

@<SCITEGIC>MOL_PROPERTY
-TS
SciTegic.value.DoubleValue
38.533

@<SCITEGIC>MOL_PROPERTY
U+W
SciTegic.value.DoubleValue
0.635

@<SCITEGIC>MOL_PROPERTY
U
SciTegic.value.DoubleValue
53.662

@<SCITEGIC>MOL_PROPERTY
W
SciTegic.value.DoubleValue
-53.026

@<SCITEGIC>MOL_PROPERTY
W(PB)
SciTegic.value.DoubleValue
-55.342

@<SCITEGIC>MOL_PROPERTY
W(SA)
SciTegic.value.DoubleValue
2.316

@<SCITEGIC>MOL_PROPERTY
Valence
SciTegic.value.DoubleValue
6.196

@<SCITEGIC>MOL_PROPERTY
Coulomb
SciTegic.value.DoubleValue
47.384

@<SCITEGIC>MOL_PROPERTY
VdW
SciTegic.value.DoubleValue
0.082

@<SCITEGIC>MOL_PROPERTY
VdW6
SciTegic.value.DoubleValue
-11.955

@<SCITEGIC>MOL_PROPERTY
VdW12
SciTegic.value.DoubleValue
12.037

@<SCITEGIC>MOL_PROPERTY
Bond
SciTegic.value.DoubleValue
0.329

@<SCITEGIC>MOL_PROPERTY
Angle
SciTegic.value.DoubleValue
2.009

@<SCITEGIC>MOL_PROPERTY
Pdih
SciTegic.value.DoubleValue
3.857

@<SCITEGIC>MOL_PROPERTY
Idih
SciTegic.value.DoubleValue
0.000

@<SCITEGIC>MOL_PROPERTY
Tether
SciTegic.value.DoubleValue
0.000

@<TRIPOS>MOLECULE
guest-3_vm2.mol2 : vm2 ligand conformer 388
          29          28           1
SMALL
USER_CHARGES
 
@<TRIPOS>ATOM
       1    C1      20.661273   19.249060   20.188270 C.3        1 MOL1        -0.2427
       2    H1      21.516082   18.900573   20.780762 H          1 MOL1         0.0958
       3    H2      20.195982   18.377965   19.708993 H          1 MOL1         0.0958
       4    H3      21.053551   19.898755   19.395223 H          1 MOL1         0.0958
       5    C2      19.639990   20.015780   21.058834 C.3        1 MOL1        -0.1412
       6    H4      18.874696   20.452412   20.402014 H          1 MOL1         0.0947
       7    H5      20.137217   20.860794   21.555195 H          1 MOL1         0.0947
       8    C3      18.937824   19.127764   22.114408 C.3        1 MOL1        -0.1437
       9    H6      18.146651   19.724395   22.586363 H          1 MOL1         0.0947
      10    H7      18.437013   18.288067   21.613404 H          1 MOL1         0.0947
      11    C4      19.898417   18.589302   23.204500 C.3        1 MOL1        -0.1437
      12    H8      20.406346   19.430204   23.692285 H          1 MOL1         0.0947
      13    H9      20.687078   17.991038   22.730493 H          1 MOL1         0.0947
      14    C5      19.194807   17.697017   24.260463 C.3        1 MOL1        -0.1437
      15    H10     18.758500   16.828227   23.748468 H          1 MOL1         0.0947
      16    H11     19.944908   17.279169   24.943024 H          1 MOL1         0.0947
      17    C6      18.076428   18.391168   25.083090 C.3        1 MOL1        -0.1437
      18    H12     17.676170   17.668604   25.807591 H          1 MOL1         0.0947
      19    H13     17.236427   18.627309   24.416680 H          1 MOL1         0.0947
      20    C7      18.485414   19.681861   25.841842 C.3        1 MOL1        -0.1477
      21    H14     18.850254   20.448413   25.146521 H          1 MOL1         0.0947
      22    H15     17.578093   20.102399   26.295236 H          1 MOL1         0.0947
      23    C8      19.507004   19.455859   26.975647 C.3        1 MOL1         0.0145
      24    H16     19.244960   18.552714   27.533186 H          1 MOL1         0.0921
      25    H17     19.468508   20.303147   27.665595 H          1 MOL1         0.0921
      26    N1      20.942843   19.330188   26.507945 N.4        1 MOL1        -0.5969
      27    H18     21.053808   18.561420   25.840390 H          1 MOL1         0.3603
      28    H19     21.583154   19.152035   27.289550 H          1 MOL1         0.3603
      29    H20     21.265827   20.185681   26.044624 H          1 MOL1         0.3603
@<TRIPOS>BOND
    1     1     2    1
    2     1     3    1
    3     1     4    1
    4     1     5    1
    5     5     6    1
    6     5     7    1
    7     5     8    1
    8     8     9    1
    9     8    10    1
   10     8    11    1
   11    11    12    1
   12    11    13    1
   13    11    14    1
   14    14    15    1
   15    14    16    1
   16    14    17    1
   17    17    18    1
   18    17    19    1
   19    17    20    1
   20    20    21    1
   21    20    22    1
   22    20    23    1
   23    23    24    1
   24    23    25    1
   25    23    26    1
   26    26    27    1
   27    26    28    1
   28    26    29    1
@<TRIPOS>SUBSTRUCTURE
       1 MOL1            1 RESIDUE      1      MOL     
@<SCITEGIC>MOL_PROPERTY
VM2 Rank
SciTegic.value.IntegerValue
388

@<SCITEGIC>MOL_PROPERTY
Conf_Id
SciTegic.value.IntegerValue
2615

@<SCITEGIC>MOL_PROPERTY
Probability
SciTegic.value.DoubleValue
0.00

@<SCITEGIC>MOL_PROPERTY
Sum Probability
SciTegic.value.DoubleValue
99.98

@<SCITEGIC>MOL_PROPERTY
Delta G
SciTegic.value.DoubleValue
5.172

@<SCITEGIC>MOL_PROPERTY
G
SciTegic.value.DoubleValue
63.320

@<SCITEGIC>MOL_PROPERTY
E
SciTegic.value.DoubleValue
25.073

@<SCITEGIC>MOL_PROPERTY
-TS
SciTegic.value.DoubleValue
38.247

@<SCITEGIC>MOL_PROPERTY
U+W
SciTegic.value.DoubleValue
0.928

@<SCITEGIC>MOL_PROPERTY
U
SciTegic.value.DoubleValue
53.336

@<SCITEGIC>MOL_PROPERTY
W
SciTegic.value.DoubleValue
-52.408

@<SCITEGIC>MOL_PROPERTY
W(PB)
SciTegic.value.DoubleValue
-54.774

@<SCITEGIC>MOL_PROPERTY
W(SA)
SciTegic.value.DoubleValue
2.365

@<SCITEGIC>MOL_PROPERTY
Valence
SciTegic.value.DoubleValue
5.652

@<SCITEGIC>MOL_PROPERTY
Coulomb
SciTegic.value.DoubleValue
47.086

@<SCITEGIC>MOL_PROPERTY
VdW
SciTegic.value.DoubleValue
0.599

@<SCITEGIC>MOL_PROPERTY
VdW6
SciTegic.value.DoubleValue
-11.213

@<SCITEGIC>MOL_PROPERTY
VdW12
SciTegic.value.DoubleValue
11.812

@<SCITEGIC>MOL_PROPERTY
Bond
SciTegic.value.DoubleValue
0.338

@<SCITEGIC>MOL_PROPERTY
Angle
SciTegic.value.DoubleValue
2.106

@<SCITEGIC>MOL_PROPERTY
Pdih
SciTegic.value.DoubleValue
3.208

@<SCITEGIC>MOL_PROPERTY
Idih
SciTegic.value.DoubleValue
0.000

@<SCITEGIC>MOL_PROPERTY
Tether
SciTegic.value.DoubleValue
0.000

@<TRIPOS>MOLECULE
guest-3_vm2.mol2 : vm2 ligand conformer 389
          29          28           1
SMALL
USER_CHARGES
 
@<TRIPOS>ATOM
       1    C1      21.391111   19.398268   21.613413 C.3        1 MOL1        -0.2427
       2    H1      21.124857   20.428386   21.880098 H          1 MOL1         0.0958
       3    H2      21.926767   18.950149   22.460168 H          1 MOL1         0.0958
       4    H3      22.086147   19.446796   20.765213 H          1 MOL1         0.0958
       5    C2      20.142992   18.565830   21.241559 C.3        1 MOL1        -0.1412
       6    H4      20.470434   17.583281   20.874042 H          1 MOL1         0.0947
       7    H5      19.611924   19.045115   20.407351 H          1 MOL1         0.0947
       8    C3      19.173858   18.354045   22.428703 C.3        1 MOL1        -0.1437
       9    H6      18.393372   17.643951   22.122794 H          1 MOL1         0.0947
      10    H7      19.717917   17.876648   23.252096 H          1 MOL1         0.0947
      11    C4      18.499206   19.663078   22.910753 C.3        1 MOL1        -0.1437
      12    H8      17.985069   20.127721   22.058306 H          1 MOL1         0.0947
      13    H9      19.248489   20.392969   23.237419 H          1 MOL1         0.0947
      14    C5      17.463724   19.441587   24.041225 C.3        1 MOL1        -0.1437
      15    H10     16.982105   20.402781   24.267635 H          1 MOL1         0.0947
      16    H11     16.663254   18.791067   23.662774 H          1 MOL1         0.0947
      17    C6      18.011527   18.835088   25.361811 C.3        1 MOL1        -0.1437
      18    H12     18.387324   17.818373   25.193063 H          1 MOL1         0.0947
      19    H13     17.157309   18.716401   26.042576 H          1 MOL1         0.0947
      20    C7      19.074708   19.704638   26.085394 C.3        1 MOL1        -0.1477
      21    H14     18.818489   20.766580   25.974786 H          1 MOL1         0.0947
      22    H15     19.033186   19.496815   27.162868 H          1 MOL1         0.0947
      23    C8      20.523793   19.475903   25.607576 C.3        1 MOL1         0.0145
      24    H16     21.179766   20.209995   26.083220 H          1 MOL1         0.0921
      25    H17     20.592907   19.610433   24.526580 H          1 MOL1         0.0921
      26    N1      21.063082   18.099563   25.944566 N.4        1 MOL1        -0.5969
      27    H18     20.504621   17.356605   25.514084 H          1 MOL1         0.3603
      28    H19     21.062656   17.930664   26.955878 H          1 MOL1         0.3603
      29    H20     22.029352   17.979570   25.621800 H          1 MOL1         0.3603
@<TRIPOS>BOND
    1     1     2    1
    2     1     3    1
    3     1     4    1
    4     1     5    1
    5     5     6    1
    6     5     7    1
    7     5     8    1
    8     8     9    1
    9     8    10    1
   10     8    11    1
   11    11    12    1
   12    11    13    1
   13    11    14    1
   14    14    15    1
   15    14    16    1
   16    14    17    1
   17    17    18    1
   18    17    19    1
   19    17    20    1
   20    20    21    1
   21    20    22    1
   22    20    23    1
   23    23    24    1
   24    23    25    1
   25    23    26    1
   26    26    27    1
   27    26    28    1
   28    26    29    1
@<TRIPOS>SUBSTRUCTURE
       1 MOL1            1 RESIDUE      1      MOL     
@<SCITEGIC>MOL_PROPERTY
VM2 Rank
SciTegic.value.IntegerValue
389

@<SCITEGIC>MOL_PROPERTY
Conf_Id
SciTegic.value.IntegerValue
1047

@<SCITEGIC>MOL_PROPERTY
Probability
SciTegic.value.DoubleValue
0.00

@<SCITEGIC>MOL_PROPERTY
Sum Probability
SciTegic.value.DoubleValue
99.99

@<SCITEGIC>MOL_PROPERTY
Delta G
SciTegic.value.DoubleValue
5.188

@<SCITEGIC>MOL_PROPERTY
G
SciTegic.value.DoubleValue
63.336

@<SCITEGIC>MOL_PROPERTY
E
SciTegic.value.DoubleValue
24.802

@<SCITEGIC>MOL_PROPERTY
-TS
SciTegic.value.DoubleValue
38.534

@<SCITEGIC>MOL_PROPERTY
U+W
SciTegic.value.DoubleValue
0.658

@<SCITEGIC>MOL_PROPERTY
U
SciTegic.value.DoubleValue
53.662

@<SCITEGIC>MOL_PROPERTY
W
SciTegic.value.DoubleValue
-53.005

@<SCITEGIC>MOL_PROPERTY
W(PB)
SciTegic.value.DoubleValue
-55.343

@<SCITEGIC>MOL_PROPERTY
W(SA)
SciTegic.value.DoubleValue
2.338

@<SCITEGIC>MOL_PROPERTY
Valence
SciTegic.value.DoubleValue
6.196

@<SCITEGIC>MOL_PROPERTY
Coulomb
SciTegic.value.DoubleValue
47.385

@<SCITEGIC>MOL_PROPERTY
VdW
SciTegic.value.DoubleValue
0.081

@<SCITEGIC>MOL_PROPERTY
VdW6
SciTegic.value.DoubleValue
-11.957

@<SCITEGIC>MOL_PROPERTY
VdW12
SciTegic.value.DoubleValue
12.038

@<SCITEGIC>MOL_PROPERTY
Bond
SciTegic.value.DoubleValue
0.329

@<SCITEGIC>MOL_PROPERTY
Angle
SciTegic.value.DoubleValue
2.009

@<SCITEGIC>MOL_PROPERTY
Pdih
SciTegic.value.DoubleValue
3.857

@<SCITEGIC>MOL_PROPERTY
Idih
SciTegic.value.DoubleValue
0.000

@<SCITEGIC>MOL_PROPERTY
Tether
SciTegic.value.DoubleValue
0.000

@<TRIPOS>MOLECULE
guest-3_vm2.mol2 : vm2 ligand conformer 390
          29          28           1
SMALL
USER_CHARGES
 
@<TRIPOS>ATOM
       1    C1      20.328642   18.316064   20.167290 C.3        1 MOL1        -0.2427
       2    H1      21.202849   18.021868   20.760921 H          1 MOL1         0.0958
       3    H2      20.233019   17.596828   19.343600 H          1 MOL1         0.0958
       4    H3      20.525547   19.303316   19.729601 H          1 MOL1         0.0958
       5    C2      19.040508   18.333746   21.021199 C.3        1 MOL1        -0.1412
       6    H4      18.884583   17.345814   21.476541 H          1 MOL1         0.0947
       7    H5      18.180839   18.505709   20.358526 H          1 MOL1         0.0947
       8    C3      19.043016   19.422879   22.121028 C.3        1 MOL1        -0.1437
       9    H6      19.192969   20.409131   21.660887 H          1 MOL1         0.0947
      10    H7      18.046252   19.442634   22.580090 H          1 MOL1         0.0947
      11    C4      20.112172   19.188988   23.217927 C.3        1 MOL1        -0.1437
      12    H8      21.108047   19.172002   22.756913 H          1 MOL1         0.0947
      13    H9      19.967052   18.197892   23.664818 H          1 MOL1         0.0947
      14    C5      20.116393   20.282445   24.318212 C.3        1 MOL1        -0.1437
      15    H10     20.951974   20.104448   25.006151 H          1 MOL1         0.0947
      16    H11     20.334981   21.250791   23.847229 H          1 MOL1         0.0947
      17    C6      18.799553   20.419921   25.128374 C.3        1 MOL1        -0.1437
      18    H12     18.008965   20.794621   24.465020 H          1 MOL1         0.0947
      19    H13     18.936096   21.203443   25.886433 H          1 MOL1         0.0947
      20    C7      18.289644   19.132671   25.829685 C.3        1 MOL1        -0.1477
      21    H14     17.314558   19.363027   26.278901 H          1 MOL1         0.0947
      22    H15     18.097354   18.336372   25.099537 H          1 MOL1         0.0947
      23    C8      19.207984   18.616804   26.956964 C.3        1 MOL1         0.0145
      24    H16     18.632736   17.958437   27.613508 H          1 MOL1         0.0921
      25    H17     19.568365   19.459267   27.553259 H          1 MOL1         0.0921
      26    N1      20.406089   17.824482   26.474323 N.4        1 MOL1        -0.5969
      27    H18     20.121717   16.976635   25.973183 H          1 MOL1         0.3603
      28    H19     21.003793   17.526595   27.253203 H          1 MOL1         0.3603
      29    H20     20.987494   18.375385   25.836026 H          1 MOL1         0.3603
@<TRIPOS>BOND
    1     1     2    1
    2     1     3    1
    3     1     4    1
    4     1     5    1
    5     5     6    1
    6     5     7    1
    7     5     8    1
    8     8     9    1
    9     8    10    1
   10     8    11    1
   11    11    12    1
   12    11    13    1
   13    11    14    1
   14    14    15    1
   15    14    16    1
   16    14    17    1
   17    17    18    1
   18    17    19    1
   19    17    20    1
   20    20    21    1
   21    20    22    1
   22    20    23    1
   23    23    24    1
   24    23    25    1
   25    23    26    1
   26    26    27    1
   27    26    28    1
   28    26    29    1
@<TRIPOS>SUBSTRUCTURE
       1 MOL1            1 RESIDUE      1      MOL     
@<SCITEGIC>MOL_PROPERTY
VM2 Rank
SciTegic.value.IntegerValue
390

@<SCITEGIC>MOL_PROPERTY
Conf_Id
SciTegic.value.IntegerValue
282

@<SCITEGIC>MOL_PROPERTY
Probability
SciTegic.value.DoubleValue
0.00

@<SCITEGIC>MOL_PROPERTY
Sum Probability
SciTegic.value.DoubleValue
99.99

@<SCITEGIC>MOL_PROPERTY
Delta G
SciTegic.value.DoubleValue
5.206

@<SCITEGIC>MOL_PROPERTY
G
SciTegic.value.DoubleValue
63.354

@<SCITEGIC>MOL_PROPERTY
E
SciTegic.value.DoubleValue
25.107

@<SCITEGIC>MOL_PROPERTY
-TS
SciTegic.value.DoubleValue
38.247

@<SCITEGIC>MOL_PROPERTY
U+W
SciTegic.value.DoubleValue
0.962

@<SCITEGIC>MOL_PROPERTY
U
SciTegic.value.DoubleValue
53.336

@<SCITEGIC>MOL_PROPERTY
W
SciTegic.value.DoubleValue
-52.374

@<SCITEGIC>MOL_PROPERTY
W(PB)
SciTegic.value.DoubleValue
-54.774

@<SCITEGIC>MOL_PROPERTY
W(SA)
SciTegic.value.DoubleValue
2.400

@<SCITEGIC>MOL_PROPERTY
Valence
SciTegic.value.DoubleValue
5.652

@<SCITEGIC>MOL_PROPERTY
Coulomb
SciTegic.value.DoubleValue
47.086

@<SCITEGIC>MOL_PROPERTY
VdW
SciTegic.value.DoubleValue
0.599

@<SCITEGIC>MOL_PROPERTY
VdW6
SciTegic.value.DoubleValue
-11.213

@<SCITEGIC>MOL_PROPERTY
VdW12
SciTegic.value.DoubleValue
11.812

@<SCITEGIC>MOL_PROPERTY
Bond
SciTegic.value.DoubleValue
0.338

@<SCITEGIC>MOL_PROPERTY
Angle
SciTegic.value.DoubleValue
2.105

@<SCITEGIC>MOL_PROPERTY
Pdih
SciTegic.value.DoubleValue
3.209

@<SCITEGIC>MOL_PROPERTY
Idih
SciTegic.value.DoubleValue
0.000

@<SCITEGIC>MOL_PROPERTY
Tether
SciTegic.value.DoubleValue
0.000

@<TRIPOS>MOLECULE
guest-3_vm2.mol2 : vm2 ligand conformer 391
          29          28           1
SMALL
USER_CHARGES
 
@<TRIPOS>ATOM
       1    C1      20.583007   19.691989   20.735510 C.3        1 MOL1        -0.2427
       2    H1      20.464511   20.528592   21.431604 H          1 MOL1         0.0958
       3    H2      21.520690   19.175319   20.977621 H          1 MOL1         0.0958
       4    H3      20.687398   20.116257   19.728563 H          1 MOL1         0.0958
       5    C2      19.383839   18.717573   20.786427 C.3        1 MOL1        -0.1412
       6    H4      19.528180   17.968341   19.995451 H          1 MOL1         0.0947
       7    H5      18.453711   19.245745   20.534958 H          1 MOL1         0.0947
       8    C3      19.232017   17.973134   22.138565 C.3        1 MOL1        -0.1437
       9    H6      18.799697   16.985613   21.926215 H          1 MOL1         0.0947
      10    H7      20.216842   17.768416   22.578234 H          1 MOL1         0.0947
      11    C4      18.298650   18.665394   23.168328 C.3        1 MOL1        -0.1437
      12    H8      18.121489   17.972180   24.001146 H          1 MOL1         0.0947
      13    H9      17.313986   18.819237   22.706159 H          1 MOL1         0.0947
      14    C5      18.795163   20.019190   23.738562 C.3        1 MOL1        -0.1437
      15    H10     18.820668   20.764453   22.934160 H          1 MOL1         0.0947
      16    H11     18.045562   20.394525   24.447897 H          1 MOL1         0.0947
      17    C6      20.179540   19.971381   24.440413 C.3        1 MOL1        -0.1437
      18    H12     20.418486   20.977064   24.812735 H          1 MOL1         0.0947
      19    H13     20.959266   19.734135   23.705481 H          1 MOL1         0.0947
      20    C7      20.276476   18.967063   25.615238 C.3        1 MOL1        -0.1477
      21    H14     20.156137   17.941646   25.243197 H          1 MOL1         0.0947
      22    H15     21.284883   19.022387   26.046230 H          1 MOL1         0.0947
      23    C8      19.240649   19.243261   26.720488 C.3        1 MOL1         0.0145
      24    H16     18.231256   19.152978   26.310815 H          1 MOL1         0.0921
      25    H17     19.369450   20.260613   27.099549 H          1 MOL1         0.0921
      26    N1      19.354659   18.289016   27.891468 N.4        1 MOL1        -0.5969
      27    H18     20.274913   18.344371   28.340315 H          1 MOL1         0.3603
      28    H19     19.216476   17.314403   27.604562 H          1 MOL1         0.3603
      29    H20     18.656303   18.489804   28.615725 H          1 MOL1         0.3603
@<TRIPOS>BOND
    1     1     2    1
    2     1     3    1
    3     1     4    1
    4     1     5    1
    5     5     6    1
    6     5     7    1
    7     5     8    1
    8     8     9    1
    9     8    10    1
   10     8    11    1
   11    11    12    1
   12    11    13    1
   13    11    14    1
   14    14    15    1
   15    14    16    1
   16    14    17    1
   17    17    18    1
   18    17    19    1
   19    17    20    1
   20    20    21    1
   21    20    22    1
   22    20    23    1
   23    23    24    1
   24    23    25    1
   25    23    26    1
   26    26    27    1
   27    26    28    1
   28    26    29    1
@<TRIPOS>SUBSTRUCTURE
       1 MOL1            1 RESIDUE      1      MOL     
@<SCITEGIC>MOL_PROPERTY
VM2 Rank
SciTegic.value.IntegerValue
391

@<SCITEGIC>MOL_PROPERTY
Conf_Id
SciTegic.value.IntegerValue
692

@<SCITEGIC>MOL_PROPERTY
Probability
SciTegic.value.DoubleValue
0.00

@<SCITEGIC>MOL_PROPERTY
Sum Probability
SciTegic.value.DoubleValue
99.99

@<SCITEGIC>MOL_PROPERTY
Delta G
SciTegic.value.DoubleValue
5.240

@<SCITEGIC>MOL_PROPERTY
G
SciTegic.value.DoubleValue
63.388

@<SCITEGIC>MOL_PROPERTY
E
SciTegic.value.DoubleValue
24.913

@<SCITEGIC>MOL_PROPERTY
-TS
SciTegic.value.DoubleValue
38.474

@<SCITEGIC>MOL_PROPERTY
U+W
SciTegic.value.DoubleValue
0.769

@<SCITEGIC>MOL_PROPERTY
U
SciTegic.value.DoubleValue
53.064

@<SCITEGIC>MOL_PROPERTY
W
SciTegic.value.DoubleValue
-52.295

@<SCITEGIC>MOL_PROPERTY
W(PB)
SciTegic.value.DoubleValue
-54.697

@<SCITEGIC>MOL_PROPERTY
W(SA)
SciTegic.value.DoubleValue
2.402

@<SCITEGIC>MOL_PROPERTY
Valence
SciTegic.value.DoubleValue
6.871

@<SCITEGIC>MOL_PROPERTY
Coulomb
SciTegic.value.DoubleValue
45.733

@<SCITEGIC>MOL_PROPERTY
VdW
SciTegic.value.DoubleValue
0.460

@<SCITEGIC>MOL_PROPERTY
VdW6
SciTegic.value.DoubleValue
-11.439

@<SCITEGIC>MOL_PROPERTY
VdW12
SciTegic.value.DoubleValue
11.898

@<SCITEGIC>MOL_PROPERTY
Bond
SciTegic.value.DoubleValue
0.351

@<SCITEGIC>MOL_PROPERTY
Angle
SciTegic.value.DoubleValue
2.406

@<SCITEGIC>MOL_PROPERTY
Pdih
SciTegic.value.DoubleValue
4.115

@<SCITEGIC>MOL_PROPERTY
Idih
SciTegic.value.DoubleValue
0.000

@<SCITEGIC>MOL_PROPERTY
Tether
SciTegic.value.DoubleValue
0.000

@<TRIPOS>MOLECULE
guest-3_vm2.mol2 : vm2 ligand conformer 392
          29          28           1
SMALL
USER_CHARGES
 
@<TRIPOS>ATOM
       1    C1      19.709711   18.406453   19.893704 C.3        1 MOL1        -0.2427
       2    H1      20.723859   18.607405   19.524498 H          1 MOL1         0.0958
       3    H2      19.648715   17.344583   20.165574 H          1 MOL1         0.0958
       4    H3      19.009106   18.583841   19.067457 H          1 MOL1         0.0958
       5    C2      19.369297   19.307459   21.099532 C.3        1 MOL1        -0.1412
       6    H4      18.336714   19.106387   21.414274 H          1 MOL1         0.0947
       7    H5      19.409246   20.361222   20.790430 H          1 MOL1         0.0947
       8    C3      20.341740   19.072342   22.279059 C.3        1 MOL1        -0.1437
       9    H6      20.274327   18.028612   22.612985 H          1 MOL1         0.0947
      10    H7      21.372214   19.209462   21.923523 H          1 MOL1         0.0947
      11    C4      20.107780   20.029073   23.476434 C.3        1 MOL1        -0.1437
      12    H8      20.272515   21.062304   23.141180 H          1 MOL1         0.0947
      13    H9      20.879394   19.837886   24.232554 H          1 MOL1         0.0947
      14    C5      18.702150   19.937508   24.130185 C.3        1 MOL1        -0.1437
      15    H10     18.638698   20.654413   24.957631 H          1 MOL1         0.0947
      16    H11     17.948455   20.278079   23.407988 H          1 MOL1         0.0947
      17    C6      18.298520   18.526341   24.633949 C.3        1 MOL1        -0.1437
      18    H12     18.194434   17.856278   23.770236 H          1 MOL1         0.0947
      19    H13     17.295464   18.586301   25.078247 H          1 MOL1         0.0947
      20    C7      19.259323   17.866958   25.659086 C.3        1 MOL1        -0.1477
      21    H14     18.898880   16.846322   25.843512 H          1 MOL1         0.0947
      22    H15     20.266321   17.753298   25.238246 H          1 MOL1         0.0947
      23    C8      19.326768   18.587168   27.021722 C.3        1 MOL1         0.0145
      24    H16     19.710877   17.892960   27.774009 H          1 MOL1         0.0921
      25    H17     18.323017   18.895385   27.326141 H          1 MOL1         0.0921
      26    N1      20.228712   19.804697   27.041330 N.4        1 MOL1        -0.5969
      27    H18     21.202005   19.557681   26.835088 H          1 MOL1         0.3603
      28    H19     20.224015   20.266671   27.957390 H          1 MOL1         0.3603
      29    H20     19.936964   20.499203   26.347546 H          1 MOL1         0.3603
@<TRIPOS>BOND
    1     1     2    1
    2     1     3    1
    3     1     4    1
    4     1     5    1
    5     5     6    1
    6     5     7    1
    7     5     8    1
    8     8     9    1
    9     8    10    1
   10     8    11    1
   11    11    12    1
   12    11    13    1
   13    11    14    1
   14    14    15    1
   15    14    16    1
   16    14    17    1
   17    17    18    1
   18    17    19    1
   19    17    20    1
   20    20    21    1
   21    20    22    1
   22    20    23    1
   23    23    24    1
   24    23    25    1
   25    23    26    1
   26    26    27    1
   27    26    28    1
   28    26    29    1
@<TRIPOS>SUBSTRUCTURE
       1 MOL1            1 RESIDUE      1      MOL     
@<SCITEGIC>MOL_PROPERTY
VM2 Rank
SciTegic.value.IntegerValue
392

@<SCITEGIC>MOL_PROPERTY
Conf_Id
SciTegic.value.IntegerValue
1034

@<SCITEGIC>MOL_PROPERTY
Probability
SciTegic.value.DoubleValue
0.00

@<SCITEGIC>MOL_PROPERTY
Sum Probability
SciTegic.value.DoubleValue
99.99

@<SCITEGIC>MOL_PROPERTY
Delta G
SciTegic.value.DoubleValue
5.253

@<SCITEGIC>MOL_PROPERTY
G
SciTegic.value.DoubleValue
63.401

@<SCITEGIC>MOL_PROPERTY
E
SciTegic.value.DoubleValue
24.915

@<SCITEGIC>MOL_PROPERTY
-TS
SciTegic.value.DoubleValue
38.487

@<SCITEGIC>MOL_PROPERTY
U+W
SciTegic.value.DoubleValue
0.770

@<SCITEGIC>MOL_PROPERTY
U
SciTegic.value.DoubleValue
53.010

@<SCITEGIC>MOL_PROPERTY
W
SciTegic.value.DoubleValue
-52.240

@<SCITEGIC>MOL_PROPERTY
W(PB)
SciTegic.value.DoubleValue
-54.631

@<SCITEGIC>MOL_PROPERTY
W(SA)
SciTegic.value.DoubleValue
2.392

@<SCITEGIC>MOL_PROPERTY
Valence
SciTegic.value.DoubleValue
5.547

@<SCITEGIC>MOL_PROPERTY
Coulomb
SciTegic.value.DoubleValue
47.083

@<SCITEGIC>MOL_PROPERTY
VdW
SciTegic.value.DoubleValue
0.380

@<SCITEGIC>MOL_PROPERTY
VdW6
SciTegic.value.DoubleValue
-11.558

@<SCITEGIC>MOL_PROPERTY
VdW12
SciTegic.value.DoubleValue
11.937

@<SCITEGIC>MOL_PROPERTY
Bond
SciTegic.value.DoubleValue
0.339

@<SCITEGIC>MOL_PROPERTY
Angle
SciTegic.value.DoubleValue
2.129

@<SCITEGIC>MOL_PROPERTY
Pdih
SciTegic.value.DoubleValue
3.078

@<SCITEGIC>MOL_PROPERTY
Idih
SciTegic.value.DoubleValue
0.000

@<SCITEGIC>MOL_PROPERTY
Tether
SciTegic.value.DoubleValue
0.000

@<TRIPOS>MOLECULE
guest-3_vm2.mol2 : vm2 ligand conformer 393
          29          28           1
SMALL
USER_CHARGES
 
@<TRIPOS>ATOM
       1    C1      20.244757   20.696689   21.753265 C.3        1 MOL1        -0.2427
       2    H1      20.594028   20.459573   22.765231 H          1 MOL1         0.0958
       3    H2      21.083004   20.549902   21.059974 H          1 MOL1         0.0958
       4    H3      19.976907   21.760957   21.735577 H          1 MOL1         0.0958
       5    C2      19.033267   19.826497   21.347484 C.3        1 MOL1        -0.1412
       6    H4      18.677233   20.160784   20.363081 H          1 MOL1         0.0947
       7    H5      18.195715   19.993049   22.036337 H          1 MOL1         0.0947
       8    C3      19.363176   18.316380   21.261205 C.3        1 MOL1        -0.1437
       9    H6      18.474647   17.780693   20.899872 H          1 MOL1         0.0947
      10    H7      20.130794   18.171768   20.488576 H          1 MOL1         0.0947
      11    C4      19.854847   17.647399   22.573333 C.3        1 MOL1        -0.1437
      12    H8      20.791251   18.106587   22.909570 H          1 MOL1         0.0947
      13    H9      20.120148   16.610859   22.323757 H          1 MOL1         0.0947
      14    C5      18.803085   17.597552   23.716372 C.3        1 MOL1        -0.1437
      15    H10     17.797865   17.518739   23.280288 H          1 MOL1         0.0947
      16    H11     18.947925   16.668602   24.284979 H          1 MOL1         0.0947
      17    C6      18.837894   18.782327   24.717253 C.3        1 MOL1        -0.1437
      18    H12     17.948039   18.708523   25.356078 H          1 MOL1         0.0947
      19    H13     18.750941   19.738080   24.189060 H          1 MOL1         0.0947
      20    C7      20.101783   18.796061   25.614039 C.3        1 MOL1        -0.1477
      21    H14     20.182749   17.849200   26.164120 H          1 MOL1         0.0947
      22    H15     21.002747   18.875055   24.994309 H          1 MOL1         0.0947
      23    C8      20.107810   19.970838   26.611024 C.3        1 MOL1         0.0145
      24    H16     20.011313   20.914921   26.068078 H          1 MOL1         0.0921
      25    H17     21.058770   19.983210   27.150515 H          1 MOL1         0.0921
      26    N1      18.997380   19.904257   27.641024 N.4        1 MOL1        -0.5969
      27    H18     18.071457   19.925941   27.202511 H          1 MOL1         0.3603
      28    H19     19.038341   20.692380   28.296546 H          1 MOL1         0.3603
      29    H20     19.048369   19.046260   28.200033 H          1 MOL1         0.3603
@<TRIPOS>BOND
    1     1     2    1
    2     1     3    1
    3     1     4    1
    4     1     5    1
    5     5     6    1
    6     5     7    1
    7     5     8    1
    8     8     9    1
    9     8    10    1
   10     8    11    1
   11    11    12    1
   12    11    13    1
   13    11    14    1
   14    14    15    1
   15    14    16    1
   16    14    17    1
   17    17    18    1
   18    17    19    1
   19    17    20    1
   20    20    21    1
   21    20    22    1
   22    20    23    1
   23    23    24    1
   24    23    25    1
   25    23    26    1
   26    26    27    1
   27    26    28    1
   28    26    29    1
@<TRIPOS>SUBSTRUCTURE
       1 MOL1            1 RESIDUE      1      MOL     
@<SCITEGIC>MOL_PROPERTY
VM2 Rank
SciTegic.value.IntegerValue
393

@<SCITEGIC>MOL_PROPERTY
Conf_Id
SciTegic.value.IntegerValue
858

@<SCITEGIC>MOL_PROPERTY
Probability
SciTegic.value.DoubleValue
0.00

@<SCITEGIC>MOL_PROPERTY
Sum Probability
SciTegic.value.DoubleValue
99.99

@<SCITEGIC>MOL_PROPERTY
Delta G
SciTegic.value.DoubleValue
5.270

@<SCITEGIC>MOL_PROPERTY
G
SciTegic.value.DoubleValue
63.418

@<SCITEGIC>MOL_PROPERTY
E
SciTegic.value.DoubleValue
25.138

@<SCITEGIC>MOL_PROPERTY
-TS
SciTegic.value.DoubleValue
38.280

@<SCITEGIC>MOL_PROPERTY
U+W
SciTegic.value.DoubleValue
0.993

@<SCITEGIC>MOL_PROPERTY
U
SciTegic.value.DoubleValue
53.387

@<SCITEGIC>MOL_PROPERTY
W
SciTegic.value.DoubleValue
-52.393

@<SCITEGIC>MOL_PROPERTY
W(PB)
SciTegic.value.DoubleValue
-54.766

@<SCITEGIC>MOL_PROPERTY
W(SA)
SciTegic.value.DoubleValue
2.373

@<SCITEGIC>MOL_PROPERTY
Valence
SciTegic.value.DoubleValue
7.038

@<SCITEGIC>MOL_PROPERTY
Coulomb
SciTegic.value.DoubleValue
45.647

@<SCITEGIC>MOL_PROPERTY
VdW
SciTegic.value.DoubleValue
0.702

@<SCITEGIC>MOL_PROPERTY
VdW6
SciTegic.value.DoubleValue
-10.995

@<SCITEGIC>MOL_PROPERTY
VdW12
SciTegic.value.DoubleValue
11.696

@<SCITEGIC>MOL_PROPERTY
Bond
SciTegic.value.DoubleValue
0.363

@<SCITEGIC>MOL_PROPERTY
Angle
SciTegic.value.DoubleValue
2.317

@<SCITEGIC>MOL_PROPERTY
Pdih
SciTegic.value.DoubleValue
4.358

@<SCITEGIC>MOL_PROPERTY
Idih
SciTegic.value.DoubleValue
0.000

@<SCITEGIC>MOL_PROPERTY
Tether
SciTegic.value.DoubleValue
0.000

@<TRIPOS>MOLECULE
guest-3_vm2.mol2 : vm2 ligand conformer 394
          29          28           1
SMALL
USER_CHARGES
 
@<TRIPOS>ATOM
       1    C1      19.076781   17.394737   21.679921 C.3        1 MOL1        -0.2427
       2    H1      19.830587   17.009290   20.981307 H          1 MOL1         0.0958
       3    H2      19.483324   17.319440   22.695471 H          1 MOL1         0.0958
       4    H3      18.199821   16.737061   21.623989 H          1 MOL1         0.0958
       5    C2      18.687214   18.848157   21.325781 C.3        1 MOL1        -0.1412
       6    H4      17.921550   19.217973   22.019141 H          1 MOL1         0.0947
       7    H5      18.214002   18.851124   20.334006 H          1 MOL1         0.0947
       8    C3      19.894085   19.817297   21.294627 C.3        1 MOL1        -0.1437
       9    H6      20.592756   19.477701   20.517686 H          1 MOL1         0.0947
      10    H7      19.544816   20.806127   20.967164 H          1 MOL1         0.0947
      11    C4      20.678533   19.976149   22.625175 C.3        1 MOL1        -0.1437
      12    H8      21.539784   20.624496   22.413089 H          1 MOL1         0.0947
      13    H9      21.113489   19.017650   22.929893 H          1 MOL1         0.0947
      14    C5      19.875882   20.630694   23.783859 C.3        1 MOL1        -0.1437
      15    H10     20.564351   21.238898   24.386633 H          1 MOL1         0.0947
      16    H11     19.149689   21.340835   23.365301 H          1 MOL1         0.0947
      17    C6      19.144443   19.648859   24.736571 C.3        1 MOL1        -0.1437
      18    H12     18.483687   18.981785   24.172280 H          1 MOL1         0.0947
      19    H13     18.489711   20.240135   25.390103 H          1 MOL1         0.0947
      20    C7      20.106280   18.808652   25.614494 C.3        1 MOL1        -0.1477
      21    H14     20.766353   18.205844   24.979698 H          1 MOL1         0.0947
      22    H15     20.756262   19.471737   26.200609 H          1 MOL1         0.0947
      23    C8      19.358816   17.852497   26.563797 C.3        1 MOL1         0.0145
      24    H16     20.083175   17.224236   27.089266 H          1 MOL1         0.0921
      25    H17     18.698538   17.200922   25.985107 H          1 MOL1         0.0921
      26    N1      18.521967   18.560958   27.610774 N.4        1 MOL1        -0.5969
      27    H18     19.092522   19.173635   28.202670 H          1 MOL1         0.3603
      28    H19     18.049498   17.896827   28.233852 H          1 MOL1         0.3603
      29    H20     17.794200   19.142975   27.184497 H          1 MOL1         0.3603
@<TRIPOS>BOND
    1     1     2    1
    2     1     3    1
    3     1     4    1
    4     1     5    1
    5     5     6    1
    6     5     7    1
    7     5     8    1
    8     8     9    1
    9     8    10    1
   10     8    11    1
   11    11    12    1
   12    11    13    1
   13    11    14    1
   14    14    15    1
   15    14    16    1
   16    14    17    1
   17    17    18    1
   18    17    19    1
   19    17    20    1
   20    20    21    1
   21    20    22    1
   22    20    23    1
   23    23    24    1
   24    23    25    1
   25    23    26    1
   26    26    27    1
   27    26    28    1
   28    26    29    1
@<TRIPOS>SUBSTRUCTURE
       1 MOL1            1 RESIDUE      1      MOL     
@<SCITEGIC>MOL_PROPERTY
VM2 Rank
SciTegic.value.IntegerValue
394

@<SCITEGIC>MOL_PROPERTY
Conf_Id
SciTegic.value.IntegerValue
1939

@<SCITEGIC>MOL_PROPERTY
Probability
SciTegic.value.DoubleValue
0.00

@<SCITEGIC>MOL_PROPERTY
Sum Probability
SciTegic.value.DoubleValue
99.99

@<SCITEGIC>MOL_PROPERTY
Delta G
SciTegic.value.DoubleValue
5.306

@<SCITEGIC>MOL_PROPERTY
G
SciTegic.value.DoubleValue
63.454

@<SCITEGIC>MOL_PROPERTY
E
SciTegic.value.DoubleValue
25.174

@<SCITEGIC>MOL_PROPERTY
-TS
SciTegic.value.DoubleValue
38.280

@<SCITEGIC>MOL_PROPERTY
U+W
SciTegic.value.DoubleValue
1.029

@<SCITEGIC>MOL_PROPERTY
U
SciTegic.value.DoubleValue
53.387

@<SCITEGIC>MOL_PROPERTY
W
SciTegic.value.DoubleValue
-52.357

@<SCITEGIC>MOL_PROPERTY
W(PB)
SciTegic.value.DoubleValue
-54.754

@<SCITEGIC>MOL_PROPERTY
W(SA)
SciTegic.value.DoubleValue
2.396

@<SCITEGIC>MOL_PROPERTY
Valence
SciTegic.value.DoubleValue
7.037

@<SCITEGIC>MOL_PROPERTY
Coulomb
SciTegic.value.DoubleValue
45.647

@<SCITEGIC>MOL_PROPERTY
VdW
SciTegic.value.DoubleValue
0.702

@<SCITEGIC>MOL_PROPERTY
VdW6
SciTegic.value.DoubleValue
-10.995

@<SCITEGIC>MOL_PROPERTY
VdW12
SciTegic.value.DoubleValue
11.697

@<SCITEGIC>MOL_PROPERTY
Bond
SciTegic.value.DoubleValue
0.363

@<SCITEGIC>MOL_PROPERTY
Angle
SciTegic.value.DoubleValue
2.316

@<SCITEGIC>MOL_PROPERTY
Pdih
SciTegic.value.DoubleValue
4.358

@<SCITEGIC>MOL_PROPERTY
Idih
SciTegic.value.DoubleValue
0.000

@<SCITEGIC>MOL_PROPERTY
Tether
SciTegic.value.DoubleValue
0.000

@<TRIPOS>MOLECULE
guest-3_vm2.mol2 : vm2 ligand conformer 395
          29          28           1
SMALL
USER_CHARGES
 
@<TRIPOS>ATOM
       1    C1      19.421008   17.371145   21.239049 C.3        1 MOL1        -0.2427
       2    H1      18.815203   16.455829   21.247433 H          1 MOL1         0.0958
       3    H2      19.752921   17.543044   20.206945 H          1 MOL1         0.0958
       4    H3      20.307186   17.184356   21.857060 H          1 MOL1         0.0958
       5    C2      18.596182   18.568803   21.763648 C.3        1 MOL1        -0.1412
       6    H4      18.280658   18.374413   22.794721 H          1 MOL1         0.0947
       7    H5      17.670816   18.636166   21.174822 H          1 MOL1         0.0947
       8    C3      19.341623   19.924601   21.656857 C.3        1 MOL1        -0.1437
       9    H6      19.652811   20.057008   20.611469 H          1 MOL1         0.0947
      10    H7      18.639480   20.744959   21.858853 H          1 MOL1         0.0947
      11    C4      20.591821   20.079974   22.566429 C.3        1 MOL1        -0.1437
      12    H8      21.306979   20.724671   22.037263 H          1 MOL1         0.0947
      13    H9      21.113652   19.124671   22.693121 H          1 MOL1         0.0947
      14    C5      20.320368   20.742577   23.944414 C.3        1 MOL1        -0.1437
      15    H10     21.282586   20.903539   24.449767 H          1 MOL1         0.0947
      16    H11     19.902535   21.744917   23.777575 H          1 MOL1         0.0947
      17    C6      19.382237   19.969285   24.903963 C.3        1 MOL1        -0.1437
      18    H12     18.384130   19.876960   24.458060 H          1 MOL1         0.0947
      19    H13     19.248923   20.577683   25.808168 H          1 MOL1         0.0947
      20    C7      19.924584   18.574773   25.306448 C.3        1 MOL1        -0.1477
      21    H14     20.073879   17.958134   24.412159 H          1 MOL1         0.0947
      22    H15     20.908924   18.678445   25.781775 H          1 MOL1         0.0947
      23    C8      18.972721   17.818769   26.252918 C.3        1 MOL1         0.0145
      24    H16     19.362798   16.813123   26.431907 H          1 MOL1         0.0921
      25    H17     17.988179   17.724928   25.786845 H          1 MOL1         0.0921
      26    N1      18.793456   18.488072   27.601275 N.4        1 MOL1        -0.5969
      27    H18     19.684535   18.584762   28.099114 H          1 MOL1         0.3603
      28    H19     18.165222   17.953575   28.211298 H          1 MOL1         0.3603
      29    H20     18.394687   19.427452   27.508158 H          1 MOL1         0.3603
@<TRIPOS>BOND
    1     1     2    1
    2     1     3    1
    3     1     4    1
    4     1     5    1
    5     5     6    1
    6     5     7    1
    7     5     8    1
    8     8     9    1
    9     8    10    1
   10     8    11    1
   11    11    12    1
   12    11    13    1
   13    11    14    1
   14    14    15    1
   15    14    16    1
   16    14    17    1
   17    17    18    1
   18    17    19    1
   19    17    20    1
   20    20    21    1
   21    20    22    1
   22    20    23    1
   23    23    24    1
   24    23    25    1
   25    23    26    1
   26    26    27    1
   27    26    28    1
   28    26    29    1
@<TRIPOS>SUBSTRUCTURE
       1 MOL1            1 RESIDUE      1      MOL     
@<SCITEGIC>MOL_PROPERTY
VM2 Rank
SciTegic.value.IntegerValue
395

@<SCITEGIC>MOL_PROPERTY
Conf_Id
SciTegic.value.IntegerValue
1833

@<SCITEGIC>MOL_PROPERTY
Probability
SciTegic.value.DoubleValue
0.00

@<SCITEGIC>MOL_PROPERTY
Sum Probability
SciTegic.value.DoubleValue
99.99

@<SCITEGIC>MOL_PROPERTY
Delta G
SciTegic.value.DoubleValue
5.313

@<SCITEGIC>MOL_PROPERTY
G
SciTegic.value.DoubleValue
63.461

@<SCITEGIC>MOL_PROPERTY
E
SciTegic.value.DoubleValue
25.061

@<SCITEGIC>MOL_PROPERTY
-TS
SciTegic.value.DoubleValue
38.400

@<SCITEGIC>MOL_PROPERTY
U+W
SciTegic.value.DoubleValue
0.916

@<SCITEGIC>MOL_PROPERTY
U
SciTegic.value.DoubleValue
53.311

@<SCITEGIC>MOL_PROPERTY
W
SciTegic.value.DoubleValue
-52.395

@<SCITEGIC>MOL_PROPERTY
W(PB)
SciTegic.value.DoubleValue
-54.785

@<SCITEGIC>MOL_PROPERTY
W(SA)
SciTegic.value.DoubleValue
2.390

@<SCITEGIC>MOL_PROPERTY
Valence
SciTegic.value.DoubleValue
7.016

@<SCITEGIC>MOL_PROPERTY
Coulomb
SciTegic.value.DoubleValue
45.674

@<SCITEGIC>MOL_PROPERTY
VdW
SciTegic.value.DoubleValue
0.621

@<SCITEGIC>MOL_PROPERTY
VdW6
SciTegic.value.DoubleValue
-11.160

@<SCITEGIC>MOL_PROPERTY
VdW12
SciTegic.value.DoubleValue
11.780

@<SCITEGIC>MOL_PROPERTY
Bond
SciTegic.value.DoubleValue
0.360

@<SCITEGIC>MOL_PROPERTY
Angle
SciTegic.value.DoubleValue
2.359

@<SCITEGIC>MOL_PROPERTY
Pdih
SciTegic.value.DoubleValue
4.297

@<SCITEGIC>MOL_PROPERTY
Idih
SciTegic.value.DoubleValue
0.000

@<SCITEGIC>MOL_PROPERTY
Tether
SciTegic.value.DoubleValue
0.000

@<TRIPOS>MOLECULE
guest-3_vm2.mol2 : vm2 ligand conformer 396
          29          28           1
SMALL
USER_CHARGES
 
@<TRIPOS>ATOM
       1    C1      21.274911   19.525920   21.016648 C.3        1 MOL1        -0.2427
       2    H1      21.915866   18.714654   21.385414 H          1 MOL1         0.0958
       3    H2      21.739778   19.934939   20.110264 H          1 MOL1         0.0958
       4    H3      21.262061   20.324490   21.768583 H          1 MOL1         0.0958
       5    C2      19.850132   19.012422   20.707983 C.3        1 MOL1        -0.1412
       6    H4      19.902575   18.309961   19.864449 H          1 MOL1         0.0947
       7    H5      19.220028   19.848290   20.373293 H          1 MOL1         0.0947
       8    C3      19.180099   18.298691   21.906601 C.3        1 MOL1        -0.1437
       9    H6      18.229052   17.865492   21.567216 H          1 MOL1         0.0947
      10    H7      19.806760   17.455012   22.226603 H          1 MOL1         0.0947
      11    C4      18.907844   19.235600   23.107483 C.3        1 MOL1        -0.1437
      12    H8      18.307086   20.092884   22.774029 H          1 MOL1         0.0947
      13    H9      19.855780   19.640742   23.478655 H          1 MOL1         0.0947
      14    C5      18.163316   18.500605   24.248061 C.3        1 MOL1        -0.1437
      15    H10     17.217582   18.104622   23.852807 H          1 MOL1         0.0947
      16    H11     18.734447   17.623353   24.575894 H          1 MOL1         0.0947
      17    C6      17.836729   19.407057   25.462052 C.3        1 MOL1        -0.1437
      18    H12     17.264889   18.819002   26.193154 H          1 MOL1         0.0947
      19    H13     17.161708   20.208367   25.131196 H          1 MOL1         0.0947
      20    C7      19.051344   20.050963   26.183396 C.3        1 MOL1        -0.1477
      21    H14     19.581806   20.743180   25.517297 H          1 MOL1         0.0947
      22    H15     18.661788   20.670615   27.001939 H          1 MOL1         0.0947
      23    C8      20.039710   19.036696   26.795504 C.3        1 MOL1         0.0145
      24    H16     19.486638   18.207006   27.243764 H          1 MOL1         0.0921
      25    H17     20.614102   19.527940   27.585549 H          1 MOL1         0.0921
      26    N1      21.039916   18.470047   25.807272 N.4        1 MOL1        -0.5969
      27    H18     21.648105   19.201137   25.424265 H          1 MOL1         0.3603
      28    H19     20.570573   18.019087   25.015960 H          1 MOL1         0.3603
      29    H20     21.650372   17.769942   26.243143 H          1 MOL1         0.3603
@<TRIPOS>BOND
    1     1     2    1
    2     1     3    1
    3     1     4    1
    4     1     5    1
    5     5     6    1
    6     5     7    1
    7     5     8    1
    8     8     9    1
    9     8    10    1
   10     8    11    1
   11    11    12    1
   12    11    13    1
   13    11    14    1
   14    14    15    1
   15    14    16    1
   16    14    17    1
   17    17    18    1
   18    17    19    1
   19    17    20    1
   20    20    21    1
   21    20    22    1
   22    20    23    1
   23    23    24    1
   24    23    25    1
   25    23    26    1
   26    26    27    1
   27    26    28    1
   28    26    29    1
@<TRIPOS>SUBSTRUCTURE
       1 MOL1            1 RESIDUE      1      MOL     
@<SCITEGIC>MOL_PROPERTY
VM2 Rank
SciTegic.value.IntegerValue
396

@<SCITEGIC>MOL_PROPERTY
Conf_Id
SciTegic.value.IntegerValue
1313

@<SCITEGIC>MOL_PROPERTY
Probability
SciTegic.value.DoubleValue
0.00

@<SCITEGIC>MOL_PROPERTY
Sum Probability
SciTegic.value.DoubleValue
99.99

@<SCITEGIC>MOL_PROPERTY
Delta G
SciTegic.value.DoubleValue
5.417

@<SCITEGIC>MOL_PROPERTY
G
SciTegic.value.DoubleValue
63.565

@<SCITEGIC>MOL_PROPERTY
E
SciTegic.value.DoubleValue
25.472

@<SCITEGIC>MOL_PROPERTY
-TS
SciTegic.value.DoubleValue
38.093

@<SCITEGIC>MOL_PROPERTY
U+W
SciTegic.value.DoubleValue
1.328

@<SCITEGIC>MOL_PROPERTY
U
SciTegic.value.DoubleValue
53.053

@<SCITEGIC>MOL_PROPERTY
W
SciTegic.value.DoubleValue
-51.726

@<SCITEGIC>MOL_PROPERTY
W(PB)
SciTegic.value.DoubleValue
-54.121

@<SCITEGIC>MOL_PROPERTY
W(SA)
SciTegic.value.DoubleValue
2.395

@<SCITEGIC>MOL_PROPERTY
Valence
SciTegic.value.DoubleValue
5.137

@<SCITEGIC>MOL_PROPERTY
Coulomb
SciTegic.value.DoubleValue
47.396

@<SCITEGIC>MOL_PROPERTY
VdW
SciTegic.value.DoubleValue
0.520

@<SCITEGIC>MOL_PROPERTY
VdW6
SciTegic.value.DoubleValue
-10.608

@<SCITEGIC>MOL_PROPERTY
VdW12
SciTegic.value.DoubleValue
11.128

@<SCITEGIC>MOL_PROPERTY
Bond
SciTegic.value.DoubleValue
0.284

@<SCITEGIC>MOL_PROPERTY
Angle
SciTegic.value.DoubleValue
1.688

@<SCITEGIC>MOL_PROPERTY
Pdih
SciTegic.value.DoubleValue
3.165

@<SCITEGIC>MOL_PROPERTY
Idih
SciTegic.value.DoubleValue
0.000

@<SCITEGIC>MOL_PROPERTY
Tether
SciTegic.value.DoubleValue
0.000

@<TRIPOS>MOLECULE
guest-3_vm2.mol2 : vm2 ligand conformer 397
          29          28           1
SMALL
USER_CHARGES
 
@<TRIPOS>ATOM
       1    C1      20.855222   18.781510   20.885041 C.3        1 MOL1        -0.2427
       2    H1      21.362270   19.262204   21.727871 H          1 MOL1         0.0958
       3    H2      20.958336   17.694610   20.998333 H          1 MOL1         0.0958
       4    H3      21.389886   19.072984   19.971798 H          1 MOL1         0.0958
       5    C2      19.367274   19.190404   20.790412 C.3        1 MOL1        -0.1412
       6    H4      18.957395   18.749992   19.870708 H          1 MOL1         0.0947
       7    H5      19.278957   20.278840   20.668582 H          1 MOL1         0.0947
       8    C3      18.503536   18.710217   21.985768 C.3        1 MOL1        -0.1437
       9    H6      17.489540   18.521384   21.607166 H          1 MOL1         0.0947
      10    H7      18.859855   17.738942   22.352835 H          1 MOL1         0.0947
      11    C4      18.370953   19.727927   23.150879 C.3        1 MOL1        -0.1437
      12    H8      17.605411   19.363138   23.848247 H          1 MOL1         0.0947
      13    H9      17.973422   20.671523   22.752862 H          1 MOL1         0.0947
      14    C5      19.668551   20.032450   23.943251 C.3        1 MOL1        -0.1437
      15    H10     20.384215   20.541201   23.285890 H          1 MOL1         0.0947
      16    H11     19.433831   20.764786   24.726969 H          1 MOL1         0.0947
      17    C6      20.350728   18.796179   24.589333 C.3        1 MOL1        -0.1437
      18    H12     21.253878   19.128345   25.118287 H          1 MOL1         0.0947
      19    H13     20.706493   18.118407   23.802986 H          1 MOL1         0.0947
      20    C7      19.451119   17.995642   25.566818 C.3        1 MOL1        -0.1477
      21    H14     18.627107   17.529837   25.011431 H          1 MOL1         0.0947
      22    H15     20.030900   17.167284   25.994897 H          1 MOL1         0.0947
      23    C8      18.862240   18.843720   26.711654 C.3        1 MOL1         0.0145
      24    H16     18.216723   18.217620   27.333509 H          1 MOL1         0.0921
      25    H17     18.254996   19.652364   26.296744 H          1 MOL1         0.0921
      26    N1      19.914377   19.459951   27.611845 N.4        1 MOL1        -0.5969
      27    H18     19.494334   20.016026   28.364594 H          1 MOL1         0.3603
      28    H19     20.539320   20.081341   27.088927 H          1 MOL1         0.3603
      29    H20     20.499483   18.745144   28.056509 H          1 MOL1         0.3603
@<TRIPOS>BOND
    1     1     2    1
    2     1     3    1
    3     1     4    1
    4     1     5    1
    5     5     6    1
    6     5     7    1
    7     5     8    1
    8     8     9    1
    9     8    10    1
   10     8    11    1
   11    11    12    1
   12    11    13    1
   13    11    14    1
   14    14    15    1
   15    14    16    1
   16    14    17    1
   17    17    18    1
   18    17    19    1
   19    17    20    1
   20    20    21    1
   21    20    22    1
   22    20    23    1
   23    23    24    1
   24    23    25    1
   25    23    26    1
   26    26    27    1
   27    26    28    1
   28    26    29    1
@<TRIPOS>SUBSTRUCTURE
       1 MOL1            1 RESIDUE      1      MOL     
@<SCITEGIC>MOL_PROPERTY
VM2 Rank
SciTegic.value.IntegerValue
397

@<SCITEGIC>MOL_PROPERTY
Conf_Id
SciTegic.value.IntegerValue
678

@<SCITEGIC>MOL_PROPERTY
Probability
SciTegic.value.DoubleValue
0.00

@<SCITEGIC>MOL_PROPERTY
Sum Probability
SciTegic.value.DoubleValue
99.99

@<SCITEGIC>MOL_PROPERTY
Delta G
SciTegic.value.DoubleValue
5.578

@<SCITEGIC>MOL_PROPERTY
G
SciTegic.value.DoubleValue
63.726

@<SCITEGIC>MOL_PROPERTY
E
SciTegic.value.DoubleValue
25.051

@<SCITEGIC>MOL_PROPERTY
-TS
SciTegic.value.DoubleValue
38.675

@<SCITEGIC>MOL_PROPERTY
U+W
SciTegic.value.DoubleValue
0.906

@<SCITEGIC>MOL_PROPERTY
U
SciTegic.value.DoubleValue
53.259

@<SCITEGIC>MOL_PROPERTY
W
SciTegic.value.DoubleValue
-52.353

@<SCITEGIC>MOL_PROPERTY
W(PB)
SciTegic.value.DoubleValue
-54.704

@<SCITEGIC>MOL_PROPERTY
W(SA)
SciTegic.value.DoubleValue
2.351

@<SCITEGIC>MOL_PROPERTY
Valence
SciTegic.value.DoubleValue
6.969

@<SCITEGIC>MOL_PROPERTY
Coulomb
SciTegic.value.DoubleValue
45.821

@<SCITEGIC>MOL_PROPERTY
VdW
SciTegic.value.DoubleValue
0.469

@<SCITEGIC>MOL_PROPERTY
VdW6
SciTegic.value.DoubleValue
-12.141

@<SCITEGIC>MOL_PROPERTY
VdW12
SciTegic.value.DoubleValue
12.611

@<SCITEGIC>MOL_PROPERTY
Bond
SciTegic.value.DoubleValue
0.375

@<SCITEGIC>MOL_PROPERTY
Angle
SciTegic.value.DoubleValue
2.470

@<SCITEGIC>MOL_PROPERTY
Pdih
SciTegic.value.DoubleValue
4.124

@<SCITEGIC>MOL_PROPERTY
Idih
SciTegic.value.DoubleValue
0.000

@<SCITEGIC>MOL_PROPERTY
Tether
SciTegic.value.DoubleValue
0.000

@<TRIPOS>MOLECULE
guest-3_vm2.mol2 : vm2 ligand conformer 398
          29          28           1
SMALL
USER_CHARGES
 
@<TRIPOS>ATOM
       1    C1      21.293974   19.077774   21.671083 C.3        1 MOL1        -0.2427
       2    H1      22.166383   19.051307   21.005465 H          1 MOL1         0.0958
       3    H2      21.180168   20.111730   22.018870 H          1 MOL1         0.0958
       4    H3      21.511502   18.437895   22.535750 H          1 MOL1         0.0958
       5    C2      20.031472   18.596206   20.923842 C.3        1 MOL1        -0.1412
       6    H4      20.255537   17.635962   20.438628 H          1 MOL1         0.0947
       7    H5      19.797471   19.299282   20.112311 H          1 MOL1         0.0947
       8    C3      18.785540   18.409761   21.826869 C.3        1 MOL1        -0.1437
       9    H6      17.979566   18.012161   21.194798 H          1 MOL1         0.0947
      10    H7      18.981659   17.631340   22.573931 H          1 MOL1         0.0947
      11    C4      18.268101   19.711543   22.498226 C.3        1 MOL1        -0.1437
      12    H8      17.171848   19.667760   22.556833 H          1 MOL1         0.0947
      13    H9      18.492461   20.568994   21.849098 H          1 MOL1         0.0947
      14    C5      18.820001   19.983301   23.922075 C.3        1 MOL1        -0.1437
      15    H10     19.914890   19.956805   23.913812 H          1 MOL1         0.0947
      16    H11     18.541675   21.006337   24.210067 H          1 MOL1         0.0947
      17    C6      18.271704   19.002710   24.990067 C.3        1 MOL1        -0.1437
      18    H12     18.576382   17.974679   24.759663 H          1 MOL1         0.0947
      19    H13     17.173646   19.009679   24.955097 H          1 MOL1         0.0947
      20    C7      18.720470   19.362181   26.428675 C.3        1 MOL1        -0.1477
      21    H14     18.327887   20.352784   26.694027 H          1 MOL1         0.0947
      22    H15     18.269496   18.654465   27.136874 H          1 MOL1         0.0947
      23    C8      20.250145   19.367244   26.625159 C.3        1 MOL1         0.0145
      24    H16     20.483097   19.645100   27.656658 H          1 MOL1         0.0921
      25    H17     20.705493   20.108174   25.963118 H          1 MOL1         0.0921
      26    N1      20.902592   18.027280   26.349004 N.4        1 MOL1        -0.5969
      27    H18     20.536564   17.293310   26.964271 H          1 MOL1         0.3603
      28    H19     21.917842   18.061097   26.492463 H          1 MOL1         0.3603
      29    H20     20.742320   17.723272   25.383642 H          1 MOL1         0.3603
@<TRIPOS>BOND
    1     1     2    1
    2     1     3    1
    3     1     4    1
    4     1     5    1
    5     5     6    1
    6     5     7    1
    7     5     8    1
    8     8     9    1
    9     8    10    1
   10     8    11    1
   11    11    12    1
   12    11    13    1
   13    11    14    1
   14    14    15    1
   15    14    16    1
   16    14    17    1
   17    17    18    1
   18    17    19    1
   19    17    20    1
   20    20    21    1
   21    20    22    1
   22    20    23    1
   23    23    24    1
   24    23    25    1
   25    23    26    1
   26    26    27    1
   27    26    28    1
   28    26    29    1
@<TRIPOS>SUBSTRUCTURE
       1 MOL1            1 RESIDUE      1      MOL     
@<SCITEGIC>MOL_PROPERTY
VM2 Rank
SciTegic.value.IntegerValue
398

@<SCITEGIC>MOL_PROPERTY
Conf_Id
SciTegic.value.IntegerValue
1046

@<SCITEGIC>MOL_PROPERTY
Probability
SciTegic.value.DoubleValue
0.00

@<SCITEGIC>MOL_PROPERTY
Sum Probability
SciTegic.value.DoubleValue
99.99

@<SCITEGIC>MOL_PROPERTY
Delta G
SciTegic.value.DoubleValue
5.639

@<SCITEGIC>MOL_PROPERTY
G
SciTegic.value.DoubleValue
63.787

@<SCITEGIC>MOL_PROPERTY
E
SciTegic.value.DoubleValue
25.933

@<SCITEGIC>MOL_PROPERTY
-TS
SciTegic.value.DoubleValue
37.854

@<SCITEGIC>MOL_PROPERTY
U+W
SciTegic.value.DoubleValue
1.789

@<SCITEGIC>MOL_PROPERTY
U
SciTegic.value.DoubleValue
54.110

@<SCITEGIC>MOL_PROPERTY
W
SciTegic.value.DoubleValue
-52.321

@<SCITEGIC>MOL_PROPERTY
W(PB)
SciTegic.value.DoubleValue
-54.666

@<SCITEGIC>MOL_PROPERTY
W(SA)
SciTegic.value.DoubleValue
2.345

@<SCITEGIC>MOL_PROPERTY
Valence
SciTegic.value.DoubleValue
6.622

@<SCITEGIC>MOL_PROPERTY
Coulomb
SciTegic.value.DoubleValue
46.675

@<SCITEGIC>MOL_PROPERTY
VdW
SciTegic.value.DoubleValue
0.813

@<SCITEGIC>MOL_PROPERTY
VdW6
SciTegic.value.DoubleValue
-10.694

@<SCITEGIC>MOL_PROPERTY
VdW12
SciTegic.value.DoubleValue
11.507

@<SCITEGIC>MOL_PROPERTY
Bond
SciTegic.value.DoubleValue
0.337

@<SCITEGIC>MOL_PROPERTY
Angle
SciTegic.value.DoubleValue
1.733

@<SCITEGIC>MOL_PROPERTY
Pdih
SciTegic.value.DoubleValue
4.552

@<SCITEGIC>MOL_PROPERTY
Idih
SciTegic.value.DoubleValue
0.000

@<SCITEGIC>MOL_PROPERTY
Tether
SciTegic.value.DoubleValue
0.000

@<TRIPOS>MOLECULE
guest-3_vm2.mol2 : vm2 ligand conformer 399
          29          28           1
SMALL
USER_CHARGES
 
@<TRIPOS>ATOM
       1    C1      20.428370   19.687407   20.641759 C.3        1 MOL1        -0.2427
       2    H1      19.491777   20.258141   20.670624 H          1 MOL1         0.0958
       3    H2      21.210883   20.356506   20.261237 H          1 MOL1         0.0958
       4    H3      20.310046   18.865511   19.923834 H          1 MOL1         0.0958
       5    C2      20.806974   19.152737   22.041137 C.3        1 MOL1        -0.1412
       6    H4      20.893708   19.991010   22.743801 H          1 MOL1         0.0947
       7    H5      21.809033   18.704854   21.987456 H          1 MOL1         0.0947
       8    C3      19.821870   18.085136   22.584454 C.3        1 MOL1        -0.1437
       9    H6      19.868318   17.206855   21.926105 H          1 MOL1         0.0947
      10    H7      20.182221   17.735812   23.557950 H          1 MOL1         0.0947
      11    C4      18.336531   18.530899   22.690629 C.3        1 MOL1        -0.1437
      12    H8      17.724931   17.675972   23.009506 H          1 MOL1         0.0947
      13    H9      17.977044   18.776115   21.682700 H          1 MOL1         0.0947
      14    C5      18.051637   19.740880   23.622885 C.3        1 MOL1        -0.1437
      15    H10     18.868682   20.470699   23.588994 H          1 MOL1         0.0947
      16    H11     17.181195   20.273046   23.215108 H          1 MOL1         0.0947
      17    C6      17.707921   19.373084   25.091810 C.3        1 MOL1        -0.1437
      18    H12     16.811648   18.737714   25.102280 H          1 MOL1         0.0947
      19    H13     17.426954   20.293386   25.622377 H          1 MOL1         0.0947
      20    C7      18.828976   18.668402   25.891717 C.3        1 MOL1        -0.1477
      21    H14     18.477928   18.503146   26.918948 H          1 MOL1         0.0947
      22    H15     19.018205   17.672890   25.472831 H          1 MOL1         0.0947
      23    C8      20.133074   19.485818   25.934547 C.3        1 MOL1         0.0145
      24    H16     19.939074   20.464730   26.381069 H          1 MOL1         0.0921
      25    H17     20.505663   19.638424   24.918912 H          1 MOL1         0.0921
      26    N1      21.228649   18.813636   26.736061 N.4        1 MOL1        -0.5969
      27    H18     21.476133   17.896216   26.351256 H          1 MOL1         0.3603
      28    H19     20.950709   18.666729   27.712054 H          1 MOL1         0.3603
      29    H20     22.087772   19.374117   26.751583 H          1 MOL1         0.3603
@<TRIPOS>BOND
    1     1     2    1
    2     1     3    1
    3     1     4    1
    4     1     5    1
    5     5     6    1
    6     5     7    1
    7     5     8    1
    8     8     9    1
    9     8    10    1
   10     8    11    1
   11    11    12    1
   12    11    13    1
   13    11    14    1
   14    14    15    1
   15    14    16    1
   16    14    17    1
   17    17    18    1
   18    17    19    1
   19    17    20    1
   20    20    21    1
   21    20    22    1
   22    20    23    1
   23    23    24    1
   24    23    25    1
   25    23    26    1
   26    26    27    1
   27    26    28    1
   28    26    29    1
@<TRIPOS>SUBSTRUCTURE
       1 MOL1            1 RESIDUE      1      MOL     
@<SCITEGIC>MOL_PROPERTY
VM2 Rank
SciTegic.value.IntegerValue
399

@<SCITEGIC>MOL_PROPERTY
Conf_Id
SciTegic.value.IntegerValue
1052

@<SCITEGIC>MOL_PROPERTY
Probability
SciTegic.value.DoubleValue
0.00

@<SCITEGIC>MOL_PROPERTY
Sum Probability
SciTegic.value.DoubleValue
99.99

@<SCITEGIC>MOL_PROPERTY
Delta G
SciTegic.value.DoubleValue
5.786

@<SCITEGIC>MOL_PROPERTY
G
SciTegic.value.DoubleValue
63.934

@<SCITEGIC>MOL_PROPERTY
E
SciTegic.value.DoubleValue
25.347

@<SCITEGIC>MOL_PROPERTY
-TS
SciTegic.value.DoubleValue
38.587

@<SCITEGIC>MOL_PROPERTY
U+W
SciTegic.value.DoubleValue
1.203

@<SCITEGIC>MOL_PROPERTY
U
SciTegic.value.DoubleValue
54.263

@<SCITEGIC>MOL_PROPERTY
W
SciTegic.value.DoubleValue
-53.061

@<SCITEGIC>MOL_PROPERTY
W(PB)
SciTegic.value.DoubleValue
-55.397

@<SCITEGIC>MOL_PROPERTY
W(SA)
SciTegic.value.DoubleValue
2.336

@<SCITEGIC>MOL_PROPERTY
Valence
SciTegic.value.DoubleValue
7.144

@<SCITEGIC>MOL_PROPERTY
Coulomb
SciTegic.value.DoubleValue
46.792

@<SCITEGIC>MOL_PROPERTY
VdW
SciTegic.value.DoubleValue
0.327

@<SCITEGIC>MOL_PROPERTY
VdW6
SciTegic.value.DoubleValue
-11.742

@<SCITEGIC>MOL_PROPERTY
VdW12
SciTegic.value.DoubleValue
12.069

@<SCITEGIC>MOL_PROPERTY
Bond
SciTegic.value.DoubleValue
0.380

@<SCITEGIC>MOL_PROPERTY
Angle
SciTegic.value.DoubleValue
2.687

@<SCITEGIC>MOL_PROPERTY
Pdih
SciTegic.value.DoubleValue
4.078

@<SCITEGIC>MOL_PROPERTY
Idih
SciTegic.value.DoubleValue
0.000

@<SCITEGIC>MOL_PROPERTY
Tether
SciTegic.value.DoubleValue
0.000

@<TRIPOS>MOLECULE
guest-3_vm2.mol2 : vm2 ligand conformer 400
          29          28           1
SMALL
USER_CHARGES
 
@<TRIPOS>ATOM
       1    C1      20.284809   17.768926   20.313408 C.3        1 MOL1        -0.2427
       2    H1      19.871621   17.068330   19.576194 H          1 MOL1         0.0958
       3    H2      20.747720   18.600196   19.765716 H          1 MOL1         0.0958
       4    H3      21.072713   17.245705   20.870743 H          1 MOL1         0.0958
       5    C2      19.178185   18.277580   21.261222 C.3        1 MOL1        -0.1412
       6    H4      18.712063   17.421857   21.769407 H          1 MOL1         0.0947
       7    H5      18.388664   18.764007   20.671337 H          1 MOL1         0.0947
       8    C3      19.733021   19.268732   22.307883 C.3        1 MOL1        -0.1437
       9    H6      20.534005   18.777591   22.872850 H          1 MOL1         0.0947
      10    H7      20.189169   20.125634   21.793151 H          1 MOL1         0.0947
      11    C4      18.623887   19.772641   23.263208 C.3        1 MOL1        -0.1437
      12    H8      18.156535   18.924516   23.773822 H          1 MOL1         0.0947
      13    H9      17.826221   20.226936   22.659330 H          1 MOL1         0.0947
      14    C5      19.111623   20.834092   24.284841 C.3        1 MOL1        -0.1437
      15    H10     19.533523   21.676021   23.718704 H          1 MOL1         0.0947
      16    H11     18.245483   21.246563   24.820223 H          1 MOL1         0.0947
      17    C6      20.172232   20.362503   25.318081 C.3        1 MOL1        -0.1437
      18    H12     20.705000   21.256211   25.671267 H          1 MOL1         0.0947
      19    H13     20.943286   19.745168   24.843055 H          1 MOL1         0.0947
      20    C7      19.602111   19.651553   26.574989 C.3        1 MOL1        -0.1477
      21    H14     20.423609   19.475887   27.282152 H          1 MOL1         0.0947
      22    H15     18.903739   20.326514   27.087212 H          1 MOL1         0.0947
      23    C8      18.888850   18.310846   26.315117 C.3        1 MOL1         0.0145
      24    H16     17.987451   18.479567   25.722327 H          1 MOL1         0.0921
      25    H17     18.583755   17.874087   27.269888 H          1 MOL1         0.0921
      26    N1      19.749282   17.291126   25.596251 N.4        1 MOL1        -0.5969
      27    H18     20.036280   17.632518   24.673717 H          1 MOL1         0.3603
      28    H19     19.251465   16.405343   25.454238 H          1 MOL1         0.3603
      29    H20     20.601845   17.076098   26.123830 H          1 MOL1         0.3603
@<TRIPOS>BOND
    1     1     2    1
    2     1     3    1
    3     1     4    1
    4     1     5    1
    5     5     6    1
    6     5     7    1
    7     5     8    1
    8     8     9    1
    9     8    10    1
   10     8    11    1
   11    11    12    1
   12    11    13    1
   13    11    14    1
   14    14    15    1
   15    14    16    1
   16    14    17    1
   17    17    18    1
   18    17    19    1
   19    17    20    1
   20    20    21    1
   21    20    22    1
   22    20    23    1
   23    23    24    1
   24    23    25    1
   25    23    26    1
   26    26    27    1
   27    26    28    1
   28    26    29    1
@<TRIPOS>SUBSTRUCTURE
       1 MOL1            1 RESIDUE      1      MOL     
@<SCITEGIC>MOL_PROPERTY
VM2 Rank
SciTegic.value.IntegerValue
400

@<SCITEGIC>MOL_PROPERTY
Conf_Id
SciTegic.value.IntegerValue
665

@<SCITEGIC>MOL_PROPERTY
Probability
SciTegic.value.DoubleValue
0.00

@<SCITEGIC>MOL_PROPERTY
Sum Probability
SciTegic.value.DoubleValue
99.99

@<SCITEGIC>MOL_PROPERTY
Delta G
SciTegic.value.DoubleValue
5.797

@<SCITEGIC>MOL_PROPERTY
G
SciTegic.value.DoubleValue
63.945

@<SCITEGIC>MOL_PROPERTY
E
SciTegic.value.DoubleValue
25.837

@<SCITEGIC>MOL_PROPERTY
-TS
SciTegic.value.DoubleValue
38.107

@<SCITEGIC>MOL_PROPERTY
U+W
SciTegic.value.DoubleValue
1.693

@<SCITEGIC>MOL_PROPERTY
U
SciTegic.value.DoubleValue
53.627

@<SCITEGIC>MOL_PROPERTY
W
SciTegic.value.DoubleValue
-51.934

@<SCITEGIC>MOL_PROPERTY
W(PB)
SciTegic.value.DoubleValue
-54.338

@<SCITEGIC>MOL_PROPERTY
W(SA)
SciTegic.value.DoubleValue
2.404

@<SCITEGIC>MOL_PROPERTY
Valence
SciTegic.value.DoubleValue
5.968

@<SCITEGIC>MOL_PROPERTY
Coulomb
SciTegic.value.DoubleValue
47.262

@<SCITEGIC>MOL_PROPERTY
VdW
SciTegic.value.DoubleValue
0.397

@<SCITEGIC>MOL_PROPERTY
VdW6
SciTegic.value.DoubleValue
-10.683

@<SCITEGIC>MOL_PROPERTY
VdW12
SciTegic.value.DoubleValue
11.080

@<SCITEGIC>MOL_PROPERTY
Bond
SciTegic.value.DoubleValue
0.323

@<SCITEGIC>MOL_PROPERTY
Angle
SciTegic.value.DoubleValue
2.218

@<SCITEGIC>MOL_PROPERTY
Pdih
SciTegic.value.DoubleValue
3.427

@<SCITEGIC>MOL_PROPERTY
Idih
SciTegic.value.DoubleValue
0.000

@<SCITEGIC>MOL_PROPERTY
Tether
SciTegic.value.DoubleValue
0.000

@<TRIPOS>MOLECULE
guest-3_vm2.mol2 : vm2 ligand conformer 401
          29          28           1
SMALL
USER_CHARGES
 
@<TRIPOS>ATOM
       1    C1      21.265211   18.322908   21.700671 C.3        1 MOL1        -0.2427
       2    H1      21.154212   18.177141   20.618369 H          1 MOL1         0.0958
       3    H2      22.339168   18.348916   21.926015 H          1 MOL1         0.0958
       4    H3      20.843800   17.447522   22.208807 H          1 MOL1         0.0958
       5    C2      20.586204   19.634831   22.156229 C.3        1 MOL1        -0.1412
       6    H4      21.122315   20.478574   21.699874 H          1 MOL1         0.0947
       7    H5      20.706678   19.754546   23.237958 H          1 MOL1         0.0947
       8    C3      19.092434   19.730199   21.750620 C.3        1 MOL1        -0.1437
       9    H6      18.728393   20.750389   21.933523 H          1 MOL1         0.0947
      10    H7      19.029093   19.587914   20.662987 H          1 MOL1         0.0947
      11    C4      18.139363   18.712114   22.436036 C.3        1 MOL1        -0.1437
      12    H8      18.639462   17.752553   22.609907 H          1 MOL1         0.0947
      13    H9      17.332780   18.486094   21.725097 H          1 MOL1         0.0947
      14    C5      17.463401   19.220936   23.738219 C.3        1 MOL1        -0.1437
      15    H10     16.890986   20.130183   23.508701 H          1 MOL1         0.0947
      16    H11     16.720900   18.477102   24.058464 H          1 MOL1         0.0947
      17    C6      18.409153   19.516690   24.928279 C.3        1 MOL1        -0.1437
      18    H12     17.802605   19.890431   25.764796 H          1 MOL1         0.0947
      19    H13     19.088745   20.335612   24.665058 H          1 MOL1         0.0947
      20    C7      19.201634   18.274514   25.406900 C.3        1 MOL1        -0.1477
      21    H14     18.498369   17.461660   25.631158 H          1 MOL1         0.0947
      22    H15     19.861210   17.905770   24.612142 H          1 MOL1         0.0947
      23    C8      20.039540   18.556938   26.668206 C.3        1 MOL1         0.0145
      24    H16     20.502395   17.627982   27.012142 H          1 MOL1         0.0921
      25    H17     19.390830   18.930443   27.465080 H          1 MOL1         0.0921
      26    N1      21.147060   19.568870   26.449840 N.4        1 MOL1        -0.5969
      27    H18     21.689566   19.727737   27.306049 H          1 MOL1         0.3603
      28    H19     20.776418   20.478042   26.156450 H          1 MOL1         0.3603
      29    H20     21.807583   19.260005   25.729291 H          1 MOL1         0.3603
@<TRIPOS>BOND
    1     1     2    1
    2     1     3    1
    3     1     4    1
    4     1     5    1
    5     5     6    1
    6     5     7    1
    7     5     8    1
    8     8     9    1
    9     8    10    1
   10     8    11    1
   11    11    12    1
   12    11    13    1
   13    11    14    1
   14    14    15    1
   15    14    16    1
   16    14    17    1
   17    17    18    1
   18    17    19    1
   19    17    20    1
   20    20    21    1
   21    20    22    1
   22    20    23    1
   23    23    24    1
   24    23    25    1
   25    23    26    1
   26    26    27    1
   27    26    28    1
   28    26    29    1
@<TRIPOS>SUBSTRUCTURE
       1 MOL1            1 RESIDUE      1      MOL     
@<SCITEGIC>MOL_PROPERTY
VM2 Rank
SciTegic.value.IntegerValue
401

@<SCITEGIC>MOL_PROPERTY
Conf_Id
SciTegic.value.IntegerValue
1012

@<SCITEGIC>MOL_PROPERTY
Probability
SciTegic.value.DoubleValue
0.00

@<SCITEGIC>MOL_PROPERTY
Sum Probability
SciTegic.value.DoubleValue
99.99

@<SCITEGIC>MOL_PROPERTY
Delta G
SciTegic.value.DoubleValue
5.813

@<SCITEGIC>MOL_PROPERTY
G
SciTegic.value.DoubleValue
63.961

@<SCITEGIC>MOL_PROPERTY
E
SciTegic.value.DoubleValue
25.472

@<SCITEGIC>MOL_PROPERTY
-TS
SciTegic.value.DoubleValue
38.489

@<SCITEGIC>MOL_PROPERTY
U+W
SciTegic.value.DoubleValue
1.327

@<SCITEGIC>MOL_PROPERTY
U
SciTegic.value.DoubleValue
54.256

@<SCITEGIC>MOL_PROPERTY
W
SciTegic.value.DoubleValue
-52.929

@<SCITEGIC>MOL_PROPERTY
W(PB)
SciTegic.value.DoubleValue
-55.260

@<SCITEGIC>MOL_PROPERTY
W(SA)
SciTegic.value.DoubleValue
2.331

@<SCITEGIC>MOL_PROPERTY
Valence
SciTegic.value.DoubleValue
6.980

@<SCITEGIC>MOL_PROPERTY
Coulomb
SciTegic.value.DoubleValue
46.910

@<SCITEGIC>MOL_PROPERTY
VdW
SciTegic.value.DoubleValue
0.366

@<SCITEGIC>MOL_PROPERTY
VdW6
SciTegic.value.DoubleValue
-11.452

@<SCITEGIC>MOL_PROPERTY
VdW12
SciTegic.value.DoubleValue
11.817

@<SCITEGIC>MOL_PROPERTY
Bond
SciTegic.value.DoubleValue
0.358

@<SCITEGIC>MOL_PROPERTY
Angle
SciTegic.value.DoubleValue
2.354

@<SCITEGIC>MOL_PROPERTY
Pdih
SciTegic.value.DoubleValue
4.267

@<SCITEGIC>MOL_PROPERTY
Idih
SciTegic.value.DoubleValue
0.000

@<SCITEGIC>MOL_PROPERTY
Tether
SciTegic.value.DoubleValue
0.000

@<TRIPOS>MOLECULE
guest-3_vm2.mol2 : vm2 ligand conformer 402
          29          28           1
SMALL
USER_CHARGES
 
@<TRIPOS>ATOM
       1    C1      20.715086   18.266685   20.184708 C.3        1 MOL1        -0.2427
       2    H1      21.209803   19.144029   19.747935 H          1 MOL1         0.0958
       3    H2      21.401544   17.414558   20.096975 H          1 MOL1         0.0958
       4    H3      19.822602   18.043745   19.585511 H          1 MOL1         0.0958
       5    C2      20.342821   18.516872   21.661307 C.3        1 MOL1        -0.1412
       6    H4      21.258476   18.708086   22.237683 H          1 MOL1         0.0947
       7    H5      19.888436   17.605439   22.071438 H          1 MOL1         0.0947
       8    C3      19.372405   19.712751   21.807958 C.3        1 MOL1        -0.1437
       9    H6      19.818216   20.593966   21.326216 H          1 MOL1         0.0947
      10    H7      18.440691   19.503604   21.264414 H          1 MOL1         0.0947
      11    C4      19.046977   20.070277   23.278500 C.3        1 MOL1        -0.1437
      12    H8      18.466815   21.003284   23.289244 H          1 MOL1         0.0947
      13    H9      19.981115   20.286398   23.811393 H          1 MOL1         0.0947
      14    C5      18.237434   18.972347   24.014357 C.3        1 MOL1        -0.1437
      15    H10     17.333373   18.751862   23.430103 H          1 MOL1         0.0947
      16    H11     18.797591   18.031560   24.055802 H          1 MOL1         0.0947
      17    C6      17.800661   19.382181   25.443666 C.3        1 MOL1        -0.1437
      18    H12     17.191670   18.572707   25.869359 H          1 MOL1         0.0947
      19    H13     17.132235   20.251250   25.371893 H          1 MOL1         0.0947
      20    C7      18.944727   19.719742   26.437172 C.3        1 MOL1        -0.1477
      21    H14     19.511013   20.597161   26.099867 H          1 MOL1         0.0947
      22    H15     18.483023   20.014711   27.388781 H          1 MOL1         0.0947
      23    C8      19.902711   18.545736   26.727308 C.3        1 MOL1         0.0145
      24    H16     19.332363   17.617128   26.814516 H          1 MOL1         0.0921
      25    H17     20.409782   18.723409   27.679537 H          1 MOL1         0.0921
      26    N1      20.981178   18.351409   25.680024 N.4        1 MOL1        -0.5969
      27    H18     20.576902   18.214707   24.748651 H          1 MOL1         0.3603
      28    H19     21.568192   17.535299   25.885774 H          1 MOL1         0.3603
      29    H20     21.604945   19.163397   25.626314 H          1 MOL1         0.3603
@<TRIPOS>BOND
    1     1     2    1
    2     1     3    1
    3     1     4    1
    4     1     5    1
    5     5     6    1
    6     5     7    1
    7     5     8    1
    8     8     9    1
    9     8    10    1
   10     8    11    1
   11    11    12    1
   12    11    13    1
   13    11    14    1
   14    14    15    1
   15    14    16    1
   16    14    17    1
   17    17    18    1
   18    17    19    1
   19    17    20    1
   20    20    21    1
   21    20    22    1
   22    20    23    1
   23    23    24    1
   24    23    25    1
   25    23    26    1
   26    26    27    1
   27    26    28    1
   28    26    29    1
@<TRIPOS>SUBSTRUCTURE
       1 MOL1            1 RESIDUE      1      MOL     
@<SCITEGIC>MOL_PROPERTY
VM2 Rank
SciTegic.value.IntegerValue
402

@<SCITEGIC>MOL_PROPERTY
Conf_Id
SciTegic.value.IntegerValue
1290

@<SCITEGIC>MOL_PROPERTY
Probability
SciTegic.value.DoubleValue
0.00

@<SCITEGIC>MOL_PROPERTY
Sum Probability
SciTegic.value.DoubleValue
99.99

@<SCITEGIC>MOL_PROPERTY
Delta G
SciTegic.value.DoubleValue
5.831

@<SCITEGIC>MOL_PROPERTY
G
SciTegic.value.DoubleValue
63.979

@<SCITEGIC>MOL_PROPERTY
E
SciTegic.value.DoubleValue
25.842

@<SCITEGIC>MOL_PROPERTY
-TS
SciTegic.value.DoubleValue
38.137

@<SCITEGIC>MOL_PROPERTY
U+W
SciTegic.value.DoubleValue
1.697

@<SCITEGIC>MOL_PROPERTY
U
SciTegic.value.DoubleValue
53.453

@<SCITEGIC>MOL_PROPERTY
W
SciTegic.value.DoubleValue
-51.756

@<SCITEGIC>MOL_PROPERTY
W(PB)
SciTegic.value.DoubleValue
-54.157

@<SCITEGIC>MOL_PROPERTY
W(SA)
SciTegic.value.DoubleValue
2.400

@<SCITEGIC>MOL_PROPERTY
Valence
SciTegic.value.DoubleValue
5.150

@<SCITEGIC>MOL_PROPERTY
Coulomb
SciTegic.value.DoubleValue
47.943

@<SCITEGIC>MOL_PROPERTY
VdW
SciTegic.value.DoubleValue
0.360

@<SCITEGIC>MOL_PROPERTY
VdW6
SciTegic.value.DoubleValue
-10.799

@<SCITEGIC>MOL_PROPERTY
VdW12
SciTegic.value.DoubleValue
11.160

@<SCITEGIC>MOL_PROPERTY
Bond
SciTegic.value.DoubleValue
0.287

@<SCITEGIC>MOL_PROPERTY
Angle
SciTegic.value.DoubleValue
1.683

@<SCITEGIC>MOL_PROPERTY
Pdih
SciTegic.value.DoubleValue
3.180

@<SCITEGIC>MOL_PROPERTY
Idih
SciTegic.value.DoubleValue
0.000

@<SCITEGIC>MOL_PROPERTY
Tether
SciTegic.value.DoubleValue
0.000

@<TRIPOS>MOLECULE
guest-3_vm2.mol2 : vm2 ligand conformer 403
          29          28           1
SMALL
USER_CHARGES
 
@<TRIPOS>ATOM
       1    C1      19.420822   19.532299   20.196164 C.3        1 MOL1        -0.2427
       2    H1      20.390693   19.950654   19.897401 H          1 MOL1         0.0958
       3    H2      18.834053   19.359035   19.284846 H          1 MOL1         0.0958
       4    H3      18.890213   20.284869   20.792658 H          1 MOL1         0.0958
       5    C2      19.603194   18.213960   20.981455 C.3        1 MOL1        -0.1412
       6    H4      20.028693   17.457344   20.307584 H          1 MOL1         0.0947
       7    H5      18.622518   17.825393   21.286740 H          1 MOL1         0.0947
       8    C3      20.532587   18.354056   22.213951 C.3        1 MOL1        -0.1437
       9    H6      20.631829   17.371278   22.694559 H          1 MOL1         0.0947
      10    H7      21.540364   18.621639   21.867597 H          1 MOL1         0.0947
      11    C4      20.080849   19.392658   23.273131 C.3        1 MOL1        -0.1437
      12    H8      20.080857   20.398763   22.833486 H          1 MOL1         0.0947
      13    H9      20.837353   19.415009   24.066722 H          1 MOL1         0.0947
      14    C5      18.686880   19.091045   23.879963 C.3        1 MOL1        -0.1437
      15    H10     17.933130   19.136420   23.083047 H          1 MOL1         0.0947
      16    H11     18.648942   18.064303   24.263582 H          1 MOL1         0.0947
      17    C6      18.260510   20.090629   24.985330 C.3        1 MOL1        -0.1437
      18    H12     17.241010   19.838335   25.308245 H          1 MOL1         0.0947
      19    H13     18.192868   21.094668   24.544273 H          1 MOL1         0.0947
      20    C7      19.173223   20.162293   26.239180 C.3        1 MOL1        -0.1477
      21    H14     20.171217   20.536293   25.978076 H          1 MOL1         0.0947
      22    H15     18.746824   20.912434   26.918294 H          1 MOL1         0.0947
      23    C8      19.287882   18.837004   27.020384 C.3        1 MOL1         0.0145
      24    H16     18.312697   18.344121   27.056259 H          1 MOL1         0.0921
      25    H17     19.598213   19.051228   28.046648 H          1 MOL1         0.0921
      26    N1      20.298053   17.864056   26.445442 N.4        1 MOL1        -0.5969
      27    H18     20.088220   17.641024   25.467709 H          1 MOL1         0.3603
      28    H19     20.314883   16.980367   26.966525 H          1 MOL1         0.3603
      29    H20     21.248888   18.246492   26.472948 H          1 MOL1         0.3603
@<TRIPOS>BOND
    1     1     2    1
    2     1     3    1
    3     1     4    1
    4     1     5    1
    5     5     6    1
    6     5     7    1
    7     5     8    1
    8     8     9    1
    9     8    10    1
   10     8    11    1
   11    11    12    1
   12    11    13    1
   13    11    14    1
   14    14    15    1
   15    14    16    1
   16    14    17    1
   17    17    18    1
   18    17    19    1
   19    17    20    1
   20    20    21    1
   21    20    22    1
   22    20    23    1
   23    23    24    1
   24    23    25    1
   25    23    26    1
   26    26    27    1
   27    26    28    1
   28    26    29    1
@<TRIPOS>SUBSTRUCTURE
       1 MOL1            1 RESIDUE      1      MOL     
@<SCITEGIC>MOL_PROPERTY
VM2 Rank
SciTegic.value.IntegerValue
403

@<SCITEGIC>MOL_PROPERTY
Conf_Id
SciTegic.value.IntegerValue
180

@<SCITEGIC>MOL_PROPERTY
Probability
SciTegic.value.DoubleValue
0.00

@<SCITEGIC>MOL_PROPERTY
Sum Probability
SciTegic.value.DoubleValue
99.99

@<SCITEGIC>MOL_PROPERTY
Delta G
SciTegic.value.DoubleValue
5.897

@<SCITEGIC>MOL_PROPERTY
G
SciTegic.value.DoubleValue
64.045

@<SCITEGIC>MOL_PROPERTY
E
SciTegic.value.DoubleValue
25.626

@<SCITEGIC>MOL_PROPERTY
-TS
SciTegic.value.DoubleValue
38.420

@<SCITEGIC>MOL_PROPERTY
U+W
SciTegic.value.DoubleValue
1.481

@<SCITEGIC>MOL_PROPERTY
U
SciTegic.value.DoubleValue
53.409

@<SCITEGIC>MOL_PROPERTY
W
SciTegic.value.DoubleValue
-51.928

@<SCITEGIC>MOL_PROPERTY
W(PB)
SciTegic.value.DoubleValue
-54.310

@<SCITEGIC>MOL_PROPERTY
W(SA)
SciTegic.value.DoubleValue
2.382

@<SCITEGIC>MOL_PROPERTY
Valence
SciTegic.value.DoubleValue
5.669

@<SCITEGIC>MOL_PROPERTY
Coulomb
SciTegic.value.DoubleValue
47.137

@<SCITEGIC>MOL_PROPERTY
VdW
SciTegic.value.DoubleValue
0.603

@<SCITEGIC>MOL_PROPERTY
VdW6
SciTegic.value.DoubleValue
-11.423

@<SCITEGIC>MOL_PROPERTY
VdW12
SciTegic.value.DoubleValue
12.027

@<SCITEGIC>MOL_PROPERTY
Bond
SciTegic.value.DoubleValue
0.335

@<SCITEGIC>MOL_PROPERTY
Angle
SciTegic.value.DoubleValue
2.177

@<SCITEGIC>MOL_PROPERTY
Pdih
SciTegic.value.DoubleValue
3.156

@<SCITEGIC>MOL_PROPERTY
Idih
SciTegic.value.DoubleValue
0.000

@<SCITEGIC>MOL_PROPERTY
Tether
SciTegic.value.DoubleValue
0.000

@<TRIPOS>MOLECULE
guest-3_vm2.mol2 : vm2 ligand conformer 404
          29          28           1
SMALL
USER_CHARGES
 
@<TRIPOS>ATOM
       1    C1      20.991236   19.040918   20.201781 C.3        1 MOL1        -0.2427
       2    H1      20.825251   18.066649   19.723770 H          1 MOL1         0.0958
       3    H2      20.449723   19.801718   19.624534 H          1 MOL1         0.0958
       4    H3      22.063126   19.269025   20.138047 H          1 MOL1         0.0958
       5    C2      20.523984   19.024650   21.672471 C.3        1 MOL1        -0.1412
       6    H4      20.743149   20.000813   22.124642 H          1 MOL1         0.0947
       7    H5      21.103817   18.274617   22.227846 H          1 MOL1         0.0947
       8    C3      19.013904   18.708080   21.785509 C.3        1 MOL1        -0.1437
       9    H6      18.432535   19.480858   21.263881 H          1 MOL1         0.0947
      10    H7      18.808216   17.763547   21.263098 H          1 MOL1         0.0947
      11    C4      18.515063   18.579411   23.245243 C.3        1 MOL1        -0.1437
      12    H8      19.093946   17.800028   23.755882 H          1 MOL1         0.0947
      13    H9      17.475319   18.224705   23.227340 H          1 MOL1         0.0947
      14    C5      18.572906   19.911608   24.035307 C.3        1 MOL1        -0.1437
      15    H10     19.601394   20.282784   24.106132 H          1 MOL1         0.0947
      16    H11     18.020991   20.677434   23.472998 H          1 MOL1         0.0947
      17    C6      17.955076   19.814672   25.453245 C.3        1 MOL1        -0.1437
      18    H12     16.888577   19.568829   25.356474 H          1 MOL1         0.0947
      19    H13     17.990140   20.809129   25.919245 H          1 MOL1         0.0947
      20    C7      18.612695   18.790059   26.416360 C.3        1 MOL1        -0.1477
      21    H14     18.055013   18.816544   27.361889 H          1 MOL1         0.0947
      22    H15     18.500382   17.766620   26.036519 H          1 MOL1         0.0947
      23    C8      20.093204   19.079744   26.739440 C.3        1 MOL1         0.0145
      24    H16     20.359590   18.583581   27.676611 H          1 MOL1         0.0921
      25    H17     20.238341   20.155245   26.871541 H          1 MOL1         0.0921
      26    N1      21.065930   18.588859   25.685643 N.4        1 MOL1        -0.5969
      27    H18     20.852929   18.987505   24.766244 H          1 MOL1         0.3603
      28    H19     21.035429   17.568380   25.590842 H          1 MOL1         0.3603
      29    H20     22.033963   18.839963   25.915457 H          1 MOL1         0.3603
@<TRIPOS>BOND
    1     1     2    1
    2     1     3    1
    3     1     4    1
    4     1     5    1
    5     5     6    1
    6     5     7    1
    7     5     8    1
    8     8     9    1
    9     8    10    1
   10     8    11    1
   11    11    12    1
   12    11    13    1
   13    11    14    1
   14    14    15    1
   15    14    16    1
   16    14    17    1
   17    17    18    1
   18    17    19    1
   19    17    20    1
   20    20    21    1
   21    20    22    1
   22    20    23    1
   23    23    24    1
   24    23    25    1
   25    23    26    1
   26    26    27    1
   27    26    28    1
   28    26    29    1
@<TRIPOS>SUBSTRUCTURE
       1 MOL1            1 RESIDUE      1      MOL     
@<SCITEGIC>MOL_PROPERTY
VM2 Rank
SciTegic.value.IntegerValue
404

@<SCITEGIC>MOL_PROPERTY
Conf_Id
SciTegic.value.IntegerValue
2237

@<SCITEGIC>MOL_PROPERTY
Probability
SciTegic.value.DoubleValue
0.00

@<SCITEGIC>MOL_PROPERTY
Sum Probability
SciTegic.value.DoubleValue
99.99

@<SCITEGIC>MOL_PROPERTY
Delta G
SciTegic.value.DoubleValue
5.906

@<SCITEGIC>MOL_PROPERTY
G
SciTegic.value.DoubleValue
64.054

@<SCITEGIC>MOL_PROPERTY
E
SciTegic.value.DoubleValue
25.916

@<SCITEGIC>MOL_PROPERTY
-TS
SciTegic.value.DoubleValue
38.137

@<SCITEGIC>MOL_PROPERTY
U+W
SciTegic.value.DoubleValue
1.772

@<SCITEGIC>MOL_PROPERTY
U
SciTegic.value.DoubleValue
53.452

@<SCITEGIC>MOL_PROPERTY
W
SciTegic.value.DoubleValue
-51.680

@<SCITEGIC>MOL_PROPERTY
W(PB)
SciTegic.value.DoubleValue
-54.077

@<SCITEGIC>MOL_PROPERTY
W(SA)
SciTegic.value.DoubleValue
2.396

@<SCITEGIC>MOL_PROPERTY
Valence
SciTegic.value.DoubleValue
5.149

@<SCITEGIC>MOL_PROPERTY
Coulomb
SciTegic.value.DoubleValue
47.943

@<SCITEGIC>MOL_PROPERTY
VdW
SciTegic.value.DoubleValue
0.361

@<SCITEGIC>MOL_PROPERTY
VdW6
SciTegic.value.DoubleValue
-10.799

@<SCITEGIC>MOL_PROPERTY
VdW12
SciTegic.value.DoubleValue
11.160

@<SCITEGIC>MOL_PROPERTY
Bond
SciTegic.value.DoubleValue
0.287

@<SCITEGIC>MOL_PROPERTY
Angle
SciTegic.value.DoubleValue
1.682

@<SCITEGIC>MOL_PROPERTY
Pdih
SciTegic.value.DoubleValue
3.180

@<SCITEGIC>MOL_PROPERTY
Idih
SciTegic.value.DoubleValue
0.000

@<SCITEGIC>MOL_PROPERTY
Tether
SciTegic.value.DoubleValue
0.000

@<TRIPOS>MOLECULE
guest-3_vm2.mol2 : vm2 ligand conformer 405
          29          28           1
SMALL
USER_CHARGES
 
@<TRIPOS>ATOM
       1    C1      20.596221   17.443660   20.894581 C.3        1 MOL1        -0.2427
       2    H1      20.284972   16.637689   20.217421 H          1 MOL1         0.0958
       3    H2      21.230824   18.135692   20.325729 H          1 MOL1         0.0958
       4    H3      21.205209   16.997785   21.691770 H          1 MOL1         0.0958
       5    C2      19.366197   18.171024   21.477217 C.3        1 MOL1        -0.1412
       6    H4      18.735319   17.447373   22.012090 H          1 MOL1         0.0947
       7    H5      18.758208   18.576025   20.656130 H          1 MOL1         0.0947
       8    C3      19.777165   19.311749   22.433549 C.3        1 MOL1        -0.1437
       9    H6      20.401617   18.904433   23.236952 H          1 MOL1         0.0947
      10    H7      20.403832   20.033801   21.892087 H          1 MOL1         0.0947
      11    C4      18.544726   20.043881   23.018849 C.3        1 MOL1        -0.1437
      12    H8      17.831786   19.329211   23.451065 H          1 MOL1         0.0947
      13    H9      18.013560   20.529647   22.188583 H          1 MOL1         0.0947
      14    C5      18.916726   21.125363   24.064910 C.3        1 MOL1        -0.1437
      15    H10     19.916528   21.529417   23.854264 H          1 MOL1         0.0947
      16    H11     18.226978   21.970880   23.935307 H          1 MOL1         0.0947
      17    C6      18.825567   20.679726   25.549755 C.3        1 MOL1        -0.1437
      18    H12     17.795416   20.381800   25.789649 H          1 MOL1         0.0947
      19    H13     19.028551   21.563570   26.170261 H          1 MOL1         0.0947
      20    C7      19.809704   19.562796   25.977414 C.3        1 MOL1        -0.1477
      21    H14     20.782863   19.711120   25.491556 H          1 MOL1         0.0947
      22    H15     19.988204   19.650500   27.057411 H          1 MOL1         0.0947
      23    C8      19.273213   18.145539   25.697413 C.3        1 MOL1         0.0145
      24    H16     19.076164   18.020718   24.630956 H          1 MOL1         0.0921
      25    H17     18.334601   17.995958   26.237714 H          1 MOL1         0.0921
      26    N1      20.234481   17.054260   26.121311 N.4        1 MOL1        -0.5969
      27    H18     20.436911   17.094253   27.125716 H          1 MOL1         0.3603
      28    H19     21.131406   17.122594   25.629534 H          1 MOL1         0.3603
      29    H20     19.857737   16.119466   25.929746 H          1 MOL1         0.3603
@<TRIPOS>BOND
    1     1     2    1
    2     1     3    1
    3     1     4    1
    4     1     5    1
    5     5     6    1
    6     5     7    1
    7     5     8    1
    8     8     9    1
    9     8    10    1
   10     8    11    1
   11    11    12    1
   12    11    13    1
   13    11    14    1
   14    14    15    1
   15    14    16    1
   16    14    17    1
   17    17    18    1
   18    17    19    1
   19    17    20    1
   20    20    21    1
   21    20    22    1
   22    20    23    1
   23    23    24    1
   24    23    25    1
   25    23    26    1
   26    26    27    1
   27    26    28    1
   28    26    29    1
@<TRIPOS>SUBSTRUCTURE
       1 MOL1            1 RESIDUE      1      MOL     
@<SCITEGIC>MOL_PROPERTY
VM2 Rank
SciTegic.value.IntegerValue
405

@<SCITEGIC>MOL_PROPERTY
Conf_Id
SciTegic.value.IntegerValue
2492

@<SCITEGIC>MOL_PROPERTY
Probability
SciTegic.value.DoubleValue
0.00

@<SCITEGIC>MOL_PROPERTY
Sum Probability
SciTegic.value.DoubleValue
99.99

@<SCITEGIC>MOL_PROPERTY
Delta G
SciTegic.value.DoubleValue
5.941

@<SCITEGIC>MOL_PROPERTY
G
SciTegic.value.DoubleValue
64.089

@<SCITEGIC>MOL_PROPERTY
E
SciTegic.value.DoubleValue
25.958

@<SCITEGIC>MOL_PROPERTY
-TS
SciTegic.value.DoubleValue
38.130

@<SCITEGIC>MOL_PROPERTY
U+W
SciTegic.value.DoubleValue
1.814

@<SCITEGIC>MOL_PROPERTY
U
SciTegic.value.DoubleValue
54.581

@<SCITEGIC>MOL_PROPERTY
W
SciTegic.value.DoubleValue
-52.768

@<SCITEGIC>MOL_PROPERTY
W(PB)
SciTegic.value.DoubleValue
-55.196

@<SCITEGIC>MOL_PROPERTY
W(SA)
SciTegic.value.DoubleValue
2.429

@<SCITEGIC>MOL_PROPERTY
Valence
SciTegic.value.DoubleValue
7.467

@<SCITEGIC>MOL_PROPERTY
Coulomb
SciTegic.value.DoubleValue
46.879

@<SCITEGIC>MOL_PROPERTY
VdW
SciTegic.value.DoubleValue
0.236

@<SCITEGIC>MOL_PROPERTY
VdW6
SciTegic.value.DoubleValue
-10.465

@<SCITEGIC>MOL_PROPERTY
VdW12
SciTegic.value.DoubleValue
10.701

@<SCITEGIC>MOL_PROPERTY
Bond
SciTegic.value.DoubleValue
0.266

@<SCITEGIC>MOL_PROPERTY
Angle
SciTegic.value.DoubleValue
1.749

@<SCITEGIC>MOL_PROPERTY
Pdih
SciTegic.value.DoubleValue
5.451

@<SCITEGIC>MOL_PROPERTY
Idih
SciTegic.value.DoubleValue
0.000

@<SCITEGIC>MOL_PROPERTY
Tether
SciTegic.value.DoubleValue
0.000

@<TRIPOS>MOLECULE
guest-3_vm2.mol2 : vm2 ligand conformer 406
          29          28           1
SMALL
USER_CHARGES
 
@<TRIPOS>ATOM
       1    C1      20.970774   19.694882   20.356457 C.3        1 MOL1        -0.2427
       2    H1      21.103708   20.527551   19.653582 H          1 MOL1         0.0958
       3    H2      21.904093   19.579838   20.922899 H          1 MOL1         0.0958
       4    H3      20.811931   18.780707   19.769673 H          1 MOL1         0.0958
       5    C2      19.778434   19.962794   21.298926 C.3        1 MOL1        -0.1412
       6    H4      18.867570   20.108605   20.701445 H          1 MOL1         0.0947
       7    H5      19.950784   20.899515   21.847225 H          1 MOL1         0.0947
       8    C3      19.567308   18.803451   22.297463 C.3        1 MOL1        -0.1437
       9    H6      19.386579   17.872374   21.742723 H          1 MOL1         0.0947
      10    H7      20.490381   18.655037   22.870083 H          1 MOL1         0.0947
      11    C4      18.375902   19.076351   23.247635 C.3        1 MOL1        -0.1437
      12    H8      17.479216   19.252625   22.637547 H          1 MOL1         0.0947
      13    H9      18.542409   20.007939   23.797980 H          1 MOL1         0.0947
      14    C5      18.068770   17.906076   24.219450 C.3        1 MOL1        -0.1437
      15    H10     17.129346   18.112855   24.750195 H          1 MOL1         0.0947
      16    H11     17.871778   17.010187   23.614528 H          1 MOL1         0.0947
      17    C6      19.174056   17.560091   25.255555 C.3        1 MOL1        -0.1437
      18    H12     20.168372   17.569516   24.794552 H          1 MOL1         0.0947
      19    H13     19.017214   16.517700   25.565580 H          1 MOL1         0.0947
      20    C7      19.163700   18.420953   26.547499 C.3        1 MOL1        -0.1477
      21    H14     18.188750   18.319564   27.042333 H          1 MOL1         0.0947
      22    H15     19.901273   18.009848   27.249478 H          1 MOL1         0.0947
      23    C8      19.461865   19.919698   26.350953 C.3        1 MOL1         0.0145
      24    H16     19.487889   20.412801   27.326453 H          1 MOL1         0.0921
      25    H17     18.665154   20.382152   25.764634 H          1 MOL1         0.0921
      26    N1      20.783191   20.193703   25.661062 N.4        1 MOL1        -0.5969
      27    H18     20.802940   19.784602   24.721792 H          1 MOL1         0.3603
      28    H19     21.572240   19.800511   26.184744 H          1 MOL1         0.3603
      29    H20     20.959188   21.199520   25.561261 H          1 MOL1         0.3603
@<TRIPOS>BOND
    1     1     2    1
    2     1     3    1
    3     1     4    1
    4     1     5    1
    5     5     6    1
    6     5     7    1
    7     5     8    1
    8     8     9    1
    9     8    10    1
   10     8    11    1
   11    11    12    1
   12    11    13    1
   13    11    14    1
   14    14    15    1
   15    14    16    1
   16    14    17    1
   17    17    18    1
   18    17    19    1
   19    17    20    1
   20    20    21    1
   21    20    22    1
   22    20    23    1
   23    23    24    1
   24    23    25    1
   25    23    26    1
   26    26    27    1
   27    26    28    1
   28    26    29    1
@<TRIPOS>SUBSTRUCTURE
       1 MOL1            1 RESIDUE      1      MOL     
@<SCITEGIC>MOL_PROPERTY
VM2 Rank
SciTegic.value.IntegerValue
406

@<SCITEGIC>MOL_PROPERTY
Conf_Id
SciTegic.value.IntegerValue
1660

@<SCITEGIC>MOL_PROPERTY
Probability
SciTegic.value.DoubleValue
0.00

@<SCITEGIC>MOL_PROPERTY
Sum Probability
SciTegic.value.DoubleValue
99.99

@<SCITEGIC>MOL_PROPERTY
Delta G
SciTegic.value.DoubleValue
5.945

@<SCITEGIC>MOL_PROPERTY
G
SciTegic.value.DoubleValue
64.093

@<SCITEGIC>MOL_PROPERTY
E
SciTegic.value.DoubleValue
25.987

@<SCITEGIC>MOL_PROPERTY
-TS
SciTegic.value.DoubleValue
38.107

@<SCITEGIC>MOL_PROPERTY
U+W
SciTegic.value.DoubleValue
1.842

@<SCITEGIC>MOL_PROPERTY
U
SciTegic.value.DoubleValue
53.627

@<SCITEGIC>MOL_PROPERTY
W
SciTegic.value.DoubleValue
-51.785

@<SCITEGIC>MOL_PROPERTY
W(PB)
SciTegic.value.DoubleValue
-54.204

@<SCITEGIC>MOL_PROPERTY
W(SA)
SciTegic.value.DoubleValue
2.419

@<SCITEGIC>MOL_PROPERTY
Valence
SciTegic.value.DoubleValue
5.968

@<SCITEGIC>MOL_PROPERTY
Coulomb
SciTegic.value.DoubleValue
47.262

@<SCITEGIC>MOL_PROPERTY
VdW
SciTegic.value.DoubleValue
0.397

@<SCITEGIC>MOL_PROPERTY
VdW6
SciTegic.value.DoubleValue
-10.682

@<SCITEGIC>MOL_PROPERTY
VdW12
SciTegic.value.DoubleValue
11.079

@<SCITEGIC>MOL_PROPERTY
Bond
SciTegic.value.DoubleValue
0.323

@<SCITEGIC>MOL_PROPERTY
Angle
SciTegic.value.DoubleValue
2.218

@<SCITEGIC>MOL_PROPERTY
Pdih
SciTegic.value.DoubleValue
3.427

@<SCITEGIC>MOL_PROPERTY
Idih
SciTegic.value.DoubleValue
0.000

@<SCITEGIC>MOL_PROPERTY
Tether
SciTegic.value.DoubleValue
0.000

@<TRIPOS>MOLECULE
guest-3_vm2.mol2 : vm2 ligand conformer 407
          29          28           1
SMALL
USER_CHARGES
 
@<TRIPOS>ATOM
       1    C1      21.394052   19.090169   22.223751 C.3        1 MOL1        -0.2427
       2    H1      21.724210   18.268187   21.575516 H          1 MOL1         0.0958
       3    H2      22.240534   19.776928   22.352333 H          1 MOL1         0.0958
       4    H3      21.153095   18.671482   23.207649 H          1 MOL1         0.0958
       5    C2      20.185566   19.829352   21.605102 C.3        1 MOL1        -0.1412
       6    H4      20.504369   20.288876   20.659185 H          1 MOL1         0.0947
       7    H5      19.877214   20.663177   22.247802 H          1 MOL1         0.0947
       8    C3      18.979735   18.902316   21.316020 C.3        1 MOL1        -0.1437
       9    H6      18.193159   19.489737   20.822840 H          1 MOL1         0.0947
      10    H7      19.290682   18.147592   20.580628 H          1 MOL1         0.0947
      11    C4      18.367192   18.169936   22.540751 C.3        1 MOL1        -0.1437
      12    H8      19.106925   17.503921   22.999088 H          1 MOL1         0.0947
      13    H9      17.585297   17.501758   22.154406 H          1 MOL1         0.0947
      14    C5      17.706094   19.097578   23.597901 C.3        1 MOL1        -0.1437
      15    H10     17.281783   19.976966   23.094457 H          1 MOL1         0.0947
      16    H11     16.847903   18.570216   24.036767 H          1 MOL1         0.0947
      17    C6      18.626307   19.562101   24.757191 C.3        1 MOL1        -0.1437
      18    H12     18.081201   20.311721   25.347330 H          1 MOL1         0.0947
      19    H13     19.508596   20.074877   24.361630 H          1 MOL1         0.0947
      20    C7      19.058718   18.412518   25.701984 C.3        1 MOL1        -0.1477
      21    H14     18.166713   17.881836   26.060242 H          1 MOL1         0.0947
      22    H15     19.667479   17.674976   25.165400 H          1 MOL1         0.0947
      23    C8      19.847970   18.919802   26.923898 C.3        1 MOL1         0.0145
      24    H16     20.049130   18.083704   27.599156 H          1 MOL1         0.0921
      25    H17     19.252749   19.660111   27.465192 H          1 MOL1         0.0921
      26    N1      21.178367   19.554228   26.568402 N.4        1 MOL1        -0.5969
      27    H18     21.795723   18.895871   26.082248 H          1 MOL1         0.3603
      28    H19     21.680561   19.875841   27.403269 H          1 MOL1         0.3603
      29    H20     21.058406   20.368186   25.957514 H          1 MOL1         0.3603
@<TRIPOS>BOND
    1     1     2    1
    2     1     3    1
    3     1     4    1
    4     1     5    1
    5     5     6    1
    6     5     7    1
    7     5     8    1
    8     8     9    1
    9     8    10    1
   10     8    11    1
   11    11    12    1
   12    11    13    1
   13    11    14    1
   14    14    15    1
   15    14    16    1
   16    14    17    1
   17    17    18    1
   18    17    19    1
   19    17    20    1
   20    20    21    1
   21    20    22    1
   22    20    23    1
   23    23    24    1
   24    23    25    1
   25    23    26    1
   26    26    27    1
   27    26    28    1
   28    26    29    1
@<TRIPOS>SUBSTRUCTURE
       1 MOL1            1 RESIDUE      1      MOL     
@<SCITEGIC>MOL_PROPERTY
VM2 Rank
SciTegic.value.IntegerValue
407

@<SCITEGIC>MOL_PROPERTY
Conf_Id
SciTegic.value.IntegerValue
260

@<SCITEGIC>MOL_PROPERTY
Probability
SciTegic.value.DoubleValue
0.00

@<SCITEGIC>MOL_PROPERTY
Sum Probability
SciTegic.value.DoubleValue
99.99

@<SCITEGIC>MOL_PROPERTY
Delta G
SciTegic.value.DoubleValue
5.946

@<SCITEGIC>MOL_PROPERTY
G
SciTegic.value.DoubleValue
64.094

@<SCITEGIC>MOL_PROPERTY
E
SciTegic.value.DoubleValue
25.659

@<SCITEGIC>MOL_PROPERTY
-TS
SciTegic.value.DoubleValue
38.435

@<SCITEGIC>MOL_PROPERTY
U+W
SciTegic.value.DoubleValue
1.514

@<SCITEGIC>MOL_PROPERTY
U
SciTegic.value.DoubleValue
54.197

@<SCITEGIC>MOL_PROPERTY
W
SciTegic.value.DoubleValue
-52.683

@<SCITEGIC>MOL_PROPERTY
W(PB)
SciTegic.value.DoubleValue
-54.995

@<SCITEGIC>MOL_PROPERTY
W(SA)
SciTegic.value.DoubleValue
2.312

@<SCITEGIC>MOL_PROPERTY
Valence
SciTegic.value.DoubleValue
6.971

@<SCITEGIC>MOL_PROPERTY
Coulomb
SciTegic.value.DoubleValue
46.740

@<SCITEGIC>MOL_PROPERTY
VdW
SciTegic.value.DoubleValue
0.487

@<SCITEGIC>MOL_PROPERTY
VdW6
SciTegic.value.DoubleValue
-11.331

@<SCITEGIC>MOL_PROPERTY
VdW12
SciTegic.value.DoubleValue
11.817

@<SCITEGIC>MOL_PROPERTY
Bond
SciTegic.value.DoubleValue
0.365

@<SCITEGIC>MOL_PROPERTY
Angle
SciTegic.value.DoubleValue
2.349

@<SCITEGIC>MOL_PROPERTY
Pdih
SciTegic.value.DoubleValue
4.256

@<SCITEGIC>MOL_PROPERTY
Idih
SciTegic.value.DoubleValue
0.000

@<SCITEGIC>MOL_PROPERTY
Tether
SciTegic.value.DoubleValue
0.000

@<TRIPOS>MOLECULE
guest-3_vm2.mol2 : vm2 ligand conformer 408
          29          28           1
SMALL
USER_CHARGES
 
@<TRIPOS>ATOM
       1    C1      21.409428   19.726714   20.945602 C.3        1 MOL1        -0.2427
       2    H1      21.687152   20.574151   20.305499 H          1 MOL1         0.0958
       3    H2      22.151868   19.655216   21.751116 H          1 MOL1         0.0958
       4    H3      21.471807   18.812684   20.340720 H          1 MOL1         0.0958
       5    C2      19.988455   19.917929   21.516347 C.3        1 MOL1        -0.1412
       6    H4      19.272948   20.021309   20.688564 H          1 MOL1         0.0947
       7    H5      19.949403   20.855463   22.088422 H          1 MOL1         0.0947
       8    C3      19.572552   18.737323   22.420737 C.3        1 MOL1        -0.1437
       9    H6      19.609526   17.803934   21.842232 H          1 MOL1         0.0947
      10    H7      20.302487   18.626093   23.230751 H          1 MOL1         0.0947
      11    C4      18.146611   18.926211   22.993901 C.3        1 MOL1        -0.1437
      12    H8      17.439766   18.918741   22.152616 H          1 MOL1         0.0947
      13    H9      18.039628   19.912777   23.464101 H          1 MOL1         0.0947
      14    C5      17.736731   17.812600   23.990949 C.3        1 MOL1        -0.1437
      15    H10     16.669775   17.599129   23.837702 H          1 MOL1         0.0947
      16    H11     18.259142   16.876414   23.750372 H          1 MOL1         0.0947
      17    C6      17.926749   18.156322   25.493421 C.3        1 MOL1        -0.1437
      18    H12     17.516800   17.319347   26.075509 H          1 MOL1         0.0947
      19    H13     17.313335   19.028374   25.759445 H          1 MOL1         0.0947
      20    C7      19.389136   18.382063   25.951040 C.3        1 MOL1        -0.1477
      21    H14     19.456821   18.158627   27.024094 H          1 MOL1         0.0947
      22    H15     20.056378   17.671551   25.446010 H          1 MOL1         0.0947
      23    C8      19.872905   19.829170   25.734949 C.3        1 MOL1         0.0145
      24    H16     19.232474   20.516670   26.293952 H          1 MOL1         0.0921
      25    H17     19.814076   20.092520   24.677157 H          1 MOL1         0.0921
      26    N1      21.301433   20.049669   26.188055 N.4        1 MOL1        -0.5969
      27    H18     21.960214   19.449461   25.681354 H          1 MOL1         0.3603
      28    H19     21.418909   19.851077   27.187137 H          1 MOL1         0.3603
      29    H20     21.602876   21.018878   26.038926 H          1 MOL1         0.3603
@<TRIPOS>BOND
    1     1     2    1
    2     1     3    1
    3     1     4    1
    4     1     5    1
    5     5     6    1
    6     5     7    1
    7     5     8    1
    8     8     9    1
    9     8    10    1
   10     8    11    1
   11    11    12    1
   12    11    13    1
   13    11    14    1
   14    14    15    1
   15    14    16    1
   16    14    17    1
   17    17    18    1
   18    17    19    1
   19    17    20    1
   20    20    21    1
   21    20    22    1
   22    20    23    1
   23    23    24    1
   24    23    25    1
   25    23    26    1
   26    26    27    1
   27    26    28    1
   28    26    29    1
@<TRIPOS>SUBSTRUCTURE
       1 MOL1            1 RESIDUE      1      MOL     
@<SCITEGIC>MOL_PROPERTY
VM2 Rank
SciTegic.value.IntegerValue
408

@<SCITEGIC>MOL_PROPERTY
Conf_Id
SciTegic.value.IntegerValue
1360

@<SCITEGIC>MOL_PROPERTY
Probability
SciTegic.value.DoubleValue
0.00

@<SCITEGIC>MOL_PROPERTY
Sum Probability
SciTegic.value.DoubleValue
99.99

@<SCITEGIC>MOL_PROPERTY
Delta G
SciTegic.value.DoubleValue
5.951

@<SCITEGIC>MOL_PROPERTY
G
SciTegic.value.DoubleValue
64.099

@<SCITEGIC>MOL_PROPERTY
E
SciTegic.value.DoubleValue
25.968

@<SCITEGIC>MOL_PROPERTY
-TS
SciTegic.value.DoubleValue
38.131

@<SCITEGIC>MOL_PROPERTY
U+W
SciTegic.value.DoubleValue
1.824

@<SCITEGIC>MOL_PROPERTY
U
SciTegic.value.DoubleValue
54.581

@<SCITEGIC>MOL_PROPERTY
W
SciTegic.value.DoubleValue
-52.757

@<SCITEGIC>MOL_PROPERTY
W(PB)
SciTegic.value.DoubleValue
-55.207

@<SCITEGIC>MOL_PROPERTY
W(SA)
SciTegic.value.DoubleValue
2.450

@<SCITEGIC>MOL_PROPERTY
Valence
SciTegic.value.DoubleValue
7.466

@<SCITEGIC>MOL_PROPERTY
Coulomb
SciTegic.value.DoubleValue
46.879

@<SCITEGIC>MOL_PROPERTY
VdW
SciTegic.value.DoubleValue
0.236

@<SCITEGIC>MOL_PROPERTY
VdW6
SciTegic.value.DoubleValue
-10.465

@<SCITEGIC>MOL_PROPERTY
VdW12
SciTegic.value.DoubleValue
10.702

@<SCITEGIC>MOL_PROPERTY
Bond
SciTegic.value.DoubleValue
0.266

@<SCITEGIC>MOL_PROPERTY
Angle
SciTegic.value.DoubleValue
1.749

@<SCITEGIC>MOL_PROPERTY
Pdih
SciTegic.value.DoubleValue
5.451

@<SCITEGIC>MOL_PROPERTY
Idih
SciTegic.value.DoubleValue
0.000

@<SCITEGIC>MOL_PROPERTY
Tether
SciTegic.value.DoubleValue
0.000

@<TRIPOS>MOLECULE
guest-3_vm2.mol2 : vm2 ligand conformer 409
          29          28           1
SMALL
USER_CHARGES
 
@<TRIPOS>ATOM
       1    C1      20.966947   17.893563   22.196847 C.3        1 MOL1        -0.2427
       2    H1      21.031548   18.330781   23.199884 H          1 MOL1         0.0958
       3    H2      21.185620   16.821687   22.286100 H          1 MOL1         0.0958
       4    H3      21.751974   18.345792   21.577098 H          1 MOL1         0.0958
       5    C2      19.572401   18.111562   21.566551 C.3        1 MOL1        -0.1412
       6    H4      18.796835   17.636536   22.179951 H          1 MOL1         0.0947
       7    H5      19.541694   17.592060   20.598701 H          1 MOL1         0.0947
       8    C3      19.229926   19.603048   21.331672 C.3        1 MOL1        -0.1437
       9    H6      19.958819   20.019000   20.622588 H          1 MOL1         0.0947
      10    H7      18.256296   19.666363   20.826671 H          1 MOL1         0.0947
      11    C4      19.201876   20.508288   22.593141 C.3        1 MOL1        -0.1437
      12    H8      19.025024   21.535172   22.244834 H          1 MOL1         0.0947
      13    H9      20.189507   20.536803   23.067089 H          1 MOL1         0.0947
      14    C5      18.087968   20.167374   23.621793 C.3        1 MOL1        -0.1437
      15    H10     17.751048   21.100835   24.093321 H          1 MOL1         0.0947
      16    H11     17.210165   19.775847   23.089823 H          1 MOL1         0.0947
      17    C6      18.489900   19.179825   24.748613 C.3        1 MOL1        -0.1437
      18    H12     18.854174   18.240710   24.320582 H          1 MOL1         0.0947
      19    H13     17.585106   18.921612   25.316070 H          1 MOL1         0.0947
      20    C7      19.538581   19.757698   25.732221 C.3        1 MOL1        -0.1477
      21    H14     20.484226   19.964246   25.216882 H          1 MOL1         0.0947
      22    H15     19.178603   20.718247   26.123890 H          1 MOL1         0.0947
      23    C8      19.811261   18.817420   26.921694 C.3        1 MOL1         0.0145
      24    H16     18.874265   18.599876   27.441366 H          1 MOL1         0.0921
      25    H17     20.486296   19.309937   27.626855 H          1 MOL1         0.0921
      26    N1      20.445139   17.499223   26.522469 N.4        1 MOL1        -0.5969
      27    H18     19.846072   16.969896   25.881353 H          1 MOL1         0.3603
      28    H19     20.618566   16.899547   27.336685 H          1 MOL1         0.3603
      29    H20     21.346636   17.637191   26.054308 H          1 MOL1         0.3603
@<TRIPOS>BOND
    1     1     2    1
    2     1     3    1
    3     1     4    1
    4     1     5    1
    5     5     6    1
    6     5     7    1
    7     5     8    1
    8     8     9    1
    9     8    10    1
   10     8    11    1
   11    11    12    1
   12    11    13    1
   13    11    14    1
   14    14    15    1
   15    14    16    1
   16    14    17    1
   17    17    18    1
   18    17    19    1
   19    17    20    1
   20    20    21    1
   21    20    22    1
   22    20    23    1
   23    23    24    1
   24    23    25    1
   25    23    26    1
   26    26    27    1
   27    26    28    1
   28    26    29    1
@<TRIPOS>SUBSTRUCTURE
       1 MOL1            1 RESIDUE      1      MOL     
@<SCITEGIC>MOL_PROPERTY
VM2 Rank
SciTegic.value.IntegerValue
409

@<SCITEGIC>MOL_PROPERTY
Conf_Id
SciTegic.value.IntegerValue
320

@<SCITEGIC>MOL_PROPERTY
Probability
SciTegic.value.DoubleValue
0.00

@<SCITEGIC>MOL_PROPERTY
Sum Probability
SciTegic.value.DoubleValue
100.00

@<SCITEGIC>MOL_PROPERTY
Delta G
SciTegic.value.DoubleValue
5.966

@<SCITEGIC>MOL_PROPERTY
G
SciTegic.value.DoubleValue
64.114

@<SCITEGIC>MOL_PROPERTY
E
SciTegic.value.DoubleValue
25.680

@<SCITEGIC>MOL_PROPERTY
-TS
SciTegic.value.DoubleValue
38.434

@<SCITEGIC>MOL_PROPERTY
U+W
SciTegic.value.DoubleValue
1.535

@<SCITEGIC>MOL_PROPERTY
U
SciTegic.value.DoubleValue
54.197

@<SCITEGIC>MOL_PROPERTY
W
SciTegic.value.DoubleValue
-52.662

@<SCITEGIC>MOL_PROPERTY
W(PB)
SciTegic.value.DoubleValue
-54.997

@<SCITEGIC>MOL_PROPERTY
W(SA)
SciTegic.value.DoubleValue
2.336

@<SCITEGIC>MOL_PROPERTY
Valence
SciTegic.value.DoubleValue
6.971

@<SCITEGIC>MOL_PROPERTY
Coulomb
SciTegic.value.DoubleValue
46.740

@<SCITEGIC>MOL_PROPERTY
VdW
SciTegic.value.DoubleValue
0.487

@<SCITEGIC>MOL_PROPERTY
VdW6
SciTegic.value.DoubleValue
-11.330

@<SCITEGIC>MOL_PROPERTY
VdW12
SciTegic.value.DoubleValue
11.817

@<SCITEGIC>MOL_PROPERTY
Bond
SciTegic.value.DoubleValue
0.365

@<SCITEGIC>MOL_PROPERTY
Angle
SciTegic.value.DoubleValue
2.348

@<SCITEGIC>MOL_PROPERTY
Pdih
SciTegic.value.DoubleValue
4.257

@<SCITEGIC>MOL_PROPERTY
Idih
SciTegic.value.DoubleValue
0.000

@<SCITEGIC>MOL_PROPERTY
Tether
SciTegic.value.DoubleValue
0.000

@<TRIPOS>MOLECULE
guest-3_vm2.mol2 : vm2 ligand conformer 410
          29          28           1
SMALL
USER_CHARGES
 
@<TRIPOS>ATOM
       1    C1      18.745254   19.614183   19.901757 C.3        1 MOL1        -0.2427
       2    H1      18.255975   20.569664   19.672265 H          1 MOL1         0.0958
       3    H2      19.678518   19.566274   19.325597 H          1 MOL1         0.0958
       4    H3      18.087188   18.806876   19.554747 H          1 MOL1         0.0958
       5    C2      19.021623   19.493351   21.415288 C.3        1 MOL1        -0.1412
       6    H4      18.073922   19.572859   21.965709 H          1 MOL1         0.0947
       7    H5      19.650184   20.336844   21.730486 H          1 MOL1         0.0947
       8    C3      19.717279   18.157310   21.762943 C.3        1 MOL1        -0.1437
       9    H6      19.117524   17.328482   21.362204 H          1 MOL1         0.0947
      10    H7      20.688663   18.106257   21.252041 H          1 MOL1         0.0947
      11    C4      19.920437   17.923491   23.282013 C.3        1 MOL1        -0.1437
      12    H8      20.358802   16.924052   23.409010 H          1 MOL1         0.0947
      13    H9      18.944452   17.886094   23.781137 H          1 MOL1         0.0947
      14    C5      20.857778   18.954336   23.968273 C.3        1 MOL1        -0.1437
      15    H10     21.469180   18.442656   24.724317 H          1 MOL1         0.0947
      16    H11     21.574472   19.333941   23.227041 H          1 MOL1         0.0947
      17    C6      20.127896   20.151158   24.636172 C.3        1 MOL1        -0.1437
      18    H12     19.224863   20.419930   24.073850 H          1 MOL1         0.0947
      19    H13     20.786607   21.028974   24.583957 H          1 MOL1         0.0947
      20    C7      19.766504   19.920026   26.124783 C.3        1 MOL1        -0.1477
      21    H14     20.683955   19.737553   26.700042 H          1 MOL1         0.0947
      22    H15     19.324253   20.840630   26.528257 H          1 MOL1         0.0947
      23    C8      18.785011   18.755304   26.344996 C.3        1 MOL1         0.0145
      24    H16     19.236303   17.823316   25.994743 H          1 MOL1         0.0921
      25    H17     17.869451   18.932576   25.774378 H          1 MOL1         0.0921
      26    N1      18.402218   18.568841   27.798775 N.4        1 MOL1        -0.5969
      27    H18     19.219311   18.372441   28.386323 H          1 MOL1         0.3603
      28    H19     17.749130   17.787546   27.923816 H          1 MOL1         0.3603
      29    H20     17.947155   19.403217   28.183699 H          1 MOL1         0.3603
@<TRIPOS>BOND
    1     1     2    1
    2     1     3    1
    3     1     4    1
    4     1     5    1
    5     5     6    1
    6     5     7    1
    7     5     8    1
    8     8     9    1
    9     8    10    1
   10     8    11    1
   11    11    12    1
   12    11    13    1
   13    11    14    1
   14    14    15    1
   15    14    16    1
   16    14    17    1
   17    17    18    1
   18    17    19    1
   19    17    20    1
   20    20    21    1
   21    20    22    1
   22    20    23    1
   23    23    24    1
   24    23    25    1
   25    23    26    1
   26    26    27    1
   27    26    28    1
   28    26    29    1
@<TRIPOS>SUBSTRUCTURE
       1 MOL1            1 RESIDUE      1      MOL     
@<SCITEGIC>MOL_PROPERTY
VM2 Rank
SciTegic.value.IntegerValue
410

@<SCITEGIC>MOL_PROPERTY
Conf_Id
SciTegic.value.IntegerValue
339

@<SCITEGIC>MOL_PROPERTY
Probability
SciTegic.value.DoubleValue
0.00

@<SCITEGIC>MOL_PROPERTY
Sum Probability
SciTegic.value.DoubleValue
100.00

@<SCITEGIC>MOL_PROPERTY
Delta G
SciTegic.value.DoubleValue
6.001

@<SCITEGIC>MOL_PROPERTY
G
SciTegic.value.DoubleValue
64.149

@<SCITEGIC>MOL_PROPERTY
E
SciTegic.value.DoubleValue
26.257

@<SCITEGIC>MOL_PROPERTY
-TS
SciTegic.value.DoubleValue
37.892

@<SCITEGIC>MOL_PROPERTY
U+W
SciTegic.value.DoubleValue
2.113

@<SCITEGIC>MOL_PROPERTY
U
SciTegic.value.DoubleValue
54.320

@<SCITEGIC>MOL_PROPERTY
W
SciTegic.value.DoubleValue
-52.208

@<SCITEGIC>MOL_PROPERTY
W(PB)
SciTegic.value.DoubleValue
-54.655

@<SCITEGIC>MOL_PROPERTY
W(SA)
SciTegic.value.DoubleValue
2.447

@<SCITEGIC>MOL_PROPERTY
Valence
SciTegic.value.DoubleValue
7.833

@<SCITEGIC>MOL_PROPERTY
Coulomb
SciTegic.value.DoubleValue
45.675

@<SCITEGIC>MOL_PROPERTY
VdW
SciTegic.value.DoubleValue
0.812

@<SCITEGIC>MOL_PROPERTY
VdW6
SciTegic.value.DoubleValue
-10.152

@<SCITEGIC>MOL_PROPERTY
VdW12
SciTegic.value.DoubleValue
10.964

@<SCITEGIC>MOL_PROPERTY
Bond
SciTegic.value.DoubleValue
0.310

@<SCITEGIC>MOL_PROPERTY
Angle
SciTegic.value.DoubleValue
1.541

@<SCITEGIC>MOL_PROPERTY
Pdih
SciTegic.value.DoubleValue
5.981

@<SCITEGIC>MOL_PROPERTY
Idih
SciTegic.value.DoubleValue
0.000

@<SCITEGIC>MOL_PROPERTY
Tether
SciTegic.value.DoubleValue
0.000

@<TRIPOS>MOLECULE
guest-3_vm2.mol2 : vm2 ligand conformer 411
          29          28           1
SMALL
USER_CHARGES
 
@<TRIPOS>ATOM
       1    C1      20.473922   18.928061   20.293503 C.3        1 MOL1        -0.2427
       2    H1      20.043428   19.656358   19.594037 H          1 MOL1         0.0958
       3    H2      21.105407   19.473203   21.003172 H          1 MOL1         0.0958
       4    H3      21.125702   18.258620   19.717385 H          1 MOL1         0.0958
       5    C2      19.362559   18.120006   21.002980 C.3        1 MOL1        -0.1412
       6    H4      19.804904   17.361152   21.663279 H          1 MOL1         0.0947
       7    H5      18.806707   17.564912   20.234378 H          1 MOL1         0.0947
       8    C3      18.361002   19.002585   21.791801 C.3        1 MOL1        -0.1437
       9    H6      18.245393   19.978892   21.301361 H          1 MOL1         0.0947
      10    H7      17.372456   18.525953   21.737575 H          1 MOL1         0.0947
      11    C4      18.701909   19.193897   23.292207 C.3        1 MOL1        -0.1437
      12    H8      18.733747   18.208640   23.774789 H          1 MOL1         0.0947
      13    H9      17.879664   19.749585   23.763429 H          1 MOL1         0.0947
      14    C5      20.030705   19.942103   23.551769 C.3        1 MOL1        -0.1437
      15    H10     20.874734   19.294937   23.279832 H          1 MOL1         0.0947
      16    H11     20.081541   20.817888   22.890416 H          1 MOL1         0.0947
      17    C6      20.219545   20.427836   25.012224 C.3        1 MOL1        -0.1437
      18    H12     19.428751   21.142767   25.278743 H          1 MOL1         0.0947
      19    H13     21.159509   20.995465   25.053005 H          1 MOL1         0.0947
      20    C7      20.293945   19.298767   26.070845 C.3        1 MOL1        -0.1477
      21    H14     20.847704   18.440182   25.668317 H          1 MOL1         0.0947
      22    H15     20.870943   19.664698   26.930588 H          1 MOL1         0.0947
      23    C8      18.909809   18.851795   26.579652 C.3        1 MOL1         0.0145
      24    H16     18.310000   18.463269   25.754768 H          1 MOL1         0.0921
      25    H17     18.384263   19.708078   27.010823 H          1 MOL1         0.0921
      26    N1      18.990604   17.772949   27.640019 N.4        1 MOL1        -0.5969
      27    H18     19.452573   16.927193   27.289792 H          1 MOL1         0.3603
      28    H19     18.060484   17.491599   27.969154 H          1 MOL1         0.3603
      29    H20     19.516575   18.085486   28.462895 H          1 MOL1         0.3603
@<TRIPOS>BOND
    1     1     2    1
    2     1     3    1
    3     1     4    1
    4     1     5    1
    5     5     6    1
    6     5     7    1
    7     5     8    1
    8     8     9    1
    9     8    10    1
   10     8    11    1
   11    11    12    1
   12    11    13    1
   13    11    14    1
   14    14    15    1
   15    14    16    1
   16    14    17    1
   17    17    18    1
   18    17    19    1
   19    17    20    1
   20    20    21    1
   21    20    22    1
   22    20    23    1
   23    23    24    1
   24    23    25    1
   25    23    26    1
   26    26    27    1
   27    26    28    1
   28    26    29    1
@<TRIPOS>SUBSTRUCTURE
       1 MOL1            1 RESIDUE      1      MOL     
@<SCITEGIC>MOL_PROPERTY
VM2 Rank
SciTegic.value.IntegerValue
411

@<SCITEGIC>MOL_PROPERTY
Conf_Id
SciTegic.value.IntegerValue
1964

@<SCITEGIC>MOL_PROPERTY
Probability
SciTegic.value.DoubleValue
0.00

@<SCITEGIC>MOL_PROPERTY
Sum Probability
SciTegic.value.DoubleValue
100.00

@<SCITEGIC>MOL_PROPERTY
Delta G
SciTegic.value.DoubleValue
6.064

@<SCITEGIC>MOL_PROPERTY
G
SciTegic.value.DoubleValue
64.212

@<SCITEGIC>MOL_PROPERTY
E
SciTegic.value.DoubleValue
26.364

@<SCITEGIC>MOL_PROPERTY
-TS
SciTegic.value.DoubleValue
37.849

@<SCITEGIC>MOL_PROPERTY
U+W
SciTegic.value.DoubleValue
2.219

@<SCITEGIC>MOL_PROPERTY
U
SciTegic.value.DoubleValue
54.483

@<SCITEGIC>MOL_PROPERTY
W
SciTegic.value.DoubleValue
-52.264

@<SCITEGIC>MOL_PROPERTY
W(PB)
SciTegic.value.DoubleValue
-54.710

@<SCITEGIC>MOL_PROPERTY
W(SA)
SciTegic.value.DoubleValue
2.446

@<SCITEGIC>MOL_PROPERTY
Valence
SciTegic.value.DoubleValue
7.845

@<SCITEGIC>MOL_PROPERTY
Coulomb
SciTegic.value.DoubleValue
45.850

@<SCITEGIC>MOL_PROPERTY
VdW
SciTegic.value.DoubleValue
0.787

@<SCITEGIC>MOL_PROPERTY
VdW6
SciTegic.value.DoubleValue
-10.198

@<SCITEGIC>MOL_PROPERTY
VdW12
SciTegic.value.DoubleValue
10.985

@<SCITEGIC>MOL_PROPERTY
Bond
SciTegic.value.DoubleValue
0.296

@<SCITEGIC>MOL_PROPERTY
Angle
SciTegic.value.DoubleValue
1.942

@<SCITEGIC>MOL_PROPERTY
Pdih
SciTegic.value.DoubleValue
5.608

@<SCITEGIC>MOL_PROPERTY
Idih
SciTegic.value.DoubleValue
0.000

@<SCITEGIC>MOL_PROPERTY
Tether
SciTegic.value.DoubleValue
0.000

@<TRIPOS>MOLECULE
guest-3_vm2.mol2 : vm2 ligand conformer 412
          29          28           1
SMALL
USER_CHARGES
 
@<TRIPOS>ATOM
       1    C1      20.694598   18.805079   20.693710 C.3        1 MOL1        -0.2427
       2    H1      20.095066   19.181127   19.854615 H          1 MOL1         0.0958
       3    H2      21.739935   18.751942   20.363164 H          1 MOL1         0.0958
       4    H3      20.368038   17.782473   20.920434 H          1 MOL1         0.0958
       5    C2      20.563315   19.726167   21.927337 C.3        1 MOL1        -0.1412
       6    H4      21.021416   20.696908   21.691952 H          1 MOL1         0.0947
       7    H5      21.150572   19.314024   22.757515 H          1 MOL1         0.0947
       8    C3      19.095617   19.970533   22.365283 C.3        1 MOL1        -0.1437
       9    H6      19.090559   20.660242   23.216228 H          1 MOL1         0.0947
      10    H7      18.579249   20.505029   21.556184 H          1 MOL1         0.0947
      11    C4      18.273114   18.696011   22.703763 C.3        1 MOL1        -0.1437
      12    H8      18.212205   18.074628   21.800756 H          1 MOL1         0.0947
      13    H9      17.235320   18.983442   22.920501 H          1 MOL1         0.0947
      14    C5      18.816345   17.821515   23.867486 C.3        1 MOL1        -0.1437
      15    H10     18.529757   16.781678   23.658363 H          1 MOL1         0.0947
      16    H11     19.912142   17.814446   23.881770 H          1 MOL1         0.0947
      17    C6      18.251242   18.171399   25.270779 C.3        1 MOL1        -0.1437
      18    H12     18.598136   17.412502   25.984858 H          1 MOL1         0.0947
      19    H13     17.157105   18.074242   25.249633 H          1 MOL1         0.0947
      20    C7      18.614891   19.575185   25.816527 C.3        1 MOL1        -0.1477
      21    H14     18.112661   20.344431   25.217806 H          1 MOL1         0.0947
      22    H15     18.210121   19.680444   26.831771 H          1 MOL1         0.0947
      23    C8      20.129411   19.860804   25.849815 C.3        1 MOL1         0.0145
      24    H16     20.300573   20.876688   26.216000 H          1 MOL1         0.0921
      25    H17     20.539797   19.788806   24.839948 H          1 MOL1         0.0921
      26    N1      20.905466   18.911307   26.740300 N.4        1 MOL1        -0.5969
      27    H18     20.584732   18.956062   27.713012 H          1 MOL1         0.3603
      28    H19     21.908675   19.125256   26.744325 H          1 MOL1         0.3603
      29    H20     20.803855   17.939283   26.432126 H          1 MOL1         0.3603
@<TRIPOS>BOND
    1     1     2    1
    2     1     3    1
    3     1     4    1
    4     1     5    1
    5     5     6    1
    6     5     7    1
    7     5     8    1
    8     8     9    1
    9     8    10    1
   10     8    11    1
   11    11    12    1
   12    11    13    1
   13    11    14    1
   14    14    15    1
   15    14    16    1
   16    14    17    1
   17    17    18    1
   18    17    19    1
   19    17    20    1
   20    20    21    1
   21    20    22    1
   22    20    23    1
   23    23    24    1
   24    23    25    1
   25    23    26    1
   26    26    27    1
   27    26    28    1
   28    26    29    1
@<TRIPOS>SUBSTRUCTURE
       1 MOL1            1 RESIDUE      1      MOL     
@<SCITEGIC>MOL_PROPERTY
VM2 Rank
SciTegic.value.IntegerValue
412

@<SCITEGIC>MOL_PROPERTY
Conf_Id
SciTegic.value.IntegerValue
1231

@<SCITEGIC>MOL_PROPERTY
Probability
SciTegic.value.DoubleValue
0.00

@<SCITEGIC>MOL_PROPERTY
Sum Probability
SciTegic.value.DoubleValue
100.00

@<SCITEGIC>MOL_PROPERTY
Delta G
SciTegic.value.DoubleValue
6.066

@<SCITEGIC>MOL_PROPERTY
G
SciTegic.value.DoubleValue
64.214

@<SCITEGIC>MOL_PROPERTY
E
SciTegic.value.DoubleValue
25.448

@<SCITEGIC>MOL_PROPERTY
-TS
SciTegic.value.DoubleValue
38.766

@<SCITEGIC>MOL_PROPERTY
U+W
SciTegic.value.DoubleValue
1.303

@<SCITEGIC>MOL_PROPERTY
U
SciTegic.value.DoubleValue
54.149

@<SCITEGIC>MOL_PROPERTY
W
SciTegic.value.DoubleValue
-52.846

@<SCITEGIC>MOL_PROPERTY
W(PB)
SciTegic.value.DoubleValue
-55.185

@<SCITEGIC>MOL_PROPERTY
W(SA)
SciTegic.value.DoubleValue
2.338

@<SCITEGIC>MOL_PROPERTY
Valence
SciTegic.value.DoubleValue
7.242

@<SCITEGIC>MOL_PROPERTY
Coulomb
SciTegic.value.DoubleValue
46.523

@<SCITEGIC>MOL_PROPERTY
VdW
SciTegic.value.DoubleValue
0.384

@<SCITEGIC>MOL_PROPERTY
VdW6
SciTegic.value.DoubleValue
-12.344

@<SCITEGIC>MOL_PROPERTY
VdW12
SciTegic.value.DoubleValue
12.728

@<SCITEGIC>MOL_PROPERTY
Bond
SciTegic.value.DoubleValue
0.400

@<SCITEGIC>MOL_PROPERTY
Angle
SciTegic.value.DoubleValue
2.749

@<SCITEGIC>MOL_PROPERTY
Pdih
SciTegic.value.DoubleValue
4.094

@<SCITEGIC>MOL_PROPERTY
Idih
SciTegic.value.DoubleValue
0.000

@<SCITEGIC>MOL_PROPERTY
Tether
SciTegic.value.DoubleValue
0.000

@<TRIPOS>MOLECULE
guest-3_vm2.mol2 : vm2 ligand conformer 413
          29          28           1
SMALL
USER_CHARGES
 
@<TRIPOS>ATOM
       1    C1      21.015780   18.951792   21.072754 C.3        1 MOL1        -0.2427
       2    H1      21.375098   18.822778   22.100923 H          1 MOL1         0.0958
       3    H2      20.645486   17.985690   20.706147 H          1 MOL1         0.0958
       4    H3      21.879602   19.236233   20.458140 H          1 MOL1         0.0958
       5    C2      19.918751   20.035542   20.995130 C.3        1 MOL1        -0.1412
       6    H4      19.726311   20.266153   19.938013 H          1 MOL1         0.0947
       7    H5      20.292849   20.965346   21.445886 H          1 MOL1         0.0947
       8    C3      18.577181   19.637224   21.661692 C.3        1 MOL1        -0.1437
       9    H6      17.871990   20.464491   21.501515 H          1 MOL1         0.0947
      10    H7      18.140430   18.773269   21.142441 H          1 MOL1         0.0947
      11    C4      18.662311   19.366116   23.186785 C.3        1 MOL1        -0.1437
      12    H8      17.726053   19.704473   23.651521 H          1 MOL1         0.0947
      13    H9      19.464867   19.976716   23.618755 H          1 MOL1         0.0947
      14    C5      18.865327   17.870225   23.537763 C.3        1 MOL1        -0.1437
      15    H10     18.113242   17.274847   23.002204 H          1 MOL1         0.0947
      16    H11     19.839124   17.522344   23.173979 H          1 MOL1         0.0947
      17    C6      18.744564   17.544238   25.048881 C.3        1 MOL1        -0.1437
      18    H12     18.852210   16.456591   25.162312 H          1 MOL1         0.0947
      19    H13     17.733462   17.781707   25.407813 H          1 MOL1         0.0947
      20    C7      19.803061   18.229604   25.949189 C.3        1 MOL1        -0.1477
      21    H14     19.978450   17.594831   26.827986 H          1 MOL1         0.0947
      22    H15     20.762452   18.297931   25.419268 H          1 MOL1         0.0947
      23    C8      19.363612   19.620959   26.445046 C.3        1 MOL1         0.0145
      24    H16     18.434628   19.529657   27.014248 H          1 MOL1         0.0921
      25    H17     19.180258   20.285193   25.598631 H          1 MOL1         0.0921
      26    N1      20.393413   20.282299   27.337760 N.4        1 MOL1        -0.5969
      27    H18     20.588801   19.722425   28.174306 H          1 MOL1         0.3603
      28    H19     20.081064   21.204322   27.661666 H          1 MOL1         0.3603
      29    H20     21.285897   20.422009   26.852692 H          1 MOL1         0.3603
@<TRIPOS>BOND
    1     1     2    1
    2     1     3    1
    3     1     4    1
    4     1     5    1
    5     5     6    1
    6     5     7    1
    7     5     8    1
    8     8     9    1
    9     8    10    1
   10     8    11    1
   11    11    12    1
   12    11    13    1
   13    11    14    1
   14    14    15    1
   15    14    16    1
   16    14    17    1
   17    17    18    1
   18    17    19    1
   19    17    20    1
   20    20    21    1
   21    20    22    1
   22    20    23    1
   23    23    24    1
   24    23    25    1
   25    23    26    1
   26    26    27    1
   27    26    28    1
   28    26    29    1
@<TRIPOS>SUBSTRUCTURE
       1 MOL1            1 RESIDUE      1      MOL     
@<SCITEGIC>MOL_PROPERTY
VM2 Rank
SciTegic.value.IntegerValue
413

@<SCITEGIC>MOL_PROPERTY
Conf_Id
SciTegic.value.IntegerValue
1534

@<SCITEGIC>MOL_PROPERTY
Probability
SciTegic.value.DoubleValue
0.00

@<SCITEGIC>MOL_PROPERTY
Sum Probability
SciTegic.value.DoubleValue
100.00

@<SCITEGIC>MOL_PROPERTY
Delta G
SciTegic.value.DoubleValue
6.137

@<SCITEGIC>MOL_PROPERTY
G
SciTegic.value.DoubleValue
64.285

@<SCITEGIC>MOL_PROPERTY
E
SciTegic.value.DoubleValue
26.505

@<SCITEGIC>MOL_PROPERTY
-TS
SciTegic.value.DoubleValue
37.781

@<SCITEGIC>MOL_PROPERTY
U+W
SciTegic.value.DoubleValue
2.360

@<SCITEGIC>MOL_PROPERTY
U
SciTegic.value.DoubleValue
54.783

@<SCITEGIC>MOL_PROPERTY
W
SciTegic.value.DoubleValue
-52.423

@<SCITEGIC>MOL_PROPERTY
W(PB)
SciTegic.value.DoubleValue
-54.865

@<SCITEGIC>MOL_PROPERTY
W(SA)
SciTegic.value.DoubleValue
2.442

@<SCITEGIC>MOL_PROPERTY
Valence
SciTegic.value.DoubleValue
7.954

@<SCITEGIC>MOL_PROPERTY
Coulomb
SciTegic.value.DoubleValue
46.046

@<SCITEGIC>MOL_PROPERTY
VdW
SciTegic.value.DoubleValue
0.783

@<SCITEGIC>MOL_PROPERTY
VdW6
SciTegic.value.DoubleValue
-10.257

@<SCITEGIC>MOL_PROPERTY
VdW12
SciTegic.value.DoubleValue
11.040

@<SCITEGIC>MOL_PROPERTY
Bond
SciTegic.value.DoubleValue
0.306

@<SCITEGIC>MOL_PROPERTY
Angle
SciTegic.value.DoubleValue
1.905

@<SCITEGIC>MOL_PROPERTY
Pdih
SciTegic.value.DoubleValue
5.743

@<SCITEGIC>MOL_PROPERTY
Idih
SciTegic.value.DoubleValue
0.000

@<SCITEGIC>MOL_PROPERTY
Tether
SciTegic.value.DoubleValue
0.000

@<TRIPOS>MOLECULE
guest-3_vm2.mol2 : vm2 ligand conformer 414
          29          28           1
SMALL
USER_CHARGES
 
@<TRIPOS>ATOM
       1    C1      21.059890   19.331628   20.199678 C.3        1 MOL1        -0.2427
       2    H1      21.834619   18.643046   20.561449 H          1 MOL1         0.0958
       3    H2      21.069865   19.303804   19.102336 H          1 MOL1         0.0958
       4    H3      21.331815   20.347867   20.513600 H          1 MOL1         0.0958
       5    C2      19.669991   18.936815   20.742042 C.3        1 MOL1        -0.1412
       6    H4      19.411324   17.930679   20.383394 H          1 MOL1         0.0947
       7    H5      18.912284   19.622440   20.337466 H          1 MOL1         0.0947
       8    C3      19.629393   18.967469   22.285754 C.3        1 MOL1        -0.1437
       9    H6      20.386009   18.278185   22.684869 H          1 MOL1         0.0947
      10    H7      19.895681   19.975450   22.629865 H          1 MOL1         0.0947
      11    C4      18.235509   18.579359   22.831943 C.3        1 MOL1        -0.1437
      12    H8      17.944136   17.607887   22.409294 H          1 MOL1         0.0947
      13    H9      17.488433   19.303136   22.477973 H          1 MOL1         0.0947
      14    C5      18.165193   18.480147   24.377430 C.3        1 MOL1        -0.1437
      15    H10     17.154510   18.140287   24.642677 H          1 MOL1         0.0947
      16    H11     18.845730   17.693496   24.724103 H          1 MOL1         0.0947
      17    C6      18.436464   19.818951   25.116388 C.3        1 MOL1        -0.1437
      18    H12     17.774151   19.893299   25.990098 H          1 MOL1         0.0947
      19    H13     18.146849   20.653362   24.462871 H          1 MOL1         0.0947
      20    C7      19.903403   20.017961   25.583415 C.3        1 MOL1        -0.1477
      21    H14     20.610464   19.590662   24.862390 H          1 MOL1         0.0947
      22    H15     20.113494   21.095342   25.611964 H          1 MOL1         0.0947
      23    C8      20.187380   19.455196   26.991970 C.3        1 MOL1         0.0145
      24    H16     19.498291   19.907121   27.710449 H          1 MOL1         0.0921
      25    H17     21.206094   19.720481   27.287463 H          1 MOL1         0.0921
      26    N1      20.056777   17.950472   27.106380 N.4        1 MOL1        -0.5969
      27    H18     20.706425   17.464153   26.480039 H          1 MOL1         0.3603
      28    H19     19.109849   17.638757   26.868514 H          1 MOL1         0.3603
      29    H20     20.253554   17.622651   28.058430 H          1 MOL1         0.3603
@<TRIPOS>BOND
    1     1     2    1
    2     1     3    1
    3     1     4    1
    4     1     5    1
    5     5     6    1
    6     5     7    1
    7     5     8    1
    8     8     9    1
    9     8    10    1
   10     8    11    1
   11    11    12    1
   12    11    13    1
   13    11    14    1
   14    14    15    1
   15    14    16    1
   16    14    17    1
   17    17    18    1
   18    17    19    1
   19    17    20    1
   20    20    21    1
   21    20    22    1
   22    20    23    1
   23    23    24    1
   24    23    25    1
   25    23    26    1
   26    26    27    1
   27    26    28    1
   28    26    29    1
@<TRIPOS>SUBSTRUCTURE
       1 MOL1            1 RESIDUE      1      MOL     
@<SCITEGIC>MOL_PROPERTY
VM2 Rank
SciTegic.value.IntegerValue
414

@<SCITEGIC>MOL_PROPERTY
Conf_Id
SciTegic.value.IntegerValue
326

@<SCITEGIC>MOL_PROPERTY
Probability
SciTegic.value.DoubleValue
0.00

@<SCITEGIC>MOL_PROPERTY
Sum Probability
SciTegic.value.DoubleValue
100.00

@<SCITEGIC>MOL_PROPERTY
Delta G
SciTegic.value.DoubleValue
6.155

@<SCITEGIC>MOL_PROPERTY
G
SciTegic.value.DoubleValue
64.303

@<SCITEGIC>MOL_PROPERTY
E
SciTegic.value.DoubleValue
26.483

@<SCITEGIC>MOL_PROPERTY
-TS
SciTegic.value.DoubleValue
37.820

@<SCITEGIC>MOL_PROPERTY
U+W
SciTegic.value.DoubleValue
2.338

@<SCITEGIC>MOL_PROPERTY
U
SciTegic.value.DoubleValue
54.599

@<SCITEGIC>MOL_PROPERTY
W
SciTegic.value.DoubleValue
-52.261

@<SCITEGIC>MOL_PROPERTY
W(PB)
SciTegic.value.DoubleValue
-54.704

@<SCITEGIC>MOL_PROPERTY
W(SA)
SciTegic.value.DoubleValue
2.443

@<SCITEGIC>MOL_PROPERTY
Valence
SciTegic.value.DoubleValue
7.415

@<SCITEGIC>MOL_PROPERTY
Coulomb
SciTegic.value.DoubleValue
46.324

@<SCITEGIC>MOL_PROPERTY
VdW
SciTegic.value.DoubleValue
0.860

@<SCITEGIC>MOL_PROPERTY
VdW6
SciTegic.value.DoubleValue
-9.988

@<SCITEGIC>MOL_PROPERTY
VdW12
SciTegic.value.DoubleValue
10.848

@<SCITEGIC>MOL_PROPERTY
Bond
SciTegic.value.DoubleValue
0.296

@<SCITEGIC>MOL_PROPERTY
Angle
SciTegic.value.DoubleValue
1.388

@<SCITEGIC>MOL_PROPERTY
Pdih
SciTegic.value.DoubleValue
5.731

@<SCITEGIC>MOL_PROPERTY
Idih
SciTegic.value.DoubleValue
0.000

@<SCITEGIC>MOL_PROPERTY
Tether
SciTegic.value.DoubleValue
0.000

@<TRIPOS>MOLECULE
guest-3_vm2.mol2 : vm2 ligand conformer 415
          29          28           1
SMALL
USER_CHARGES
 
@<TRIPOS>ATOM
       1    C1      19.881027   17.379515   20.690181 C.3        1 MOL1        -0.2427
       2    H1      20.961800   17.206335   20.774838 H          1 MOL1         0.0958
       3    H2      19.377454   16.406236   20.754645 H          1 MOL1         0.0958
       4    H3      19.678537   17.798132   19.695708 H          1 MOL1         0.0958
       5    C2      19.382428   18.325532   21.802892 C.3        1 MOL1        -0.1412
       6    H4      19.568397   17.853941   22.776489 H          1 MOL1         0.0947
       7    H5      18.295755   18.458601   21.708361 H          1 MOL1         0.0947
       8    C3      20.085638   19.700550   21.739408 C.3        1 MOL1        -0.1437
       9    H6      21.162082   19.568194   21.915156 H          1 MOL1         0.0947
      10    H7      19.990414   20.102571   20.721276 H          1 MOL1         0.0947
      11    C4      19.527204   20.753752   22.731172 C.3        1 MOL1        -0.1437
      12    H8      18.477594   20.976072   22.494543 H          1 MOL1         0.0947
      13    H9      20.073707   21.691353   22.559053 H          1 MOL1         0.0947
      14    C5      19.675619   20.376190   24.227917 C.3        1 MOL1        -0.1437
      15    H10     20.556603   19.738916   24.356716 H          1 MOL1         0.0947
      16    H11     19.881530   21.293244   24.797109 H          1 MOL1         0.0947
      17    C6      18.402358   19.719322   24.822419 C.3        1 MOL1        -0.1437
      18    H12     18.110541   18.829017   24.252891 H          1 MOL1         0.0947
      19    H13     17.571872   20.430083   24.710834 H          1 MOL1         0.0947
      20    C7      18.523979   19.355741   26.324364 C.3        1 MOL1        -0.1477
      21    H14     19.043620   20.151177   26.874825 H          1 MOL1         0.0947
      22    H15     17.510749   19.311026   26.745412 H          1 MOL1         0.0947
      23    C8      19.190699   17.990501   26.596350 C.3        1 MOL1         0.0145
      24    H16     18.697982   17.216283   26.002149 H          1 MOL1         0.0921
      25    H17     19.063136   17.737370   27.652349 H          1 MOL1         0.0921
      26    N1      20.675048   17.936897   26.300297 N.4        1 MOL1        -0.5969
      27    H18     20.866759   18.108659   25.309085 H          1 MOL1         0.3603
      28    H19     21.075195   17.020774   26.531029 H          1 MOL1         0.3603
      29    H20     21.195041   18.636535   26.840047 H          1 MOL1         0.3603
@<TRIPOS>BOND
    1     1     2    1
    2     1     3    1
    3     1     4    1
    4     1     5    1
    5     5     6    1
    6     5     7    1
    7     5     8    1
    8     8     9    1
    9     8    10    1
   10     8    11    1
   11    11    12    1
   12    11    13    1
   13    11    14    1
   14    14    15    1
   15    14    16    1
   16    14    17    1
   17    17    18    1
   18    17    19    1
   19    17    20    1
   20    20    21    1
   21    20    22    1
   22    20    23    1
   23    23    24    1
   24    23    25    1
   25    23    26    1
   26    26    27    1
   27    26    28    1
   28    26    29    1
@<TRIPOS>SUBSTRUCTURE
       1 MOL1            1 RESIDUE      1      MOL     
@<SCITEGIC>MOL_PROPERTY
VM2 Rank
SciTegic.value.IntegerValue
415

@<SCITEGIC>MOL_PROPERTY
Conf_Id
SciTegic.value.IntegerValue
138

@<SCITEGIC>MOL_PROPERTY
Probability
SciTegic.value.DoubleValue
0.00

@<SCITEGIC>MOL_PROPERTY
Sum Probability
SciTegic.value.DoubleValue
100.00

@<SCITEGIC>MOL_PROPERTY
Delta G
SciTegic.value.DoubleValue
6.162

@<SCITEGIC>MOL_PROPERTY
G
SciTegic.value.DoubleValue
64.310

@<SCITEGIC>MOL_PROPERTY
E
SciTegic.value.DoubleValue
27.092

@<SCITEGIC>MOL_PROPERTY
-TS
SciTegic.value.DoubleValue
37.218

@<SCITEGIC>MOL_PROPERTY
U+W
SciTegic.value.DoubleValue
2.947

@<SCITEGIC>MOL_PROPERTY
U
SciTegic.value.DoubleValue
55.354

@<SCITEGIC>MOL_PROPERTY
W
SciTegic.value.DoubleValue
-52.407

@<SCITEGIC>MOL_PROPERTY
W(PB)
SciTegic.value.DoubleValue
-54.803

@<SCITEGIC>MOL_PROPERTY
W(SA)
SciTegic.value.DoubleValue
2.396

@<SCITEGIC>MOL_PROPERTY
Valence
SciTegic.value.DoubleValue
7.420

@<SCITEGIC>MOL_PROPERTY
Coulomb
SciTegic.value.DoubleValue
47.280

@<SCITEGIC>MOL_PROPERTY
VdW
SciTegic.value.DoubleValue
0.654

@<SCITEGIC>MOL_PROPERTY
VdW6
SciTegic.value.DoubleValue
-10.189

@<SCITEGIC>MOL_PROPERTY
VdW12
SciTegic.value.DoubleValue
10.843

@<SCITEGIC>MOL_PROPERTY
Bond
SciTegic.value.DoubleValue
0.301

@<SCITEGIC>MOL_PROPERTY
Angle
SciTegic.value.DoubleValue
1.787

@<SCITEGIC>MOL_PROPERTY
Pdih
SciTegic.value.DoubleValue
5.332

@<SCITEGIC>MOL_PROPERTY
Idih
SciTegic.value.DoubleValue
0.000

@<SCITEGIC>MOL_PROPERTY
Tether
SciTegic.value.DoubleValue
0.000

@<TRIPOS>MOLECULE
guest-3_vm2.mol2 : vm2 ligand conformer 416
          29          28           1
SMALL
USER_CHARGES
 
@<TRIPOS>ATOM
       1    C1      20.897554   20.236506   20.752638 C.3        1 MOL1        -0.2427
       2    H1      21.843623   19.684763   20.828548 H          1 MOL1         0.0958
       3    H2      20.489772   20.079354   19.745546 H          1 MOL1         0.0958
       4    H3      21.120930   21.305657   20.862324 H          1 MOL1         0.0958
       5    C2      19.898413   19.775015   21.834497 C.3        1 MOL1        -0.1412
       6    H4      18.973216   20.361894   21.750332 H          1 MOL1         0.0947
       7    H5      20.327104   19.984488   22.823046 H          1 MOL1         0.0947
       8    C3      19.576145   18.268638   21.707283 C.3        1 MOL1        -0.1437
       9    H6      19.262551   18.057425   20.675620 H          1 MOL1         0.0947
      10    H7      20.491823   17.684484   21.872920 H          1 MOL1         0.0947
      11    C4      18.464388   17.766725   22.664762 C.3        1 MOL1        -0.1437
      12    H8      18.298568   16.702237   22.448530 H          1 MOL1         0.0947
      13    H9      17.513492   18.266462   22.434201 H          1 MOL1         0.0947
      14    C5      18.796943   17.906938   24.172935 C.3        1 MOL1        -0.1437
      15    H10     18.369583   17.044470   24.702918 H          1 MOL1         0.0947
      16    H11     19.880574   17.839196   24.314297 H          1 MOL1         0.0947
      17    C6      18.216260   19.196417   24.810235 C.3        1 MOL1        -0.1437
      18    H12     17.125205   19.175093   24.681852 H          1 MOL1         0.0947
      19    H13     18.560716   20.092428   24.280449 H          1 MOL1         0.0947
      20    C7      18.518312   19.342173   26.323623 C.3        1 MOL1        -0.1477
      21    H14     17.755692   20.001231   26.759480 H          1 MOL1         0.0947
      22    H15     18.409506   18.376712   26.835285 H          1 MOL1         0.0947
      23    C8      19.894105   19.965977   26.640537 C.3        1 MOL1         0.0145
      24    H16     19.939425   20.202155   27.707142 H          1 MOL1         0.0921
      25    H17     20.011389   20.899234   26.083281 H          1 MOL1         0.0921
      26    N1      21.081880   19.079612   26.328489 N.4        1 MOL1        -0.5969
      27    H18     21.033619   18.188807   26.833813 H          1 MOL1         0.3603
      28    H19     21.967751   19.526168   26.590126 H          1 MOL1         0.3603
      29    H20     21.136879   18.863420   25.328997 H          1 MOL1         0.3603
@<TRIPOS>BOND
    1     1     2    1
    2     1     3    1
    3     1     4    1
    4     1     5    1
    5     5     6    1
    6     5     7    1
    7     5     8    1
    8     8     9    1
    9     8    10    1
   10     8    11    1
   11    11    12    1
   12    11    13    1
   13    11    14    1
   14    14    15    1
   15    14    16    1
   16    14    17    1
   17    17    18    1
   18    17    19    1
   19    17    20    1
   20    20    21    1
   21    20    22    1
   22    20    23    1
   23    23    24    1
   24    23    25    1
   25    23    26    1
   26    26    27    1
   27    26    28    1
   28    26    29    1
@<TRIPOS>SUBSTRUCTURE
       1 MOL1            1 RESIDUE      1      MOL     
@<SCITEGIC>MOL_PROPERTY
VM2 Rank
SciTegic.value.IntegerValue
416

@<SCITEGIC>MOL_PROPERTY
Conf_Id
SciTegic.value.IntegerValue
871

@<SCITEGIC>MOL_PROPERTY
Probability
SciTegic.value.DoubleValue
0.00

@<SCITEGIC>MOL_PROPERTY
Sum Probability
SciTegic.value.DoubleValue
100.00

@<SCITEGIC>MOL_PROPERTY
Delta G
SciTegic.value.DoubleValue
6.182

@<SCITEGIC>MOL_PROPERTY
G
SciTegic.value.DoubleValue
64.330

@<SCITEGIC>MOL_PROPERTY
E
SciTegic.value.DoubleValue
27.127

@<SCITEGIC>MOL_PROPERTY
-TS
SciTegic.value.DoubleValue
37.203

@<SCITEGIC>MOL_PROPERTY
U+W
SciTegic.value.DoubleValue
2.983

@<SCITEGIC>MOL_PROPERTY
U
SciTegic.value.DoubleValue
55.351

@<SCITEGIC>MOL_PROPERTY
W
SciTegic.value.DoubleValue
-52.369

@<SCITEGIC>MOL_PROPERTY
W(PB)
SciTegic.value.DoubleValue
-54.772

@<SCITEGIC>MOL_PROPERTY
W(SA)
SciTegic.value.DoubleValue
2.403

@<SCITEGIC>MOL_PROPERTY
Valence
SciTegic.value.DoubleValue
7.418

@<SCITEGIC>MOL_PROPERTY
Coulomb
SciTegic.value.DoubleValue
47.279

@<SCITEGIC>MOL_PROPERTY
VdW
SciTegic.value.DoubleValue
0.655

@<SCITEGIC>MOL_PROPERTY
VdW6
SciTegic.value.DoubleValue
-10.188

@<SCITEGIC>MOL_PROPERTY
VdW12
SciTegic.value.DoubleValue
10.843

@<SCITEGIC>MOL_PROPERTY
Bond
SciTegic.value.DoubleValue
0.301

@<SCITEGIC>MOL_PROPERTY
Angle
SciTegic.value.DoubleValue
1.788

@<SCITEGIC>MOL_PROPERTY
Pdih
SciTegic.value.DoubleValue
5.329

@<SCITEGIC>MOL_PROPERTY
Idih
SciTegic.value.DoubleValue
0.000

@<SCITEGIC>MOL_PROPERTY
Tether
SciTegic.value.DoubleValue
0.000

@<TRIPOS>MOLECULE
guest-3_vm2.mol2 : vm2 ligand conformer 417
          29          28           1
SMALL
USER_CHARGES
 
@<TRIPOS>ATOM
       1    C1      21.071796   19.833044   20.604880 C.3        1 MOL1        -0.2427
       2    H1      20.983163   18.974447   19.926506 H          1 MOL1         0.0958
       3    H2      21.256013   20.726941   19.994934 H          1 MOL1         0.0958
       4    H3      21.949896   19.674489   21.244432 H          1 MOL1         0.0958
       5    C2      19.792957   20.005189   21.451310 C.3        1 MOL1        -0.1412
       6    H4      18.938344   20.196414   20.787277 H          1 MOL1         0.0947
       7    H5      19.898788   20.889785   22.094795 H          1 MOL1         0.0947
       8    C3      19.510291   18.759537   22.319247 C.3        1 MOL1        -0.1437
       9    H6      19.402947   17.879501   21.670175 H          1 MOL1         0.0947
      10    H7      20.374047   18.561776   22.964882 H          1 MOL1         0.0947
      11    C4      18.225222   18.928259   23.166117 C.3        1 MOL1        -0.1437
      12    H8      17.372822   19.006503   22.477119 H          1 MOL1         0.0947
      13    H9      18.244164   19.873228   23.724905 H          1 MOL1         0.0947
      14    C5      17.972353   17.741783   24.130423 C.3        1 MOL1        -0.1437
      15    H10     16.891105   17.546884   24.149194 H          1 MOL1         0.0947
      16    H11     18.427007   16.824371   23.731838 H          1 MOL1         0.0947
      17    C6      18.426445   17.964897   25.598342 C.3        1 MOL1        -0.1437
      18    H12     18.109116   17.084502   26.174118 H          1 MOL1         0.0947
      19    H13     17.877222   18.809395   26.034170 H          1 MOL1         0.0947
      20    C7      19.953333   18.141073   25.811332 C.3        1 MOL1        -0.1477
      21    H14     20.203712   17.848589   26.839734 H          1 MOL1         0.0947
      22    H15     20.499100   17.444774   25.161389 H          1 MOL1         0.0947
      23    C8      20.471882   19.576691   25.583885 C.3        1 MOL1         0.0145
      24    H16     20.218275   19.915243   24.577646 H          1 MOL1         0.0921
      25    H17     21.561014   19.585410   25.679582 H          1 MOL1         0.0921
      26    N1      19.919723   20.587527   26.569464 N.4        1 MOL1        -0.5969
      27    H18     18.899038   20.655277   26.511318 H          1 MOL1         0.3603
      28    H19     20.294799   21.527482   26.401726 H          1 MOL1         0.3603
      29    H20     20.152313   20.340406   27.536936 H          1 MOL1         0.3603
@<TRIPOS>BOND
    1     1     2    1
    2     1     3    1
    3     1     4    1
    4     1     5    1
    5     5     6    1
    6     5     7    1
    7     5     8    1
    8     8     9    1
    9     8    10    1
   10     8    11    1
   11    11    12    1
   12    11    13    1
   13    11    14    1
   14    14    15    1
   15    14    16    1
   16    14    17    1
   17    17    18    1
   18    17    19    1
   19    17    20    1
   20    20    21    1
   21    20    22    1
   22    20    23    1
   23    23    24    1
   24    23    25    1
   25    23    26    1
   26    26    27    1
   27    26    28    1
   28    26    29    1
@<TRIPOS>SUBSTRUCTURE
       1 MOL1            1 RESIDUE      1      MOL     
@<SCITEGIC>MOL_PROPERTY
VM2 Rank
SciTegic.value.IntegerValue
417

@<SCITEGIC>MOL_PROPERTY
Conf_Id
SciTegic.value.IntegerValue
2279

@<SCITEGIC>MOL_PROPERTY
Probability
SciTegic.value.DoubleValue
0.00

@<SCITEGIC>MOL_PROPERTY
Sum Probability
SciTegic.value.DoubleValue
100.00

@<SCITEGIC>MOL_PROPERTY
Delta G
SciTegic.value.DoubleValue
6.185

@<SCITEGIC>MOL_PROPERTY
G
SciTegic.value.DoubleValue
64.333

@<SCITEGIC>MOL_PROPERTY
E
SciTegic.value.DoubleValue
26.117

@<SCITEGIC>MOL_PROPERTY
-TS
SciTegic.value.DoubleValue
38.216

@<SCITEGIC>MOL_PROPERTY
U+W
SciTegic.value.DoubleValue
1.973

@<SCITEGIC>MOL_PROPERTY
U
SciTegic.value.DoubleValue
54.652

@<SCITEGIC>MOL_PROPERTY
W
SciTegic.value.DoubleValue
-52.679

@<SCITEGIC>MOL_PROPERTY
W(PB)
SciTegic.value.DoubleValue
-55.069

@<SCITEGIC>MOL_PROPERTY
W(SA)
SciTegic.value.DoubleValue
2.390

@<SCITEGIC>MOL_PROPERTY
Valence
SciTegic.value.DoubleValue
7.653

@<SCITEGIC>MOL_PROPERTY
Coulomb
SciTegic.value.DoubleValue
46.632

@<SCITEGIC>MOL_PROPERTY
VdW
SciTegic.value.DoubleValue
0.367

@<SCITEGIC>MOL_PROPERTY
VdW6
SciTegic.value.DoubleValue
-10.915

@<SCITEGIC>MOL_PROPERTY
VdW12
SciTegic.value.DoubleValue
11.282

@<SCITEGIC>MOL_PROPERTY
Bond
SciTegic.value.DoubleValue
0.293

@<SCITEGIC>MOL_PROPERTY
Angle
SciTegic.value.DoubleValue
1.887

@<SCITEGIC>MOL_PROPERTY
Pdih
SciTegic.value.DoubleValue
5.473

@<SCITEGIC>MOL_PROPERTY
Idih
SciTegic.value.DoubleValue
0.000

@<SCITEGIC>MOL_PROPERTY
Tether
SciTegic.value.DoubleValue
0.000

@<TRIPOS>MOLECULE
guest-3_vm2.mol2 : vm2 ligand conformer 418
          29          28           1
SMALL
USER_CHARGES
 
@<TRIPOS>ATOM
       1    C1      18.873984   18.434028   20.427736 C.3        1 MOL1        -0.2427
       2    H1      18.332115   17.956602   21.253631 H          1 MOL1         0.0958
       3    H2      18.244507   18.354232   19.532063 H          1 MOL1         0.0958
       4    H3      19.796288   17.868844   20.241390 H          1 MOL1         0.0958
       5    C2      19.182216   19.914505   20.740628 C.3        1 MOL1        -0.1412
       6    H4      18.244494   20.442079   20.964291 H          1 MOL1         0.0947
       7    H5      19.589887   20.388417   19.836799 H          1 MOL1         0.0947
       8    C3      20.185636   20.125408   21.903122 C.3        1 MOL1        -0.1437
       9    H6      21.159475   19.685639   21.647306 H          1 MOL1         0.0947
      10    H7      20.363258   21.205917   21.994338 H          1 MOL1         0.0947
      11    C4      19.700333   19.597022   23.278001 C.3        1 MOL1        -0.1437
      12    H8      18.602967   19.620428   23.323125 H          1 MOL1         0.0947
      13    H9      20.060441   20.288314   24.050743 H          1 MOL1         0.0947
      14    C5      20.228334   18.178957   23.609960 C.3        1 MOL1        -0.1437
      15    H10     20.065505   17.512804   22.754404 H          1 MOL1         0.0947
      16    H11     21.317146   18.222996   23.750070 H          1 MOL1         0.0947
      17    C6      19.576240   17.526099   24.856125 C.3        1 MOL1        -0.1437
      18    H12     19.992432   16.514007   24.955400 H          1 MOL1         0.0947
      19    H13     18.498614   17.389505   24.690048 H          1 MOL1         0.0947
      20    C7      19.816643   18.277826   26.189540 C.3        1 MOL1        -0.1477
      21    H14     19.760093   17.553718   27.013224 H          1 MOL1         0.0947
      22    H15     20.833016   18.693006   26.210706 H          1 MOL1         0.0947
      23    C8      18.779459   19.386083   26.455640 C.3        1 MOL1         0.0145
      24    H16     17.776182   18.951945   26.472669 H          1 MOL1         0.0921
      25    H17     18.813396   20.135470   25.662806 H          1 MOL1         0.0921
      26    N1      19.001154   20.098073   27.774247 N.4        1 MOL1        -0.5969
      27    H18     18.949071   19.452964   28.569589 H          1 MOL1         0.3603
      28    H19     18.299177   20.828668   27.935695 H          1 MOL1         0.3603
      29    H20     19.919796   20.551893   27.813366 H          1 MOL1         0.3603
@<TRIPOS>BOND
    1     1     2    1
    2     1     3    1
    3     1     4    1
    4     1     5    1
    5     5     6    1
    6     5     7    1
    7     5     8    1
    8     8     9    1
    9     8    10    1
   10     8    11    1
   11    11    12    1
   12    11    13    1
   13    11    14    1
   14    14    15    1
   15    14    16    1
   16    14    17    1
   17    17    18    1
   18    17    19    1
   19    17    20    1
   20    20    21    1
   21    20    22    1
   22    20    23    1
   23    23    24    1
   24    23    25    1
   25    23    26    1
   26    26    27    1
   27    26    28    1
   28    26    29    1
@<TRIPOS>SUBSTRUCTURE
       1 MOL1            1 RESIDUE      1      MOL     
@<SCITEGIC>MOL_PROPERTY
VM2 Rank
SciTegic.value.IntegerValue
418

@<SCITEGIC>MOL_PROPERTY
Conf_Id
SciTegic.value.IntegerValue
611

@<SCITEGIC>MOL_PROPERTY
Probability
SciTegic.value.DoubleValue
0.00

@<SCITEGIC>MOL_PROPERTY
Sum Probability
SciTegic.value.DoubleValue
100.00

@<SCITEGIC>MOL_PROPERTY
Delta G
SciTegic.value.DoubleValue
6.206

@<SCITEGIC>MOL_PROPERTY
G
SciTegic.value.DoubleValue
64.354

@<SCITEGIC>MOL_PROPERTY
E
SciTegic.value.DoubleValue
26.407

@<SCITEGIC>MOL_PROPERTY
-TS
SciTegic.value.DoubleValue
37.947

@<SCITEGIC>MOL_PROPERTY
U+W
SciTegic.value.DoubleValue
2.263

@<SCITEGIC>MOL_PROPERTY
U
SciTegic.value.DoubleValue
54.545

@<SCITEGIC>MOL_PROPERTY
W
SciTegic.value.DoubleValue
-52.282

@<SCITEGIC>MOL_PROPERTY
W(PB)
SciTegic.value.DoubleValue
-54.732

@<SCITEGIC>MOL_PROPERTY
W(SA)
SciTegic.value.DoubleValue
2.450

@<SCITEGIC>MOL_PROPERTY
Valence
SciTegic.value.DoubleValue
7.959

@<SCITEGIC>MOL_PROPERTY
Coulomb
SciTegic.value.DoubleValue
45.783

@<SCITEGIC>MOL_PROPERTY
VdW
SciTegic.value.DoubleValue
0.803

@<SCITEGIC>MOL_PROPERTY
VdW6
SciTegic.value.DoubleValue
-10.230

@<SCITEGIC>MOL_PROPERTY
VdW12
SciTegic.value.DoubleValue
11.033

@<SCITEGIC>MOL_PROPERTY
Bond
SciTegic.value.DoubleValue
0.297

@<SCITEGIC>MOL_PROPERTY
Angle
SciTegic.value.DoubleValue
1.858

@<SCITEGIC>MOL_PROPERTY
Pdih
SciTegic.value.DoubleValue
5.804

@<SCITEGIC>MOL_PROPERTY
Idih
SciTegic.value.DoubleValue
0.000

@<SCITEGIC>MOL_PROPERTY
Tether
SciTegic.value.DoubleValue
0.000

@<TRIPOS>MOLECULE
guest-3_vm2.mol2 : vm2 ligand conformer 419
          29          28           1
SMALL
USER_CHARGES
 
@<TRIPOS>ATOM
       1    C1      21.035081   20.063084   21.818509 C.3        1 MOL1        -0.2427
       2    H1      21.364007   21.105432   21.918927 H          1 MOL1         0.0958
       3    H2      21.103785   19.596263   22.806720 H          1 MOL1         0.0958
       4    H3      21.745227   19.552319   21.155376 H          1 MOL1         0.0958
       5    C2      19.601502   20.001342   21.241470 C.3        1 MOL1        -0.1412
       6    H4      19.614561   20.495396   20.259852 H          1 MOL1         0.0947
       7    H5      18.907544   20.586197   21.859937 H          1 MOL1         0.0947
       8    C3      19.072967   18.556562   21.055229 C.3        1 MOL1        -0.1437
       9    H6      18.431338   18.547916   20.163263 H          1 MOL1         0.0947
      10    H7      19.903970   17.876277   20.823502 H          1 MOL1         0.0947
      11    C4      18.231396   17.988724   22.230345 C.3        1 MOL1        -0.1437
      12    H8      17.832805   17.017999   21.904488 H          1 MOL1         0.0947
      13    H9      17.350745   18.622250   22.403970 H          1 MOL1         0.0947
      14    C5      19.000547   17.762124   23.556613 C.3        1 MOL1        -0.1437
      15    H10     18.602101   16.858481   24.038358 H          1 MOL1         0.0947
      16    H11     20.057301   17.548695   23.347862 H          1 MOL1         0.0947
      17    C6      18.861309   18.936898   24.555407 C.3        1 MOL1        -0.1437
      18    H12     17.802263   19.067228   24.817933 H          1 MOL1         0.0947
      19    H13     19.183472   19.876244   24.091002 H          1 MOL1         0.0947
      20    C7      19.681764   18.696271   25.841318 C.3        1 MOL1        -0.1477
      21    H14     19.351158   17.766260   26.322815 H          1 MOL1         0.0947
      22    H15     20.741742   18.567645   25.584552 H          1 MOL1         0.0947
      23    C8      19.533616   19.865773   26.830093 C.3        1 MOL1         0.0145
      24    H16     18.481498   19.987404   27.101579 H          1 MOL1         0.0921
      25    H17     19.877255   20.791206   26.360047 H          1 MOL1         0.0921
      26    N1      20.325818   19.667221   28.106015 N.4        1 MOL1        -0.5969
      27    H18     20.031197   18.824804   28.611033 H          1 MOL1         0.3603
      28    H19     20.213237   20.457120   28.751060 H          1 MOL1         0.3603
      29    H20     21.330043   19.573011   27.921290 H          1 MOL1         0.3603
@<TRIPOS>BOND
    1     1     2    1
    2     1     3    1
    3     1     4    1
    4     1     5    1
    5     5     6    1
    6     5     7    1
    7     5     8    1
    8     8     9    1
    9     8    10    1
   10     8    11    1
   11    11    12    1
   12    11    13    1
   13    11    14    1
   14    14    15    1
   15    14    16    1
   16    14    17    1
   17    17    18    1
   18    17    19    1
   19    17    20    1
   20    20    21    1
   21    20    22    1
   22    20    23    1
   23    23    24    1
   24    23    25    1
   25    23    26    1
   26    26    27    1
   27    26    28    1
   28    26    29    1
@<TRIPOS>SUBSTRUCTURE
       1 MOL1            1 RESIDUE      1      MOL     
@<SCITEGIC>MOL_PROPERTY
VM2 Rank
SciTegic.value.IntegerValue
419

@<SCITEGIC>MOL_PROPERTY
Conf_Id
SciTegic.value.IntegerValue
472

@<SCITEGIC>MOL_PROPERTY
Probability
SciTegic.value.DoubleValue
0.00

@<SCITEGIC>MOL_PROPERTY
Sum Probability
SciTegic.value.DoubleValue
100.00

@<SCITEGIC>MOL_PROPERTY
Delta G
SciTegic.value.DoubleValue
6.210

@<SCITEGIC>MOL_PROPERTY
G
SciTegic.value.DoubleValue
64.358

@<SCITEGIC>MOL_PROPERTY
E
SciTegic.value.DoubleValue
26.284

@<SCITEGIC>MOL_PROPERTY
-TS
SciTegic.value.DoubleValue
38.074

@<SCITEGIC>MOL_PROPERTY
U+W
SciTegic.value.DoubleValue
2.139

@<SCITEGIC>MOL_PROPERTY
U
SciTegic.value.DoubleValue
54.030

@<SCITEGIC>MOL_PROPERTY
W
SciTegic.value.DoubleValue
-51.891

@<SCITEGIC>MOL_PROPERTY
W(PB)
SciTegic.value.DoubleValue
-54.325

@<SCITEGIC>MOL_PROPERTY
W(SA)
SciTegic.value.DoubleValue
2.434

@<SCITEGIC>MOL_PROPERTY
Valence
SciTegic.value.DoubleValue
8.166

@<SCITEGIC>MOL_PROPERTY
Coulomb
SciTegic.value.DoubleValue
45.306

@<SCITEGIC>MOL_PROPERTY
VdW
SciTegic.value.DoubleValue
0.558

@<SCITEGIC>MOL_PROPERTY
VdW6
SciTegic.value.DoubleValue
-9.882

@<SCITEGIC>MOL_PROPERTY
VdW12
SciTegic.value.DoubleValue
10.440

@<SCITEGIC>MOL_PROPERTY
Bond
SciTegic.value.DoubleValue
0.281

@<SCITEGIC>MOL_PROPERTY
Angle
SciTegic.value.DoubleValue
1.930

@<SCITEGIC>MOL_PROPERTY
Pdih
SciTegic.value.DoubleValue
5.955

@<SCITEGIC>MOL_PROPERTY
Idih
SciTegic.value.DoubleValue
0.000

@<SCITEGIC>MOL_PROPERTY
Tether
SciTegic.value.DoubleValue
0.000

@<TRIPOS>MOLECULE
guest-3_vm2.mol2 : vm2 ligand conformer 420
          29          28           1
SMALL
USER_CHARGES
 
@<TRIPOS>ATOM
       1    C1      20.081536   17.385439   21.757933 C.3        1 MOL1        -0.2427
       2    H1      20.416077   17.664075   22.762746 H          1 MOL1         0.0958
       3    H2      19.676469   16.366747   21.812261 H          1 MOL1         0.0958
       4    H3      20.963768   17.358529   21.105338 H          1 MOL1         0.0958
       5    C2      19.017529   18.361966   21.204570 C.3        1 MOL1        -0.1412
       6    H4      18.101618   18.323015   21.809323 H          1 MOL1         0.0947
       7    H5      18.729108   18.010405   20.204045 H          1 MOL1         0.0947
       8    C3      19.523355   19.821723   21.083456 C.3        1 MOL1        -0.1437
       9    H6      20.600447   19.832540   20.867108 H          1 MOL1         0.0947
      10    H7      19.044093   20.269327   20.201796 H          1 MOL1         0.0947
      11    C4      19.213389   20.746178   22.292123 C.3        1 MOL1        -0.1437
      12    H8      18.128181   20.805235   22.452998 H          1 MOL1         0.0947
      13    H9      19.522360   21.762436   22.010834 H          1 MOL1         0.0947
      14    C5      19.934017   20.382825   23.615225 C.3        1 MOL1        -0.1437
      15    H10     20.890800   19.888728   23.400069 H          1 MOL1         0.0947
      16    H11     20.189343   21.314909   24.138136 H          1 MOL1         0.0947
      17    C6      19.069867   19.521603   24.568440 C.3        1 MOL1        -0.1437
      18    H12     18.732917   18.609199   24.062656 H          1 MOL1         0.0947
      19    H13     18.162886   20.079205   24.840381 H          1 MOL1         0.0947
      20    C7      19.839518   19.138808   25.851297 C.3        1 MOL1        -0.1477
      21    H14     20.745953   18.578871   25.585080 H          1 MOL1         0.0947
      22    H15     20.163979   20.048660   26.373746 H          1 MOL1         0.0947
      23    C8      18.971824   18.288042   26.795048 C.3        1 MOL1         0.0145
      24    H16     18.660469   17.372868   26.284194 H          1 MOL1         0.0921
      25    H17     18.075531   18.847739   27.075843 H          1 MOL1         0.0921
      26    N1      19.692965   17.891416   28.066909 N.4        1 MOL1        -0.5969
      27    H18     19.989425   18.709995   28.608712 H          1 MOL1         0.3603
      28    H19     20.533542   17.337280   27.872408 H          1 MOL1         0.3603
      29    H20     19.097502   17.325680   28.681778 H          1 MOL1         0.3603
@<TRIPOS>BOND
    1     1     2    1
    2     1     3    1
    3     1     4    1
    4     1     5    1
    5     5     6    1
    6     5     7    1
    7     5     8    1
    8     8     9    1
    9     8    10    1
   10     8    11    1
   11    11    12    1
   12    11    13    1
   13    11    14    1
   14    14    15    1
   15    14    16    1
   16    14    17    1
   17    17    18    1
   18    17    19    1
   19    17    20    1
   20    20    21    1
   21    20    22    1
   22    20    23    1
   23    23    24    1
   24    23    25    1
   25    23    26    1
   26    26    27    1
   27    26    28    1
   28    26    29    1
@<TRIPOS>SUBSTRUCTURE
       1 MOL1            1 RESIDUE      1      MOL     
@<SCITEGIC>MOL_PROPERTY
VM2 Rank
SciTegic.value.IntegerValue
420

@<SCITEGIC>MOL_PROPERTY
Conf_Id
SciTegic.value.IntegerValue
145

@<SCITEGIC>MOL_PROPERTY
Probability
SciTegic.value.DoubleValue
0.00

@<SCITEGIC>MOL_PROPERTY
Sum Probability
SciTegic.value.DoubleValue
100.00

@<SCITEGIC>MOL_PROPERTY
Delta G
SciTegic.value.DoubleValue
6.224

@<SCITEGIC>MOL_PROPERTY
G
SciTegic.value.DoubleValue
64.372

@<SCITEGIC>MOL_PROPERTY
E
SciTegic.value.DoubleValue
26.298

@<SCITEGIC>MOL_PROPERTY
-TS
SciTegic.value.DoubleValue
38.073

@<SCITEGIC>MOL_PROPERTY
U+W
SciTegic.value.DoubleValue
2.154

@<SCITEGIC>MOL_PROPERTY
U
SciTegic.value.DoubleValue
54.030

@<SCITEGIC>MOL_PROPERTY
W
SciTegic.value.DoubleValue
-51.876

@<SCITEGIC>MOL_PROPERTY
W(PB)
SciTegic.value.DoubleValue
-54.310

@<SCITEGIC>MOL_PROPERTY
W(SA)
SciTegic.value.DoubleValue
2.434

@<SCITEGIC>MOL_PROPERTY
Valence
SciTegic.value.DoubleValue
8.167

@<SCITEGIC>MOL_PROPERTY
Coulomb
SciTegic.value.DoubleValue
45.305

@<SCITEGIC>MOL_PROPERTY
VdW
SciTegic.value.DoubleValue
0.558

@<SCITEGIC>MOL_PROPERTY
VdW6
SciTegic.value.DoubleValue
-9.881

@<SCITEGIC>MOL_PROPERTY
VdW12
SciTegic.value.DoubleValue
10.439

@<SCITEGIC>MOL_PROPERTY
Bond
SciTegic.value.DoubleValue
0.281

@<SCITEGIC>MOL_PROPERTY
Angle
SciTegic.value.DoubleValue
1.930

@<SCITEGIC>MOL_PROPERTY
Pdih
SciTegic.value.DoubleValue
5.955

@<SCITEGIC>MOL_PROPERTY
Idih
SciTegic.value.DoubleValue
0.000

@<SCITEGIC>MOL_PROPERTY
Tether
SciTegic.value.DoubleValue
0.000

@<TRIPOS>MOLECULE
guest-3_vm2.mol2 : vm2 ligand conformer 421
          29          28           1
SMALL
USER_CHARGES
 
@<TRIPOS>ATOM
       1    C1      20.585580   17.999886   20.169988 C.3        1 MOL1        -0.2427
       2    H1      20.626385   18.058613   19.074580 H          1 MOL1         0.0958
       3    H2      21.615942   18.029002   20.547792 H          1 MOL1         0.0958
       4    H3      20.149722   17.029003   20.439519 H          1 MOL1         0.0958
       5    C2      19.750332   19.162260   20.747137 C.3        1 MOL1        -0.1412
       6    H4      18.735642   19.126403   20.326420 H          1 MOL1         0.0947
       7    H5      20.190739   20.118712   20.432352 H          1 MOL1         0.0947
       8    C3      19.677672   19.103002   22.288838 C.3        1 MOL1        -0.1437
       9    H6      19.242141   18.140917   22.588925 H          1 MOL1         0.0947
      10    H7      20.693908   19.142532   22.704260 H          1 MOL1         0.0947
      11    C4      18.835134   20.262635   22.869565 C.3        1 MOL1        -0.1437
      12    H8      17.803852   20.188579   22.497760 H          1 MOL1         0.0947
      13    H9      19.229260   21.215415   22.489879 H          1 MOL1         0.0947
      14    C5      18.821501   20.322680   24.418604 C.3        1 MOL1        -0.1437
      15    H10     19.841061   20.487747   24.786544 H          1 MOL1         0.0947
      16    H11     18.249383   21.213945   24.711297 H          1 MOL1         0.0947
      17    C6      18.175168   19.085790   25.100072 C.3        1 MOL1        -0.1437
      18    H12     17.432608   18.648927   24.418194 H          1 MOL1         0.0947
      19    H13     17.602702   19.412224   25.979435 H          1 MOL1         0.0947
      20    C7      19.179445   17.986148   25.538071 C.3        1 MOL1        -0.1477
      21    H14     18.660871   17.018419   25.521090 H          1 MOL1         0.0947
      22    H15     20.007447   17.898456   24.824546 H          1 MOL1         0.0947
      23    C8      19.735445   18.186521   26.963584 C.3        1 MOL1         0.0145
      24    H16     20.352927   17.325654   27.233937 H          1 MOL1         0.0921
      25    H17     18.905838   18.243913   27.673338 H          1 MOL1         0.0921
      26    N1      20.583723   19.429078   27.139141 N.4        1 MOL1        -0.5969
      27    H18     20.050385   20.278231   26.927215 H          1 MOL1         0.3603
      28    H19     21.403197   19.419613   26.523331 H          1 MOL1         0.3603
      29    H20     20.930085   19.520766   28.100502 H          1 MOL1         0.3603
@<TRIPOS>BOND
    1     1     2    1
    2     1     3    1
    3     1     4    1
    4     1     5    1
    5     5     6    1
    6     5     7    1
    7     5     8    1
    8     8     9    1
    9     8    10    1
   10     8    11    1
   11    11    12    1
   12    11    13    1
   13    11    14    1
   14    14    15    1
   15    14    16    1
   16    14    17    1
   17    17    18    1
   18    17    19    1
   19    17    20    1
   20    20    21    1
   21    20    22    1
   22    20    23    1
   23    23    24    1
   24    23    25    1
   25    23    26    1
   26    26    27    1
   27    26    28    1
   28    26    29    1
@<TRIPOS>SUBSTRUCTURE
       1 MOL1            1 RESIDUE      1      MOL     
@<SCITEGIC>MOL_PROPERTY
VM2 Rank
SciTegic.value.IntegerValue
421

@<SCITEGIC>MOL_PROPERTY
Conf_Id
SciTegic.value.IntegerValue
1043

@<SCITEGIC>MOL_PROPERTY
Probability
SciTegic.value.DoubleValue
0.00

@<SCITEGIC>MOL_PROPERTY
Sum Probability
SciTegic.value.DoubleValue
100.00

@<SCITEGIC>MOL_PROPERTY
Delta G
SciTegic.value.DoubleValue
6.240

@<SCITEGIC>MOL_PROPERTY
G
SciTegic.value.DoubleValue
64.388

@<SCITEGIC>MOL_PROPERTY
E
SciTegic.value.DoubleValue
26.568

@<SCITEGIC>MOL_PROPERTY
-TS
SciTegic.value.DoubleValue
37.820

@<SCITEGIC>MOL_PROPERTY
U+W
SciTegic.value.DoubleValue
2.424

@<SCITEGIC>MOL_PROPERTY
U
SciTegic.value.DoubleValue
54.599

@<SCITEGIC>MOL_PROPERTY
W
SciTegic.value.DoubleValue
-52.176

@<SCITEGIC>MOL_PROPERTY
W(PB)
SciTegic.value.DoubleValue
-54.634

@<SCITEGIC>MOL_PROPERTY
W(SA)
SciTegic.value.DoubleValue
2.458

@<SCITEGIC>MOL_PROPERTY
Valence
SciTegic.value.DoubleValue
7.415

@<SCITEGIC>MOL_PROPERTY
Coulomb
SciTegic.value.DoubleValue
46.324

@<SCITEGIC>MOL_PROPERTY
VdW
SciTegic.value.DoubleValue
0.860

@<SCITEGIC>MOL_PROPERTY
VdW6
SciTegic.value.DoubleValue
-9.989

@<SCITEGIC>MOL_PROPERTY
VdW12
SciTegic.value.DoubleValue
10.849

@<SCITEGIC>MOL_PROPERTY
Bond
SciTegic.value.DoubleValue
0.296

@<SCITEGIC>MOL_PROPERTY
Angle
SciTegic.value.DoubleValue
1.389

@<SCITEGIC>MOL_PROPERTY
Pdih
SciTegic.value.DoubleValue
5.731

@<SCITEGIC>MOL_PROPERTY
Idih
SciTegic.value.DoubleValue
0.000

@<SCITEGIC>MOL_PROPERTY
Tether
SciTegic.value.DoubleValue
0.000

@<TRIPOS>MOLECULE
guest-3_vm2.mol2 : vm2 ligand conformer 422
          29          28           1
SMALL
USER_CHARGES
 
@<TRIPOS>ATOM
       1    C1      19.454423   20.066723   20.464068 C.3        1 MOL1        -0.2427
       2    H1      20.529119   19.930240   20.287417 H          1 MOL1         0.0958
       3    H2      19.029126   20.561092   19.581141 H          1 MOL1         0.0958
       4    H3      19.323497   20.745833   21.315729 H          1 MOL1         0.0958
       5    C2      18.755176   18.712669   20.713690 C.3        1 MOL1        -0.1412
       6    H4      18.785282   18.124031   19.786172 H          1 MOL1         0.0947
       7    H5      17.691721   18.886552   20.929355 H          1 MOL1         0.0947
       8    C3      19.384096   17.870227   21.852758 C.3        1 MOL1        -0.1437
       9    H6      18.838953   16.917290   21.898586 H          1 MOL1         0.0947
      10    H7      20.420625   17.606765   21.600967 H          1 MOL1         0.0947
      11    C4      19.321482   18.531413   23.254159 C.3        1 MOL1        -0.1437
      12    H8      19.153856   17.737972   23.993778 H          1 MOL1         0.0947
      13    H9      18.454740   19.203730   23.313694 H          1 MOL1         0.0947
      14    C5      20.620956   19.284089   23.634604 C.3        1 MOL1        -0.1437
      15    H10     21.435914   18.557586   23.757554 H          1 MOL1         0.0947
      16    H11     20.926919   19.936906   22.808491 H          1 MOL1         0.0947
      17    C6      20.509290   20.152015   24.914687 C.3        1 MOL1        -0.1437
      18    H12     19.761654   20.944124   24.769349 H          1 MOL1         0.0947
      19    H13     21.469156   20.669967   25.048042 H          1 MOL1         0.0947
      20    C7      20.203002   19.365025   26.213808 C.3        1 MOL1        -0.1477
      21    H14     20.729472   18.401400   26.204236 H          1 MOL1         0.0947
      22    H15     20.604253   19.929313   27.066194 H          1 MOL1         0.0947
      23    C8      18.695545   19.149703   26.450461 C.3        1 MOL1         0.0145
      24    H16     18.260398   18.578709   25.628311 H          1 MOL1         0.0921
      25    H17     18.190632   20.118246   26.498589 H          1 MOL1         0.0921
      26    N1      18.400030   18.406136   27.736765 N.4        1 MOL1        -0.5969
      27    H18     17.392318   18.276264   27.879095 H          1 MOL1         0.3603
      28    H19     18.755326   18.907649   28.557556 H          1 MOL1         0.3603
      29    H20     18.826054   17.473494   27.745141 H          1 MOL1         0.3603
@<TRIPOS>BOND
    1     1     2    1
    2     1     3    1
    3     1     4    1
    4     1     5    1
    5     5     6    1
    6     5     7    1
    7     5     8    1
    8     8     9    1
    9     8    10    1
   10     8    11    1
   11    11    12    1
   12    11    13    1
   13    11    14    1
   14    14    15    1
   15    14    16    1
   16    14    17    1
   17    17    18    1
   18    17    19    1
   19    17    20    1
   20    20    21    1
   21    20    22    1
   22    20    23    1
   23    23    24    1
   24    23    25    1
   25    23    26    1
   26    26    27    1
   27    26    28    1
   28    26    29    1
@<TRIPOS>SUBSTRUCTURE
       1 MOL1            1 RESIDUE      1      MOL     
@<SCITEGIC>MOL_PROPERTY
VM2 Rank
SciTegic.value.IntegerValue
422

@<SCITEGIC>MOL_PROPERTY
Conf_Id
SciTegic.value.IntegerValue
1334

@<SCITEGIC>MOL_PROPERTY
Probability
SciTegic.value.DoubleValue
0.00

@<SCITEGIC>MOL_PROPERTY
Sum Probability
SciTegic.value.DoubleValue
100.00

@<SCITEGIC>MOL_PROPERTY
Delta G
SciTegic.value.DoubleValue
6.299

@<SCITEGIC>MOL_PROPERTY
G
SciTegic.value.DoubleValue
64.447

@<SCITEGIC>MOL_PROPERTY
E
SciTegic.value.DoubleValue
26.501

@<SCITEGIC>MOL_PROPERTY
-TS
SciTegic.value.DoubleValue
37.947

@<SCITEGIC>MOL_PROPERTY
U+W
SciTegic.value.DoubleValue
2.356

@<SCITEGIC>MOL_PROPERTY
U
SciTegic.value.DoubleValue
54.545

@<SCITEGIC>MOL_PROPERTY
W
SciTegic.value.DoubleValue
-52.189

@<SCITEGIC>MOL_PROPERTY
W(PB)
SciTegic.value.DoubleValue
-54.626

@<SCITEGIC>MOL_PROPERTY
W(SA)
SciTegic.value.DoubleValue
2.437

@<SCITEGIC>MOL_PROPERTY
Valence
SciTegic.value.DoubleValue
7.959

@<SCITEGIC>MOL_PROPERTY
Coulomb
SciTegic.value.DoubleValue
45.783

@<SCITEGIC>MOL_PROPERTY
VdW
SciTegic.value.DoubleValue
0.803

@<SCITEGIC>MOL_PROPERTY
VdW6
SciTegic.value.DoubleValue
-10.230

@<SCITEGIC>MOL_PROPERTY
VdW12
SciTegic.value.DoubleValue
11.033

@<SCITEGIC>MOL_PROPERTY
Bond
SciTegic.value.DoubleValue
0.297

@<SCITEGIC>MOL_PROPERTY
Angle
SciTegic.value.DoubleValue
1.858

@<SCITEGIC>MOL_PROPERTY
Pdih
SciTegic.value.DoubleValue
5.803

@<SCITEGIC>MOL_PROPERTY
Idih
SciTegic.value.DoubleValue
0.000

@<SCITEGIC>MOL_PROPERTY
Tether
SciTegic.value.DoubleValue
0.000

@<TRIPOS>MOLECULE
guest-3_vm2.mol2 : vm2 ligand conformer 423
          29          28           1
SMALL
USER_CHARGES
 
@<TRIPOS>ATOM
       1    C1      20.767983   19.389624   20.657001 C.3        1 MOL1        -0.2427
       2    H1      20.224297   20.339129   20.737885 H          1 MOL1         0.0958
       3    H2      21.572079   19.383903   21.404106 H          1 MOL1         0.0958
       4    H3      21.232938   19.359464   19.663152 H          1 MOL1         0.0958
       5    C2      19.823046   18.183022   20.848251 C.3        1 MOL1        -0.1412
       6    H4      20.381430   17.260554   20.636279 H          1 MOL1         0.0947
       7    H5      19.016603   18.228839   20.103114 H          1 MOL1         0.0947
       8    C3      19.212840   18.076328   22.268893 C.3        1 MOL1        -0.1437
       9    H6      18.618650   17.153027   22.307930 H          1 MOL1         0.0947
      10    H7      20.015476   17.946480   23.005389 H          1 MOL1         0.0947
      11    C4      18.290783   19.263242   22.659561 C.3        1 MOL1        -0.1437
      12    H8      17.452520   18.890034   23.263723 H          1 MOL1         0.0947
      13    H9      17.830974   19.671938   21.749297 H          1 MOL1         0.0947
      14    C5      19.002437   20.406166   23.433162 C.3        1 MOL1        -0.1437
      15    H10     20.055951   20.480548   23.135849 H          1 MOL1         0.0947
      16    H11     18.541256   21.358649   23.137901 H          1 MOL1         0.0947
      17    C6      18.902143   20.293401   24.976222 C.3        1 MOL1        -0.1437
      18    H12     17.844956   20.307417   25.275667 H          1 MOL1         0.0947
      19    H13     19.357277   21.189938   25.419707 H          1 MOL1         0.0947
      20    C7      19.587943   19.039926   25.565687 C.3        1 MOL1        -0.1477
      21    H14     19.087575   18.133720   25.201476 H          1 MOL1         0.0947
      22    H15     20.632154   18.996810   25.228861 H          1 MOL1         0.0947
      23    C8      19.547278   19.050109   27.103702 C.3        1 MOL1         0.0145
      24    H16     18.508713   19.078369   27.444318 H          1 MOL1         0.0921
      25    H17     20.057374   19.941083   27.479724 H          1 MOL1         0.0921
      26    N1      20.209547   17.836183   27.722521 N.4        1 MOL1        -0.5969
      27    H18     19.757569   16.963641   27.429596 H          1 MOL1         0.3603
      28    H19     20.171556   17.863025   28.747480 H          1 MOL1         0.3603
      29    H20     21.198871   17.766648   27.462045 H          1 MOL1         0.3603
@<TRIPOS>BOND
    1     1     2    1
    2     1     3    1
    3     1     4    1
    4     1     5    1
    5     5     6    1
    6     5     7    1
    7     5     8    1
    8     8     9    1
    9     8    10    1
   10     8    11    1
   11    11    12    1
   12    11    13    1
   13    11    14    1
   14    14    15    1
   15    14    16    1
   16    14    17    1
   17    17    18    1
   18    17    19    1
   19    17    20    1
   20    20    21    1
   21    20    22    1
   22    20    23    1
   23    23    24    1
   24    23    25    1
   25    23    26    1
   26    26    27    1
   27    26    28    1
   28    26    29    1
@<TRIPOS>SUBSTRUCTURE
       1 MOL1            1 RESIDUE      1      MOL     
@<SCITEGIC>MOL_PROPERTY
VM2 Rank
SciTegic.value.IntegerValue
423

@<SCITEGIC>MOL_PROPERTY
Conf_Id
SciTegic.value.IntegerValue
111

@<SCITEGIC>MOL_PROPERTY
Probability
SciTegic.value.DoubleValue
0.00

@<SCITEGIC>MOL_PROPERTY
Sum Probability
SciTegic.value.DoubleValue
100.00

@<SCITEGIC>MOL_PROPERTY
Delta G
SciTegic.value.DoubleValue
6.343

@<SCITEGIC>MOL_PROPERTY
G
SciTegic.value.DoubleValue
64.491

@<SCITEGIC>MOL_PROPERTY
E
SciTegic.value.DoubleValue
26.451

@<SCITEGIC>MOL_PROPERTY
-TS
SciTegic.value.DoubleValue
38.040

@<SCITEGIC>MOL_PROPERTY
U+W
SciTegic.value.DoubleValue
2.307

@<SCITEGIC>MOL_PROPERTY
U
SciTegic.value.DoubleValue
54.449

@<SCITEGIC>MOL_PROPERTY
W
SciTegic.value.DoubleValue
-52.142

@<SCITEGIC>MOL_PROPERTY
W(PB)
SciTegic.value.DoubleValue
-54.574

@<SCITEGIC>MOL_PROPERTY
W(SA)
SciTegic.value.DoubleValue
2.432

@<SCITEGIC>MOL_PROPERTY
Valence
SciTegic.value.DoubleValue
8.133

@<SCITEGIC>MOL_PROPERTY
Coulomb
SciTegic.value.DoubleValue
45.482

@<SCITEGIC>MOL_PROPERTY
VdW
SciTegic.value.DoubleValue
0.833

@<SCITEGIC>MOL_PROPERTY
VdW6
SciTegic.value.DoubleValue
-10.226

@<SCITEGIC>MOL_PROPERTY
VdW12
SciTegic.value.DoubleValue
11.060

@<SCITEGIC>MOL_PROPERTY
Bond
SciTegic.value.DoubleValue
0.317

@<SCITEGIC>MOL_PROPERTY
Angle
SciTegic.value.DoubleValue
1.634

@<SCITEGIC>MOL_PROPERTY
Pdih
SciTegic.value.DoubleValue
6.182

@<SCITEGIC>MOL_PROPERTY
Idih
SciTegic.value.DoubleValue
0.000

@<SCITEGIC>MOL_PROPERTY
Tether
SciTegic.value.DoubleValue
0.000

@<TRIPOS>MOLECULE
guest-3_vm2.mol2 : vm2 ligand conformer 424
          29          28           1
SMALL
USER_CHARGES
 
@<TRIPOS>ATOM
       1    C1      19.001441   19.820059   20.227737 C.3        1 MOL1        -0.2427
       2    H1      18.011255   19.471089   20.545669 H          1 MOL1         0.0958
       3    H2      18.848329   20.654404   19.531074 H          1 MOL1         0.0958
       4    H3      19.492502   19.007961   19.676035 H          1 MOL1         0.0958
       5    C2      19.858798   20.271874   21.431618 C.3        1 MOL1        -0.1412
       6    H4      19.329967   21.059436   21.986258 H          1 MOL1         0.0947
       7    H5      20.783311   20.730194   21.053403 H          1 MOL1         0.0947
       8    C3      20.235030   19.116288   22.390338 C.3        1 MOL1        -0.1437
       9    H6      20.772824   18.338167   21.831396 H          1 MOL1         0.0947
      10    H7      20.944556   19.507972   23.128326 H          1 MOL1         0.0947
      11    C4      19.011634   18.489122   23.107223 C.3        1 MOL1        -0.1437
      12    H8      18.340265   18.061620   22.351349 H          1 MOL1         0.0947
      13    H9      18.430611   19.270104   23.607550 H          1 MOL1         0.0947
      14    C5      19.380974   17.351680   24.096584 C.3        1 MOL1        -0.1437
      15    H10     18.462131   16.849400   24.428855 H          1 MOL1         0.0947
      16    H11     19.944269   16.591024   23.538514 H          1 MOL1         0.0947
      17    C6      20.215289   17.759353   25.342815 C.3        1 MOL1        -0.1437
      18    H12     21.020659   18.452325   25.074351 H          1 MOL1         0.0947
      19    H13     20.728726   16.856722   25.701882 H          1 MOL1         0.0947
      20    C7      19.393989   18.315582   26.537154 C.3        1 MOL1        -0.1477
      21    H14     18.654621   17.566096   26.849026 H          1 MOL1         0.0947
      22    H15     20.067197   18.448617   27.394411 H          1 MOL1         0.0947
      23    C8      18.665393   19.648499   26.279932 C.3        1 MOL1         0.0145
      24    H16     18.176895   19.976080   27.201608 H          1 MOL1         0.0921
      25    H17     17.890413   19.507045   25.523747 H          1 MOL1         0.0921
      26    N1      19.581452   20.765542   25.821599 N.4        1 MOL1        -0.5969
      27    H18     20.316707   20.958466   26.509783 H          1 MOL1         0.3603
      28    H19     19.069053   21.642076   25.674311 H          1 MOL1         0.3603
      29    H20     20.042346   20.527636   24.937800 H          1 MOL1         0.3603
@<TRIPOS>BOND
    1     1     2    1
    2     1     3    1
    3     1     4    1
    4     1     5    1
    5     5     6    1
    6     5     7    1
    7     5     8    1
    8     8     9    1
    9     8    10    1
   10     8    11    1
   11    11    12    1
   12    11    13    1
   13    11    14    1
   14    14    15    1
   15    14    16    1
   16    14    17    1
   17    17    18    1
   18    17    19    1
   19    17    20    1
   20    20    21    1
   21    20    22    1
   22    20    23    1
   23    23    24    1
   24    23    25    1
   25    23    26    1
   26    26    27    1
   27    26    28    1
   28    26    29    1
@<TRIPOS>SUBSTRUCTURE
       1 MOL1            1 RESIDUE      1      MOL     
@<SCITEGIC>MOL_PROPERTY
VM2 Rank
SciTegic.value.IntegerValue
424

@<SCITEGIC>MOL_PROPERTY
Conf_Id
SciTegic.value.IntegerValue
310

@<SCITEGIC>MOL_PROPERTY
Probability
SciTegic.value.DoubleValue
0.00

@<SCITEGIC>MOL_PROPERTY
Sum Probability
SciTegic.value.DoubleValue
100.00

@<SCITEGIC>MOL_PROPERTY
Delta G
SciTegic.value.DoubleValue
6.344

@<SCITEGIC>MOL_PROPERTY
G
SciTegic.value.DoubleValue
64.492

@<SCITEGIC>MOL_PROPERTY
E
SciTegic.value.DoubleValue
26.357

@<SCITEGIC>MOL_PROPERTY
-TS
SciTegic.value.DoubleValue
38.135

@<SCITEGIC>MOL_PROPERTY
U+W
SciTegic.value.DoubleValue
2.213

@<SCITEGIC>MOL_PROPERTY
U
SciTegic.value.DoubleValue
54.378

@<SCITEGIC>MOL_PROPERTY
W
SciTegic.value.DoubleValue
-52.166

@<SCITEGIC>MOL_PROPERTY
W(PB)
SciTegic.value.DoubleValue
-54.530

@<SCITEGIC>MOL_PROPERTY
W(SA)
SciTegic.value.DoubleValue
2.365

@<SCITEGIC>MOL_PROPERTY
Valence
SciTegic.value.DoubleValue
6.562

@<SCITEGIC>MOL_PROPERTY
Coulomb
SciTegic.value.DoubleValue
47.216

@<SCITEGIC>MOL_PROPERTY
VdW
SciTegic.value.DoubleValue
0.600

@<SCITEGIC>MOL_PROPERTY
VdW6
SciTegic.value.DoubleValue
-11.229

@<SCITEGIC>MOL_PROPERTY
VdW12
SciTegic.value.DoubleValue
11.830

@<SCITEGIC>MOL_PROPERTY
Bond
SciTegic.value.DoubleValue
0.369

@<SCITEGIC>MOL_PROPERTY
Angle
SciTegic.value.DoubleValue
2.511

@<SCITEGIC>MOL_PROPERTY
Pdih
SciTegic.value.DoubleValue
3.682

@<SCITEGIC>MOL_PROPERTY
Idih
SciTegic.value.DoubleValue
0.000

@<SCITEGIC>MOL_PROPERTY
Tether
SciTegic.value.DoubleValue
0.000

@<TRIPOS>MOLECULE
guest-3_vm2.mol2 : vm2 ligand conformer 425
          29          28           1
SMALL
USER_CHARGES
 
@<TRIPOS>ATOM
       1    C1      20.759170   19.068251   20.446157 C.3        1 MOL1        -0.2427
       2    H1      21.296541   18.112123   20.400675 H          1 MOL1         0.0958
       3    H2      20.947255   19.600739   19.504899 H          1 MOL1         0.0958
       4    H3      21.196169   19.662608   21.255927 H          1 MOL1         0.0958
       5    C2      19.242459   18.839756   20.643751 C.3        1 MOL1        -0.1412
       6    H4      18.871948   18.268575   19.781006 H          1 MOL1         0.0947
       7    H5      18.705776   19.798462   20.624224 H          1 MOL1         0.0947
       8    C3      18.899581   18.056326   21.937078 C.3        1 MOL1        -0.1437
       9    H6      18.029302   17.418830   21.728330 H          1 MOL1         0.0947
      10    H7      19.716290   17.367025   22.191928 H          1 MOL1         0.0947
      11    C4      18.545750   18.939387   23.161468 C.3        1 MOL1        -0.1437
      12    H8      18.233553   18.276528   23.976502 H          1 MOL1         0.0947
      13    H9      17.667210   19.554448   22.922811 H          1 MOL1         0.0947
      14    C5      19.697700   19.859324   23.637260 C.3        1 MOL1        -0.1437
      15    H10     20.632094   19.288818   23.728595 H          1 MOL1         0.0947
      16    H11     19.871137   20.618547   22.863619 H          1 MOL1         0.0947
      17    C6      19.393107   20.597098   24.966915 C.3        1 MOL1        -0.1437
      18    H12     18.317486   20.806434   25.048558 H          1 MOL1         0.0947
      19    H13     19.885979   21.578698   24.935354 H          1 MOL1         0.0947
      20    C7      19.893912   19.863443   26.236435 C.3        1 MOL1        -0.1477
      21    H14     20.983589   19.739150   26.180949 H          1 MOL1         0.0947
      22    H15     19.697715   20.499107   27.110133 H          1 MOL1         0.0947
      23    C8      19.235049   18.491037   26.460012 C.3        1 MOL1         0.0145
      24    H16     19.488110   17.823166   25.632640 H          1 MOL1         0.0921
      25    H17     18.148275   18.605160   26.494669 H          1 MOL1         0.0921
      26    N1      19.677273   17.823378   27.745923 N.4        1 MOL1        -0.5969
      27    H18     19.445042   18.389020   28.569067 H          1 MOL1         0.3603
      28    H19     20.690104   17.664482   27.764747 H          1 MOL1         0.3603
      29    H20     19.228649   16.909758   27.874864 H          1 MOL1         0.3603
@<TRIPOS>BOND
    1     1     2    1
    2     1     3    1
    3     1     4    1
    4     1     5    1
    5     5     6    1
    6     5     7    1
    7     5     8    1
    8     8     9    1
    9     8    10    1
   10     8    11    1
   11    11    12    1
   12    11    13    1
   13    11    14    1
   14    14    15    1
   15    14    16    1
   16    14    17    1
   17    17    18    1
   18    17    19    1
   19    17    20    1
   20    20    21    1
   21    20    22    1
   22    20    23    1
   23    23    24    1
   24    23    25    1
   25    23    26    1
   26    26    27    1
   27    26    28    1
   28    26    29    1
@<TRIPOS>SUBSTRUCTURE
       1 MOL1            1 RESIDUE      1      MOL     
@<SCITEGIC>MOL_PROPERTY
VM2 Rank
SciTegic.value.IntegerValue
425

@<SCITEGIC>MOL_PROPERTY
Conf_Id
SciTegic.value.IntegerValue
271

@<SCITEGIC>MOL_PROPERTY
Probability
SciTegic.value.DoubleValue
0.00

@<SCITEGIC>MOL_PROPERTY
Sum Probability
SciTegic.value.DoubleValue
100.00

@<SCITEGIC>MOL_PROPERTY
Delta G
SciTegic.value.DoubleValue
6.357

@<SCITEGIC>MOL_PROPERTY
G
SciTegic.value.DoubleValue
64.505

@<SCITEGIC>MOL_PROPERTY
E
SciTegic.value.DoubleValue
26.734

@<SCITEGIC>MOL_PROPERTY
-TS
SciTegic.value.DoubleValue
37.771

@<SCITEGIC>MOL_PROPERTY
U+W
SciTegic.value.DoubleValue
2.589

@<SCITEGIC>MOL_PROPERTY
U
SciTegic.value.DoubleValue
54.695

@<SCITEGIC>MOL_PROPERTY
W
SciTegic.value.DoubleValue
-52.106

@<SCITEGIC>MOL_PROPERTY
W(PB)
SciTegic.value.DoubleValue
-54.546

@<SCITEGIC>MOL_PROPERTY
W(SA)
SciTegic.value.DoubleValue
2.440

@<SCITEGIC>MOL_PROPERTY
Valence
SciTegic.value.DoubleValue
8.195

@<SCITEGIC>MOL_PROPERTY
Coulomb
SciTegic.value.DoubleValue
45.591

@<SCITEGIC>MOL_PROPERTY
VdW
SciTegic.value.DoubleValue
0.910

@<SCITEGIC>MOL_PROPERTY
VdW6
SciTegic.value.DoubleValue
-10.005

@<SCITEGIC>MOL_PROPERTY
VdW12
SciTegic.value.DoubleValue
10.915

@<SCITEGIC>MOL_PROPERTY
Bond
SciTegic.value.DoubleValue
0.309

@<SCITEGIC>MOL_PROPERTY
Angle
SciTegic.value.DoubleValue
1.846

@<SCITEGIC>MOL_PROPERTY
Pdih
SciTegic.value.DoubleValue
6.039

@<SCITEGIC>MOL_PROPERTY
Idih
SciTegic.value.DoubleValue
0.000

@<SCITEGIC>MOL_PROPERTY
Tether
SciTegic.value.DoubleValue
0.000

@<TRIPOS>MOLECULE
guest-3_vm2.mol2 : vm2 ligand conformer 426
          29          28           1
SMALL
USER_CHARGES
 
@<TRIPOS>ATOM
       1    C1      20.316107   18.121265   20.628618 C.3        1 MOL1        -0.2427
       2    H1      20.932280   17.587876   21.363868 H          1 MOL1         0.0958
       3    H2      19.293613   17.726795   20.679551 H          1 MOL1         0.0958
       4    H3      20.709382   17.890171   19.630239 H          1 MOL1         0.0958
       5    C2      20.343825   19.644734   20.880895 C.3        1 MOL1        -0.1412
       6    H4      19.700509   20.148498   20.146019 H          1 MOL1         0.0947
       7    H5      21.362473   20.014183   20.697768 H          1 MOL1         0.0947
       8    C3      19.918418   20.056622   22.313143 C.3        1 MOL1        -0.1437
       9    H6      20.611971   19.620583   23.042779 H          1 MOL1         0.0947
      10    H7      20.041061   21.145183   22.397179 H          1 MOL1         0.0947
      11    C4      18.448302   19.705339   22.669424 C.3        1 MOL1        -0.1437
      12    H8      17.846603   19.715688   21.750245 H          1 MOL1         0.0947
      13    H9      18.026136   20.500065   23.299635 H          1 MOL1         0.0947
      14    C5      18.266399   18.340379   23.387041 C.3        1 MOL1        -0.1437
      15    H10     17.311239   17.906401   23.060815 H          1 MOL1         0.0947
      16    H11     19.039864   17.628730   23.072192 H          1 MOL1         0.0947
      17    C6      18.238169   18.429940   24.934617 C.3        1 MOL1        -0.1437
      18    H12     18.017895   17.430867   25.335784 H          1 MOL1         0.0947
      19    H13     17.405968   19.075425   25.248149 H          1 MOL1         0.0947
      20    C7      19.553458   18.943229   25.563534 C.3        1 MOL1        -0.1477
      21    H14     20.394528   18.329983   25.213937 H          1 MOL1         0.0947
      22    H15     19.743645   19.975258   25.242639 H          1 MOL1         0.0947
      23    C8      19.493837   18.900052   27.100358 C.3        1 MOL1         0.0145
      24    H16     19.320660   17.873189   27.433503 H          1 MOL1         0.0921
      25    H17     18.666470   19.521062   27.454260 H          1 MOL1         0.0921
      26    N1      20.765484   19.396438   27.757370 N.4        1 MOL1        -0.5969
      27    H18     20.970863   20.369018   27.505717 H          1 MOL1         0.3603
      28    H19     21.579656   18.835327   27.485849 H          1 MOL1         0.3603
      29    H20     20.704646   19.358993   28.780894 H          1 MOL1         0.3603
@<TRIPOS>BOND
    1     1     2    1
    2     1     3    1
    3     1     4    1
    4     1     5    1
    5     5     6    1
    6     5     7    1
    7     5     8    1
    8     8     9    1
    9     8    10    1
   10     8    11    1
   11    11    12    1
   12    11    13    1
   13    11    14    1
   14    14    15    1
   15    14    16    1
   16    14    17    1
   17    17    18    1
   18    17    19    1
   19    17    20    1
   20    20    21    1
   21    20    22    1
   22    20    23    1
   23    23    24    1
   24    23    25    1
   25    23    26    1
   26    26    27    1
   27    26    28    1
   28    26    29    1
@<TRIPOS>SUBSTRUCTURE
       1 MOL1            1 RESIDUE      1      MOL     
@<SCITEGIC>MOL_PROPERTY
VM2 Rank
SciTegic.value.IntegerValue
426

@<SCITEGIC>MOL_PROPERTY
Conf_Id
SciTegic.value.IntegerValue
784

@<SCITEGIC>MOL_PROPERTY
Probability
SciTegic.value.DoubleValue
0.00

@<SCITEGIC>MOL_PROPERTY
Sum Probability
SciTegic.value.DoubleValue
100.00

@<SCITEGIC>MOL_PROPERTY
Delta G
SciTegic.value.DoubleValue
6.361

@<SCITEGIC>MOL_PROPERTY
G
SciTegic.value.DoubleValue
64.510

@<SCITEGIC>MOL_PROPERTY
E
SciTegic.value.DoubleValue
26.470

@<SCITEGIC>MOL_PROPERTY
-TS
SciTegic.value.DoubleValue
38.040

@<SCITEGIC>MOL_PROPERTY
U+W
SciTegic.value.DoubleValue
2.325

@<SCITEGIC>MOL_PROPERTY
U
SciTegic.value.DoubleValue
54.449

@<SCITEGIC>MOL_PROPERTY
W
SciTegic.value.DoubleValue
-52.123

@<SCITEGIC>MOL_PROPERTY
W(PB)
SciTegic.value.DoubleValue
-54.568

@<SCITEGIC>MOL_PROPERTY
W(SA)
SciTegic.value.DoubleValue
2.445

@<SCITEGIC>MOL_PROPERTY
Valence
SciTegic.value.DoubleValue
8.134

@<SCITEGIC>MOL_PROPERTY
Coulomb
SciTegic.value.DoubleValue
45.482

@<SCITEGIC>MOL_PROPERTY
VdW
SciTegic.value.DoubleValue
0.833

@<SCITEGIC>MOL_PROPERTY
VdW6
SciTegic.value.DoubleValue
-10.226

@<SCITEGIC>MOL_PROPERTY
VdW12
SciTegic.value.DoubleValue
11.059

@<SCITEGIC>MOL_PROPERTY
Bond
SciTegic.value.DoubleValue
0.317

@<SCITEGIC>MOL_PROPERTY
Angle
SciTegic.value.DoubleValue
1.634

@<SCITEGIC>MOL_PROPERTY
Pdih
SciTegic.value.DoubleValue
6.182

@<SCITEGIC>MOL_PROPERTY
Idih
SciTegic.value.DoubleValue
0.000

@<SCITEGIC>MOL_PROPERTY
Tether
SciTegic.value.DoubleValue
0.000

@<TRIPOS>MOLECULE
guest-3_vm2.mol2 : vm2 ligand conformer 427
          29          28           1
SMALL
USER_CHARGES
 
@<TRIPOS>ATOM
       1    C1      20.515932   18.384221   20.431249 C.3        1 MOL1        -0.2427
       2    H1      21.537072   18.786804   20.416467 H          1 MOL1         0.0958
       3    H2      20.467498   17.615916   21.210553 H          1 MOL1         0.0958
       4    H3      20.338956   17.890461   19.467004 H          1 MOL1         0.0958
       5    C2      19.481824   19.511395   20.658775 C.3        1 MOL1        -0.1412
       6    H4      18.460530   19.108939   20.608624 H          1 MOL1         0.0947
       7    H5      19.567833   20.221776   19.824618 H          1 MOL1         0.0947
       8    C3      19.692359   20.283396   21.986825 C.3        1 MOL1        -0.1437
       9    H6      20.757167   20.291227   22.257416 H          1 MOL1         0.0947
      10    H7      19.423334   21.334916   21.815677 H          1 MOL1         0.0947
      11    C4      18.842891   19.774697   23.180039 C.3        1 MOL1        -0.1437
      12    H8      17.776807   19.862870   22.929479 H          1 MOL1         0.0947
      13    H9      19.007985   20.452831   24.025033 H          1 MOL1         0.0947
      14    C5      19.147947   18.315978   23.602794 C.3        1 MOL1        -0.1437
      15    H10     18.813696   17.649226   22.797351 H          1 MOL1         0.0947
      16    H11     20.231285   18.163819   23.703478 H          1 MOL1         0.0947
      17    C6      18.427062   17.884603   24.906369 C.3        1 MOL1        -0.1437
      18    H12     18.189324   16.814577   24.829011 H          1 MOL1         0.0947
      19    H13     17.460038   18.398879   24.994865 H          1 MOL1         0.0947
      20    C7      19.260864   18.085860   26.196718 C.3        1 MOL1        -0.1477
      21    H14     18.694895   17.683194   27.047276 H          1 MOL1         0.0947
      22    H15     20.184646   17.495770   26.130813 H          1 MOL1         0.0947
      23    C8      19.614267   19.555675   26.483672 C.3        1 MOL1         0.0145
      24    H16     18.699452   20.152618   26.529216 H          1 MOL1         0.0921
      25    H17     20.243933   19.945536   25.679827 H          1 MOL1         0.0921
      26    N1      20.360855   19.742174   27.788558 N.4        1 MOL1        -0.5969
      27    H18     21.245900   19.224482   27.799268 H          1 MOL1         0.3603
      28    H19     19.811980   19.418449   28.591917 H          1 MOL1         0.3603
      29    H20     20.588643   20.727749   27.959864 H          1 MOL1         0.3603
@<TRIPOS>BOND
    1     1     2    1
    2     1     3    1
    3     1     4    1
    4     1     5    1
    5     5     6    1
    6     5     7    1
    7     5     8    1
    8     8     9    1
    9     8    10    1
   10     8    11    1
   11    11    12    1
   12    11    13    1
   13    11    14    1
   14    14    15    1
   15    14    16    1
   16    14    17    1
   17    17    18    1
   18    17    19    1
   19    17    20    1
   20    20    21    1
   21    20    22    1
   22    20    23    1
   23    23    24    1
   24    23    25    1
   25    23    26    1
   26    26    27    1
   27    26    28    1
   28    26    29    1
@<TRIPOS>SUBSTRUCTURE
       1 MOL1            1 RESIDUE      1      MOL     
@<SCITEGIC>MOL_PROPERTY
VM2 Rank
SciTegic.value.IntegerValue
427

@<SCITEGIC>MOL_PROPERTY
Conf_Id
SciTegic.value.IntegerValue
2256

@<SCITEGIC>MOL_PROPERTY
Probability
SciTegic.value.DoubleValue
0.00

@<SCITEGIC>MOL_PROPERTY
Sum Probability
SciTegic.value.DoubleValue
100.00

@<SCITEGIC>MOL_PROPERTY
Delta G
SciTegic.value.DoubleValue
6.384

@<SCITEGIC>MOL_PROPERTY
G
SciTegic.value.DoubleValue
64.532

@<SCITEGIC>MOL_PROPERTY
E
SciTegic.value.DoubleValue
26.760

@<SCITEGIC>MOL_PROPERTY
-TS
SciTegic.value.DoubleValue
37.772

@<SCITEGIC>MOL_PROPERTY
U+W
SciTegic.value.DoubleValue
2.616

@<SCITEGIC>MOL_PROPERTY
U
SciTegic.value.DoubleValue
54.695

@<SCITEGIC>MOL_PROPERTY
W
SciTegic.value.DoubleValue
-52.079

@<SCITEGIC>MOL_PROPERTY
W(PB)
SciTegic.value.DoubleValue
-54.531

@<SCITEGIC>MOL_PROPERTY
W(SA)
SciTegic.value.DoubleValue
2.452

@<SCITEGIC>MOL_PROPERTY
Valence
SciTegic.value.DoubleValue
8.195

@<SCITEGIC>MOL_PROPERTY
Coulomb
SciTegic.value.DoubleValue
45.591

@<SCITEGIC>MOL_PROPERTY
VdW
SciTegic.value.DoubleValue
0.910

@<SCITEGIC>MOL_PROPERTY
VdW6
SciTegic.value.DoubleValue
-10.005

@<SCITEGIC>MOL_PROPERTY
VdW12
SciTegic.value.DoubleValue
10.915

@<SCITEGIC>MOL_PROPERTY
Bond
SciTegic.value.DoubleValue
0.309

@<SCITEGIC>MOL_PROPERTY
Angle
SciTegic.value.DoubleValue
1.847

@<SCITEGIC>MOL_PROPERTY
Pdih
SciTegic.value.DoubleValue
6.039

@<SCITEGIC>MOL_PROPERTY
Idih
SciTegic.value.DoubleValue
0.000

@<SCITEGIC>MOL_PROPERTY
Tether
SciTegic.value.DoubleValue
0.000

@<TRIPOS>MOLECULE
guest-3_vm2.mol2 : vm2 ligand conformer 428
          29          28           1
SMALL
USER_CHARGES
 
@<TRIPOS>ATOM
       1    C1      21.272235   19.304296   21.851363 C.3        1 MOL1        -0.2427
       2    H1      22.198331   19.801810   21.535686 H          1 MOL1         0.0958
       3    H2      21.235072   19.346353   22.946506 H          1 MOL1         0.0958
       4    H3      21.334116   18.252620   21.543207 H          1 MOL1         0.0958
       5    C2      20.045391   19.998031   21.220293 C.3        1 MOL1        -0.1412
       6    H4      20.204811   20.076223   20.135783 H          1 MOL1         0.0947
       7    H5      19.978629   21.029719   21.592868 H          1 MOL1         0.0947
       8    C3      18.700293   19.268254   21.467622 C.3        1 MOL1        -0.1437
       9    H6      17.919886   19.822147   20.927711 H          1 MOL1         0.0947
      10    H7      18.723007   18.268617   21.012338 H          1 MOL1         0.0947
      11    C4      18.281604   19.173122   22.957572 C.3        1 MOL1        -0.1437
      12    H8      17.187134   19.250975   23.014926 H          1 MOL1         0.0947
      13    H9      18.669907   20.039729   23.504351 H          1 MOL1         0.0947
      14    C5      18.700581   17.838690   23.628622 C.3        1 MOL1        -0.1437
      15    H10     18.189556   17.021766   23.100626 H          1 MOL1         0.0947
      16    H11     19.772680   17.647367   23.502511 H          1 MOL1         0.0947
      17    C6      18.326335   17.754372   25.131029 C.3        1 MOL1        -0.1437
      18    H12     18.117998   16.703056   25.373411 H          1 MOL1         0.0947
      19    H13     17.389249   18.295563   25.321629 H          1 MOL1         0.0947
      20    C7      19.434452   18.245752   26.096204 C.3        1 MOL1        -0.1477
      21    H14     19.105890   18.065274   27.128377 H          1 MOL1         0.0947
      22    H15     20.341236   17.644074   25.949168 H          1 MOL1         0.0947
      23    C8      19.779922   19.736694   25.937352 C.3        1 MOL1         0.0145
      24    H16     18.875934   20.339601   26.058312 H          1 MOL1         0.0921
      25    H17     20.185922   19.915429   24.938818 H          1 MOL1         0.0921
      26    N1      20.803188   20.218790   26.944944 N.4        1 MOL1        -0.5969
      27    H18     21.687722   19.706231   26.866060 H          1 MOL1         0.3603
      28    H19     20.472711   20.103804   27.908785 H          1 MOL1         0.3603
      29    H20     21.021315   21.213527   26.820643 H          1 MOL1         0.3603
@<TRIPOS>BOND
    1     1     2    1
    2     1     3    1
    3     1     4    1
    4     1     5    1
    5     5     6    1
    6     5     7    1
    7     5     8    1
    8     8     9    1
    9     8    10    1
   10     8    11    1
   11    11    12    1
   12    11    13    1
   13    11    14    1
   14    14    15    1
   15    14    16    1
   16    14    17    1
   17    17    18    1
   18    17    19    1
   19    17    20    1
   20    20    21    1
   21    20    22    1
   22    20    23    1
   23    23    24    1
   24    23    25    1
   25    23    26    1
   26    26    27    1
   27    26    28    1
   28    26    29    1
@<TRIPOS>SUBSTRUCTURE
       1 MOL1            1 RESIDUE      1      MOL     
@<SCITEGIC>MOL_PROPERTY
VM2 Rank
SciTegic.value.IntegerValue
428

@<SCITEGIC>MOL_PROPERTY
Conf_Id
SciTegic.value.IntegerValue
2484

@<SCITEGIC>MOL_PROPERTY
Probability
SciTegic.value.DoubleValue
0.00

@<SCITEGIC>MOL_PROPERTY
Sum Probability
SciTegic.value.DoubleValue
100.00

@<SCITEGIC>MOL_PROPERTY
Delta G
SciTegic.value.DoubleValue
6.397

@<SCITEGIC>MOL_PROPERTY
G
SciTegic.value.DoubleValue
64.545

@<SCITEGIC>MOL_PROPERTY
E
SciTegic.value.DoubleValue
26.442

@<SCITEGIC>MOL_PROPERTY
-TS
SciTegic.value.DoubleValue
38.103

@<SCITEGIC>MOL_PROPERTY
U+W
SciTegic.value.DoubleValue
2.298

@<SCITEGIC>MOL_PROPERTY
U
SciTegic.value.DoubleValue
54.948

@<SCITEGIC>MOL_PROPERTY
W
SciTegic.value.DoubleValue
-52.650

@<SCITEGIC>MOL_PROPERTY
W(PB)
SciTegic.value.DoubleValue
-55.033

@<SCITEGIC>MOL_PROPERTY
W(SA)
SciTegic.value.DoubleValue
2.383

@<SCITEGIC>MOL_PROPERTY
Valence
SciTegic.value.DoubleValue
8.055

@<SCITEGIC>MOL_PROPERTY
Coulomb
SciTegic.value.DoubleValue
46.364

@<SCITEGIC>MOL_PROPERTY
VdW
SciTegic.value.DoubleValue
0.529

@<SCITEGIC>MOL_PROPERTY
VdW6
SciTegic.value.DoubleValue
-10.581

@<SCITEGIC>MOL_PROPERTY
VdW12
SciTegic.value.DoubleValue
11.110

@<SCITEGIC>MOL_PROPERTY
Bond
SciTegic.value.DoubleValue
0.311

@<SCITEGIC>MOL_PROPERTY
Angle
SciTegic.value.DoubleValue
1.872

@<SCITEGIC>MOL_PROPERTY
Pdih
SciTegic.value.DoubleValue
5.872

@<SCITEGIC>MOL_PROPERTY
Idih
SciTegic.value.DoubleValue
0.000

@<SCITEGIC>MOL_PROPERTY
Tether
SciTegic.value.DoubleValue
0.000

@<TRIPOS>MOLECULE
guest-3_vm2.mol2 : vm2 ligand conformer 429
          29          28           1
SMALL
USER_CHARGES
 
@<TRIPOS>ATOM
       1    C1      20.744015   17.821391   21.818393 C.3        1 MOL1        -0.2427
       2    H1      20.673098   17.768939   22.911419 H          1 MOL1         0.0958
       3    H2      21.151735   16.863590   21.470246 H          1 MOL1         0.0958
       4    H3      21.460918   18.608510   21.551361 H          1 MOL1         0.0958
       5    C2      19.363900   18.084710   21.177604 C.3        1 MOL1        -0.1412
       6    H4      18.654927   17.313601   21.509867 H          1 MOL1         0.0947
       7    H5      19.453410   17.966410   20.088712 H          1 MOL1         0.0947
       8    C3      18.779245   19.489778   21.472561 C.3        1 MOL1        -0.1437
       9    H6      19.434988   20.267190   21.056983 H          1 MOL1         0.0947
      10    H7      17.832131   19.575598   20.922155 H          1 MOL1         0.0947
      11    C4      18.493828   19.768986   22.970853 C.3        1 MOL1        -0.1437
      12    H8      18.239364   18.831183   23.477341 H          1 MOL1         0.0947
      13    H9      17.595707   20.398069   23.040471 H          1 MOL1         0.0947
      14    C5      19.652245   20.510533   23.688305 C.3        1 MOL1        -0.1437
      15    H10     20.605720   19.986168   23.554762 H          1 MOL1         0.0947
      16    H11     19.779910   21.486711   23.200382 H          1 MOL1         0.0947
      17    C6      19.394273   20.752715   25.198005 C.3        1 MOL1        -0.1437
      18    H12     18.323423   20.918342   25.380202 H          1 MOL1         0.0947
      19    H13     19.893678   21.688535   25.484802 H          1 MOL1         0.0947
      20    C7      19.928886   19.633906   26.127195 C.3        1 MOL1        -0.1477
      21    H14     21.013857   19.532507   25.991352 H          1 MOL1         0.0947
      22    H15     19.773712   19.940281   27.170250 H          1 MOL1         0.0947
      23    C8      19.256774   18.267837   25.904462 C.3        1 MOL1         0.0145
      24    H16     19.472618   17.912535   24.894005 H          1 MOL1         0.0921
      25    H17     18.173560   18.367568   26.014111 H          1 MOL1         0.0921
      26    N1      19.730834   17.208143   26.877622 N.4        1 MOL1        -0.5969
      27    H18     19.533760   17.467774   27.849826 H          1 MOL1         0.3603
      28    H19     20.741280   17.049069   26.806666 H          1 MOL1         0.3603
      29    H20     19.273047   16.305273   26.710913 H          1 MOL1         0.3603
@<TRIPOS>BOND
    1     1     2    1
    2     1     3    1
    3     1     4    1
    4     1     5    1
    5     5     6    1
    6     5     7    1
    7     5     8    1
    8     8     9    1
    9     8    10    1
   10     8    11    1
   11    11    12    1
   12    11    13    1
   13    11    14    1
   14    14    15    1
   15    14    16    1
   16    14    17    1
   17    17    18    1
   18    17    19    1
   19    17    20    1
   20    20    21    1
   21    20    22    1
   22    20    23    1
   23    23    24    1
   24    23    25    1
   25    23    26    1
   26    26    27    1
   27    26    28    1
   28    26    29    1
@<TRIPOS>SUBSTRUCTURE
       1 MOL1            1 RESIDUE      1      MOL     
@<SCITEGIC>MOL_PROPERTY
VM2 Rank
SciTegic.value.IntegerValue
429

@<SCITEGIC>MOL_PROPERTY
Conf_Id
SciTegic.value.IntegerValue
2266

@<SCITEGIC>MOL_PROPERTY
Probability
SciTegic.value.DoubleValue
0.00

@<SCITEGIC>MOL_PROPERTY
Sum Probability
SciTegic.value.DoubleValue
100.00

@<SCITEGIC>MOL_PROPERTY
Delta G
SciTegic.value.DoubleValue
6.406

@<SCITEGIC>MOL_PROPERTY
G
SciTegic.value.DoubleValue
64.554

@<SCITEGIC>MOL_PROPERTY
E
SciTegic.value.DoubleValue
26.451

@<SCITEGIC>MOL_PROPERTY
-TS
SciTegic.value.DoubleValue
38.103

@<SCITEGIC>MOL_PROPERTY
U+W
SciTegic.value.DoubleValue
2.306

@<SCITEGIC>MOL_PROPERTY
U
SciTegic.value.DoubleValue
54.948

@<SCITEGIC>MOL_PROPERTY
W
SciTegic.value.DoubleValue
-52.642

@<SCITEGIC>MOL_PROPERTY
W(PB)
SciTegic.value.DoubleValue
-55.027

@<SCITEGIC>MOL_PROPERTY
W(SA)
SciTegic.value.DoubleValue
2.384

@<SCITEGIC>MOL_PROPERTY
Valence
SciTegic.value.DoubleValue
8.055

@<SCITEGIC>MOL_PROPERTY
Coulomb
SciTegic.value.DoubleValue
46.364

@<SCITEGIC>MOL_PROPERTY
VdW
SciTegic.value.DoubleValue
0.529

@<SCITEGIC>MOL_PROPERTY
VdW6
SciTegic.value.DoubleValue
-10.581

@<SCITEGIC>MOL_PROPERTY
VdW12
SciTegic.value.DoubleValue
11.110

@<SCITEGIC>MOL_PROPERTY
Bond
SciTegic.value.DoubleValue
0.311

@<SCITEGIC>MOL_PROPERTY
Angle
SciTegic.value.DoubleValue
1.872

@<SCITEGIC>MOL_PROPERTY
Pdih
SciTegic.value.DoubleValue
5.872

@<SCITEGIC>MOL_PROPERTY
Idih
SciTegic.value.DoubleValue
0.000

@<SCITEGIC>MOL_PROPERTY
Tether
SciTegic.value.DoubleValue
0.000

@<TRIPOS>MOLECULE
guest-3_vm2.mol2 : vm2 ligand conformer 430
          29          28           1
SMALL
USER_CHARGES
 
@<TRIPOS>ATOM
       1    C1      18.682285   18.917591   20.207536 C.3        1 MOL1        -0.2427
       2    H1      18.048448   18.393438   19.480606 H          1 MOL1         0.0958
       3    H2      18.127385   19.798634   20.552760 H          1 MOL1         0.0958
       4    H3      19.582453   19.261292   19.681621 H          1 MOL1         0.0958
       5    C2      19.047829   17.980085   21.380562 C.3        1 MOL1        -0.1412
       6    H4      19.483810   17.057819   20.971693 H          1 MOL1         0.0947
       7    H5      18.133680   17.679028   21.910882 H          1 MOL1         0.0947
       8    C3      20.053378   18.603103   22.378959 C.3        1 MOL1        -0.1437
       9    H6      20.348402   17.823644   23.090910 H          1 MOL1         0.0947
      10    H7      20.968599   18.891405   21.843832 H          1 MOL1         0.0947
      11    C4      19.486372   19.830990   23.137086 C.3        1 MOL1        -0.1437
      12    H8      18.536636   19.569912   23.614255 H          1 MOL1         0.0947
      13    H9      19.243650   20.614940   22.408151 H          1 MOL1         0.0947
      14    C5      20.474794   20.443163   24.165331 C.3        1 MOL1        -0.1437
      15    H10     21.398763   20.701901   23.629909 H          1 MOL1         0.0947
      16    H11     20.071442   21.397774   24.530006 H          1 MOL1         0.0947
      17    C6      20.849862   19.552811   25.382691 C.3        1 MOL1        -0.1437
      18    H12     21.811520   19.916918   25.769896 H          1 MOL1         0.0947
      19    H13     21.044197   18.518900   25.075823 H          1 MOL1         0.0947
      20    C7      19.844912   19.589930   26.565514 C.3        1 MOL1        -0.1477
      21    H14     20.272785   19.029537   27.407346 H          1 MOL1         0.0947
      22    H15     19.736810   20.624531   26.917047 H          1 MOL1         0.0947
      23    C8      18.444040   19.022848   26.266082 C.3        1 MOL1         0.0145
      24    H16     17.940917   19.649760   25.526984 H          1 MOL1         0.0921
      25    H17     17.845404   19.039109   27.180848 H          1 MOL1         0.0921
      26    N1      18.460529   17.597479   25.751238 N.4        1 MOL1        -0.5969
      27    H18     17.513137   17.244605   25.576633 H          1 MOL1         0.3603
      28    H19     18.901359   16.958253   26.420922 H          1 MOL1         0.3603
      29    H20     18.980808   17.527435   24.871163 H          1 MOL1         0.3603
@<TRIPOS>BOND
    1     1     2    1
    2     1     3    1
    3     1     4    1
    4     1     5    1
    5     5     6    1
    6     5     7    1
    7     5     8    1
    8     8     9    1
    9     8    10    1
   10     8    11    1
   11    11    12    1
   12    11    13    1
   13    11    14    1
   14    14    15    1
   15    14    16    1
   16    14    17    1
   17    17    18    1
   18    17    19    1
   19    17    20    1
   20    20    21    1
   21    20    22    1
   22    20    23    1
   23    23    24    1
   24    23    25    1
   25    23    26    1
   26    26    27    1
   27    26    28    1
   28    26    29    1
@<TRIPOS>SUBSTRUCTURE
       1 MOL1            1 RESIDUE      1      MOL     
@<SCITEGIC>MOL_PROPERTY
VM2 Rank
SciTegic.value.IntegerValue
430

@<SCITEGIC>MOL_PROPERTY
Conf_Id
SciTegic.value.IntegerValue
2606

@<SCITEGIC>MOL_PROPERTY
Probability
SciTegic.value.DoubleValue
0.00

@<SCITEGIC>MOL_PROPERTY
Sum Probability
SciTegic.value.DoubleValue
100.00

@<SCITEGIC>MOL_PROPERTY
Delta G
SciTegic.value.DoubleValue
6.416

@<SCITEGIC>MOL_PROPERTY
G
SciTegic.value.DoubleValue
64.564

@<SCITEGIC>MOL_PROPERTY
E
SciTegic.value.DoubleValue
26.429

@<SCITEGIC>MOL_PROPERTY
-TS
SciTegic.value.DoubleValue
38.135

@<SCITEGIC>MOL_PROPERTY
U+W
SciTegic.value.DoubleValue
2.284

@<SCITEGIC>MOL_PROPERTY
U
SciTegic.value.DoubleValue
54.378

@<SCITEGIC>MOL_PROPERTY
W
SciTegic.value.DoubleValue
-52.094

@<SCITEGIC>MOL_PROPERTY
W(PB)
SciTegic.value.DoubleValue
-54.453

@<SCITEGIC>MOL_PROPERTY
W(SA)
SciTegic.value.DoubleValue
2.360

@<SCITEGIC>MOL_PROPERTY
Valence
SciTegic.value.DoubleValue
6.562

@<SCITEGIC>MOL_PROPERTY
Coulomb
SciTegic.value.DoubleValue
47.216

@<SCITEGIC>MOL_PROPERTY
VdW
SciTegic.value.DoubleValue
0.600

@<SCITEGIC>MOL_PROPERTY
VdW6
SciTegic.value.DoubleValue
-11.229

@<SCITEGIC>MOL_PROPERTY
VdW12
SciTegic.value.DoubleValue
11.830

@<SCITEGIC>MOL_PROPERTY
Bond
SciTegic.value.DoubleValue
0.369

@<SCITEGIC>MOL_PROPERTY
Angle
SciTegic.value.DoubleValue
2.511

@<SCITEGIC>MOL_PROPERTY
Pdih
SciTegic.value.DoubleValue
3.682

@<SCITEGIC>MOL_PROPERTY
Idih
SciTegic.value.DoubleValue
0.000

@<SCITEGIC>MOL_PROPERTY
Tether
SciTegic.value.DoubleValue
0.000

@<TRIPOS>MOLECULE
guest-3_vm2.mol2 : vm2 ligand conformer 431
          29          28           1
SMALL
USER_CHARGES
 
@<TRIPOS>ATOM
       1    C1      19.930543   17.179447   21.151648 C.3        1 MOL1        -0.2427
       2    H1      20.863487   16.998734   21.701270 H          1 MOL1         0.0958
       3    H2      19.359358   16.242114   21.139711 H          1 MOL1         0.0958
       4    H3      20.187748   17.430739   20.114389 H          1 MOL1         0.0958
       5    C2      19.110128   18.309030   21.808994 C.3        1 MOL1        -0.1412
       6    H4      18.833754   18.006758   22.825563 H          1 MOL1         0.0947
       7    H5      18.168576   18.441020   21.257928 H          1 MOL1         0.0947
       8    C3      19.890717   19.645480   21.824846 C.3        1 MOL1        -0.1437
       9    H6      20.876497   19.517538   22.291142 H          1 MOL1         0.0947
      10    H7      20.088942   19.931889   20.782704 H          1 MOL1         0.0947
      11    C4      19.121869   20.803865   22.510267 C.3        1 MOL1        -0.1437
      12    H8      18.039590   20.677604   22.369585 H          1 MOL1         0.0947
      13    H9      19.378101   21.732646   21.981964 H          1 MOL1         0.0947
      14    C5      19.442161   21.029217   24.013203 C.3        1 MOL1        -0.1437
      15    H10     20.513473   21.234763   24.144295 H          1 MOL1         0.0947
      16    H11     18.928959   21.951604   24.318632 H          1 MOL1         0.0947
      17    C6      18.990865   19.898874   24.972963 C.3        1 MOL1        -0.1437
      18    H12     18.102543   19.394099   24.570461 H          1 MOL1         0.0947
      19    H13     18.671640   20.361005   25.916692 H          1 MOL1         0.0947
      20    C7      20.111605   18.875419   25.287635 C.3        1 MOL1        -0.1477
      21    H14     20.532180   18.472891   24.359765 H          1 MOL1         0.0947
      22    H15     20.939043   19.377858   25.805939 H          1 MOL1         0.0947
      23    C8      19.613197   17.695157   26.143116 C.3        1 MOL1         0.0145
      24    H16     20.424221   16.973538   26.273632 H          1 MOL1         0.0921
      25    H17     18.788201   17.192470   25.631211 H          1 MOL1         0.0921
      26    N1      19.132916   18.101510   27.522329 N.4        1 MOL1        -0.5969
      27    H18     18.345035   18.754887   27.471801 H          1 MOL1         0.3603
      28    H19     19.873461   18.560407   28.062898 H          1 MOL1         0.3603
      29    H20     18.818719   17.292833   28.069878 H          1 MOL1         0.3603
@<TRIPOS>BOND
    1     1     2    1
    2     1     3    1
    3     1     4    1
    4     1     5    1
    5     5     6    1
    6     5     7    1
    7     5     8    1
    8     8     9    1
    9     8    10    1
   10     8    11    1
   11    11    12    1
   12    11    13    1
   13    11    14    1
   14    14    15    1
   15    14    16    1
   16    14    17    1
   17    17    18    1
   18    17    19    1
   19    17    20    1
   20    20    21    1
   21    20    22    1
   22    20    23    1
   23    23    24    1
   24    23    25    1
   25    23    26    1
   26    26    27    1
   27    26    28    1
   28    26    29    1
@<TRIPOS>SUBSTRUCTURE
       1 MOL1            1 RESIDUE      1      MOL     
@<SCITEGIC>MOL_PROPERTY
VM2 Rank
SciTegic.value.IntegerValue
431

@<SCITEGIC>MOL_PROPERTY
Conf_Id
SciTegic.value.IntegerValue
1656

@<SCITEGIC>MOL_PROPERTY
Probability
SciTegic.value.DoubleValue
0.00

@<SCITEGIC>MOL_PROPERTY
Sum Probability
SciTegic.value.DoubleValue
100.00

@<SCITEGIC>MOL_PROPERTY
Delta G
SciTegic.value.DoubleValue
6.456

@<SCITEGIC>MOL_PROPERTY
G
SciTegic.value.DoubleValue
64.604

@<SCITEGIC>MOL_PROPERTY
E
SciTegic.value.DoubleValue
26.379

@<SCITEGIC>MOL_PROPERTY
-TS
SciTegic.value.DoubleValue
38.226

@<SCITEGIC>MOL_PROPERTY
U+W
SciTegic.value.DoubleValue
2.234

@<SCITEGIC>MOL_PROPERTY
U
SciTegic.value.DoubleValue
54.670

@<SCITEGIC>MOL_PROPERTY
W
SciTegic.value.DoubleValue
-52.436

@<SCITEGIC>MOL_PROPERTY
W(PB)
SciTegic.value.DoubleValue
-54.813

@<SCITEGIC>MOL_PROPERTY
W(SA)
SciTegic.value.DoubleValue
2.377

@<SCITEGIC>MOL_PROPERTY
Valence
SciTegic.value.DoubleValue
8.314

@<SCITEGIC>MOL_PROPERTY
Coulomb
SciTegic.value.DoubleValue
45.816

@<SCITEGIC>MOL_PROPERTY
VdW
SciTegic.value.DoubleValue
0.539

@<SCITEGIC>MOL_PROPERTY
VdW6
SciTegic.value.DoubleValue
-10.655

@<SCITEGIC>MOL_PROPERTY
VdW12
SciTegic.value.DoubleValue
11.194

@<SCITEGIC>MOL_PROPERTY
Bond
SciTegic.value.DoubleValue
0.310

@<SCITEGIC>MOL_PROPERTY
Angle
SciTegic.value.DoubleValue
1.974

@<SCITEGIC>MOL_PROPERTY
Pdih
SciTegic.value.DoubleValue
6.030

@<SCITEGIC>MOL_PROPERTY
Idih
SciTegic.value.DoubleValue
0.000

@<SCITEGIC>MOL_PROPERTY
Tether
SciTegic.value.DoubleValue
0.000

@<TRIPOS>MOLECULE
guest-3_vm2.mol2 : vm2 ligand conformer 432
          29          28           1
SMALL
USER_CHARGES
 
@<TRIPOS>ATOM
       1    C1      21.056563   20.342156   21.222300 C.3        1 MOL1        -0.2427
       2    H1      21.886075   19.870935   21.765425 H          1 MOL1         0.0958
       3    H2      21.111839   20.026291   20.172356 H          1 MOL1         0.0958
       4    H3      21.206100   21.429131   21.255636 H          1 MOL1         0.0958
       5    C2      19.697834   19.959777   21.845822 C.3        1 MOL1        -0.1412
       6    H4      18.892448   20.474138   21.303234 H          1 MOL1         0.0947
       7    H5      19.660143   20.328133   22.877353 H          1 MOL1         0.0947
       8    C3      19.458485   18.431357   21.797730 C.3        1 MOL1        -0.1437
       9    H6      19.445942   18.125666   20.742372 H          1 MOL1         0.0947
      10    H7      20.296808   17.889267   22.254810 H          1 MOL1         0.0947
      11    C4      18.121145   17.993022   22.447473 C.3        1 MOL1        -0.1437
      12    H8      17.740540   17.132998   21.879238 H          1 MOL1         0.0947
      13    H9      17.364001   18.779989   22.327144 H          1 MOL1         0.0947
      14    C5      18.205815   17.556724   23.935648 C.3        1 MOL1        -0.1437
      15    H10     17.221056   17.154705   24.211491 H          1 MOL1         0.0947
      16    H11     18.904480   16.715654   24.043406 H          1 MOL1         0.0947
      17    C6      18.556493   18.678915   24.945696 C.3        1 MOL1        -0.1437
      18    H12     18.003812   18.485412   25.874779 H          1 MOL1         0.0947
      19    H13     18.192509   19.646801   24.576059 H          1 MOL1         0.0947
      20    C7      20.067234   18.750852   25.284853 C.3        1 MOL1        -0.1477
      21    H14     20.383874   17.818631   25.771104 H          1 MOL1         0.0947
      22    H15     20.660591   18.833603   24.367828 H          1 MOL1         0.0947
      23    C8      20.414405   19.945548   26.193399 C.3        1 MOL1         0.0145
      24    H16     20.099704   20.876165   25.713530 H          1 MOL1         0.0921
      25    H17     21.497024   19.986754   26.340933 H          1 MOL1         0.0921
      26    N1      19.766027   19.879649   27.562079 N.4        1 MOL1        -0.5969
      27    H18     18.743325   19.873586   27.496853 H          1 MOL1         0.3603
      28    H19     20.025680   20.682456   28.145664 H          1 MOL1         0.3603
      29    H20     20.042457   19.035099   28.073479 H          1 MOL1         0.3603
@<TRIPOS>BOND
    1     1     2    1
    2     1     3    1
    3     1     4    1
    4     1     5    1
    5     5     6    1
    6     5     7    1
    7     5     8    1
    8     8     9    1
    9     8    10    1
   10     8    11    1
   11    11    12    1
   12    11    13    1
   13    11    14    1
   14    14    15    1
   15    14    16    1
   16    14    17    1
   17    17    18    1
   18    17    19    1
   19    17    20    1
   20    20    21    1
   21    20    22    1
   22    20    23    1
   23    23    24    1
   24    23    25    1
   25    23    26    1
   26    26    27    1
   27    26    28    1
   28    26    29    1
@<TRIPOS>SUBSTRUCTURE
       1 MOL1            1 RESIDUE      1      MOL     
@<SCITEGIC>MOL_PROPERTY
VM2 Rank
SciTegic.value.IntegerValue
432

@<SCITEGIC>MOL_PROPERTY
Conf_Id
SciTegic.value.IntegerValue
1921

@<SCITEGIC>MOL_PROPERTY
Probability
SciTegic.value.DoubleValue
0.00

@<SCITEGIC>MOL_PROPERTY
Sum Probability
SciTegic.value.DoubleValue
100.00

@<SCITEGIC>MOL_PROPERTY
Delta G
SciTegic.value.DoubleValue
6.500

@<SCITEGIC>MOL_PROPERTY
G
SciTegic.value.DoubleValue
64.648

@<SCITEGIC>MOL_PROPERTY
E
SciTegic.value.DoubleValue
26.422

@<SCITEGIC>MOL_PROPERTY
-TS
SciTegic.value.DoubleValue
38.226

@<SCITEGIC>MOL_PROPERTY
U+W
SciTegic.value.DoubleValue
2.278

@<SCITEGIC>MOL_PROPERTY
U
SciTegic.value.DoubleValue
54.669

@<SCITEGIC>MOL_PROPERTY
W
SciTegic.value.DoubleValue
-52.392

@<SCITEGIC>MOL_PROPERTY
W(PB)
SciTegic.value.DoubleValue
-54.785

@<SCITEGIC>MOL_PROPERTY
W(SA)
SciTegic.value.DoubleValue
2.393

@<SCITEGIC>MOL_PROPERTY
Valence
SciTegic.value.DoubleValue
8.314

@<SCITEGIC>MOL_PROPERTY
Coulomb
SciTegic.value.DoubleValue
45.816

@<SCITEGIC>MOL_PROPERTY
VdW
SciTegic.value.DoubleValue
0.539

@<SCITEGIC>MOL_PROPERTY
VdW6
SciTegic.value.DoubleValue
-10.655

@<SCITEGIC>MOL_PROPERTY
VdW12
SciTegic.value.DoubleValue
11.194

@<SCITEGIC>MOL_PROPERTY
Bond
SciTegic.value.DoubleValue
0.310

@<SCITEGIC>MOL_PROPERTY
Angle
SciTegic.value.DoubleValue
1.975

@<SCITEGIC>MOL_PROPERTY
Pdih
SciTegic.value.DoubleValue
6.030

@<SCITEGIC>MOL_PROPERTY
Idih
SciTegic.value.DoubleValue
0.000

@<SCITEGIC>MOL_PROPERTY
Tether
SciTegic.value.DoubleValue
0.000

@<TRIPOS>MOLECULE
guest-3_vm2.mol2 : vm2 ligand conformer 433
          29          28           1
SMALL
USER_CHARGES
 
@<TRIPOS>ATOM
       1    C1      20.078459   17.420917   21.513624 C.3        1 MOL1        -0.2427
       2    H1      19.272773   17.242768   22.236399 H          1 MOL1         0.0958
       3    H2      20.128505   16.542821   20.856877 H          1 MOL1         0.0958
       4    H3      21.029879   17.488605   22.056638 H          1 MOL1         0.0958
       5    C2      19.816777   18.698188   20.686148 C.3        1 MOL1        -0.1412
       6    H4      18.829666   18.626682   20.208457 H          1 MOL1         0.0947
       7    H5      20.548249   18.742765   19.867198 H          1 MOL1         0.0947
       8    C3      19.906968   20.016192   21.497064 C.3        1 MOL1        -0.1437
       9    H6      20.922897   20.146582   21.894450 H          1 MOL1         0.0947
      10    H7      19.755749   20.846898   20.793914 H          1 MOL1         0.0947
      11    C4      18.861558   20.151281   22.634758 C.3        1 MOL1        -0.1437
      12    H8      17.952686   19.589172   22.379518 H          1 MOL1         0.0947
      13    H9      18.558004   21.205069   22.703609 H          1 MOL1         0.0947
      14    C5      19.398242   19.711660   24.018701 C.3        1 MOL1        -0.1437
      15    H10     19.746490   18.675945   23.964300 H          1 MOL1         0.0947
      16    H11     20.265086   20.331965   24.285042 H          1 MOL1         0.0947
      17    C6      18.315842   19.836331   25.116647 C.3        1 MOL1        -0.1437
      18    H12     17.496590   19.135650   24.903837 H          1 MOL1         0.0947
      19    H13     17.877299   20.842836   25.072026 H          1 MOL1         0.0947
      20    C7      18.834670   19.599841   26.558054 C.3        1 MOL1        -0.1477
      21    H14     19.611460   20.333935   26.810189 H          1 MOL1         0.0947
      22    H15     18.003662   19.790811   27.250001 H          1 MOL1         0.0947
      23    C8      19.350508   18.170841   26.826528 C.3        1 MOL1         0.0145
      24    H16     18.705257   17.443140   26.327144 H          1 MOL1         0.0921
      25    H17     19.313849   17.975305   27.901654 H          1 MOL1         0.0921
      26    N1      20.780976   17.932748   26.383477 N.4        1 MOL1        -0.5969
      27    H18     20.898948   18.093409   25.379198 H          1 MOL1         0.3603
      28    H19     21.083154   16.971261   26.575683 H          1 MOL1         0.3603
      29    H20     21.435883   18.554487   26.869239 H          1 MOL1         0.3603
@<TRIPOS>BOND
    1     1     2    1
    2     1     3    1
    3     1     4    1
    4     1     5    1
    5     5     6    1
    6     5     7    1
    7     5     8    1
    8     8     9    1
    9     8    10    1
   10     8    11    1
   11    11    12    1
   12    11    13    1
   13    11    14    1
   14    14    15    1
   15    14    16    1
   16    14    17    1
   17    17    18    1
   18    17    19    1
   19    17    20    1
   20    20    21    1
   21    20    22    1
   22    20    23    1
   23    23    24    1
   24    23    25    1
   25    23    26    1
   26    26    27    1
   27    26    28    1
   28    26    29    1
@<TRIPOS>SUBSTRUCTURE
       1 MOL1            1 RESIDUE      1      MOL     
@<SCITEGIC>MOL_PROPERTY
VM2 Rank
SciTegic.value.IntegerValue
433

@<SCITEGIC>MOL_PROPERTY
Conf_Id
SciTegic.value.IntegerValue
1628

@<SCITEGIC>MOL_PROPERTY
Probability
SciTegic.value.DoubleValue
0.00

@<SCITEGIC>MOL_PROPERTY
Sum Probability
SciTegic.value.DoubleValue
100.00

@<SCITEGIC>MOL_PROPERTY
Delta G
SciTegic.value.DoubleValue
6.524

@<SCITEGIC>MOL_PROPERTY
G
SciTegic.value.DoubleValue
64.672

@<SCITEGIC>MOL_PROPERTY
E
SciTegic.value.DoubleValue
26.971

@<SCITEGIC>MOL_PROPERTY
-TS
SciTegic.value.DoubleValue
37.701

@<SCITEGIC>MOL_PROPERTY
U+W
SciTegic.value.DoubleValue
2.826

@<SCITEGIC>MOL_PROPERTY
U
SciTegic.value.DoubleValue
55.032

@<SCITEGIC>MOL_PROPERTY
W
SciTegic.value.DoubleValue
-52.206

@<SCITEGIC>MOL_PROPERTY
W(PB)
SciTegic.value.DoubleValue
-54.590

@<SCITEGIC>MOL_PROPERTY
W(SA)
SciTegic.value.DoubleValue
2.384

@<SCITEGIC>MOL_PROPERTY
Valence
SciTegic.value.DoubleValue
7.133

@<SCITEGIC>MOL_PROPERTY
Coulomb
SciTegic.value.DoubleValue
47.194

@<SCITEGIC>MOL_PROPERTY
VdW
SciTegic.value.DoubleValue
0.706

@<SCITEGIC>MOL_PROPERTY
VdW6
SciTegic.value.DoubleValue
-10.153

@<SCITEGIC>MOL_PROPERTY
VdW12
SciTegic.value.DoubleValue
10.859

@<SCITEGIC>MOL_PROPERTY
Bond
SciTegic.value.DoubleValue
0.291

@<SCITEGIC>MOL_PROPERTY
Angle
SciTegic.value.DoubleValue
1.686

@<SCITEGIC>MOL_PROPERTY
Pdih
SciTegic.value.DoubleValue
5.156

@<SCITEGIC>MOL_PROPERTY
Idih
SciTegic.value.DoubleValue
0.000

@<SCITEGIC>MOL_PROPERTY
Tether
SciTegic.value.DoubleValue
0.000

@<TRIPOS>MOLECULE
guest-3_vm2.mol2 : vm2 ligand conformer 434
          29          28           1
SMALL
USER_CHARGES
 
@<TRIPOS>ATOM
       1    C1      20.501248   19.860257   20.816408 C.3        1 MOL1        -0.2427
       2    H1      20.803314   20.575164   20.040194 H          1 MOL1         0.0958
       3    H2      20.888114   20.233824   21.772220 H          1 MOL1         0.0958
       4    H3      20.982259   18.898958   20.594129 H          1 MOL1         0.0958
       5    C2      18.964015   19.720163   20.851322 C.3        1 MOL1        -0.1412
       6    H4      18.604609   19.534991   19.829436 H          1 MOL1         0.0947
       7    H5      18.518157   20.675369   21.161884 H          1 MOL1         0.0947
       8    C3      18.445252   18.581640   21.766453 C.3        1 MOL1        -0.1437
       9    H6      17.351042   18.555259   21.669882 H          1 MOL1         0.0947
      10    H7      18.796967   17.609651   21.394595 H          1 MOL1         0.0947
      11    C4      18.791171   18.743772   23.270094 C.3        1 MOL1        -0.1437
      12    H8      17.959478   18.337861   23.862075 H          1 MOL1         0.0947
      13    H9      18.856913   19.811483   23.512523 H          1 MOL1         0.0947
      14    C5      20.089749   18.008692   23.688715 C.3        1 MOL1        -0.1437
      15    H10     20.047583   16.975544   23.317616 H          1 MOL1         0.0947
      16    H11     20.960054   18.466697   23.204635 H          1 MOL1         0.0947
      17    C6      20.332261   17.954479   25.219238 C.3        1 MOL1        -0.1437
      18    H12     21.241464   17.360485   25.386128 H          1 MOL1         0.0947
      19    H13     19.523947   17.395373   25.707874 H          1 MOL1         0.0947
      20    C7      20.533938   19.335125   25.899275 C.3        1 MOL1        -0.1477
      21    H14     21.155955   19.203082   26.794562 H          1 MOL1         0.0947
      22    H15     21.103730   19.995524   25.232232 H          1 MOL1         0.0947
      23    C8      19.227410   20.038154   26.324034 C.3        1 MOL1         0.0145
      24    H16     18.565872   20.164093   25.465471 H          1 MOL1         0.0921
      25    H17     19.464676   21.030751   26.716363 H          1 MOL1         0.0921
      26    N1      18.458956   19.295718   27.399460 N.4        1 MOL1        -0.5969
      27    H18     19.018745   19.171759   28.249438 H          1 MOL1         0.3603
      28    H19     18.173553   18.362904   27.085963 H          1 MOL1         0.3603
      29    H20     17.605993   19.796079   27.672437 H          1 MOL1         0.3603
@<TRIPOS>BOND
    1     1     2    1
    2     1     3    1
    3     1     4    1
    4     1     5    1
    5     5     6    1
    6     5     7    1
    7     5     8    1
    8     8     9    1
    9     8    10    1
   10     8    11    1
   11    11    12    1
   12    11    13    1
   13    11    14    1
   14    14    15    1
   15    14    16    1
   16    14    17    1
   17    17    18    1
   18    17    19    1
   19    17    20    1
   20    20    21    1
   21    20    22    1
   22    20    23    1
   23    23    24    1
   24    23    25    1
   25    23    26    1
   26    26    27    1
   27    26    28    1
   28    26    29    1
@<TRIPOS>SUBSTRUCTURE
       1 MOL1            1 RESIDUE      1      MOL     
@<SCITEGIC>MOL_PROPERTY
VM2 Rank
SciTegic.value.IntegerValue
434

@<SCITEGIC>MOL_PROPERTY
Conf_Id
SciTegic.value.IntegerValue
2561

@<SCITEGIC>MOL_PROPERTY
Probability
SciTegic.value.DoubleValue
0.00

@<SCITEGIC>MOL_PROPERTY
Sum Probability
SciTegic.value.DoubleValue
100.00

@<SCITEGIC>MOL_PROPERTY
Delta G
SciTegic.value.DoubleValue
6.545

@<SCITEGIC>MOL_PROPERTY
G
SciTegic.value.DoubleValue
64.693

@<SCITEGIC>MOL_PROPERTY
E
SciTegic.value.DoubleValue
26.877

@<SCITEGIC>MOL_PROPERTY
-TS
SciTegic.value.DoubleValue
37.817

@<SCITEGIC>MOL_PROPERTY
U+W
SciTegic.value.DoubleValue
2.732

@<SCITEGIC>MOL_PROPERTY
U
SciTegic.value.DoubleValue
55.108

@<SCITEGIC>MOL_PROPERTY
W
SciTegic.value.DoubleValue
-52.375

@<SCITEGIC>MOL_PROPERTY
W(PB)
SciTegic.value.DoubleValue
-54.802

@<SCITEGIC>MOL_PROPERTY
W(SA)
SciTegic.value.DoubleValue
2.426

@<SCITEGIC>MOL_PROPERTY
Valence
SciTegic.value.DoubleValue
8.106

@<SCITEGIC>MOL_PROPERTY
Coulomb
SciTegic.value.DoubleValue
46.145

@<SCITEGIC>MOL_PROPERTY
VdW
SciTegic.value.DoubleValue
0.857

@<SCITEGIC>MOL_PROPERTY
VdW6
SciTegic.value.DoubleValue
-10.798

@<SCITEGIC>MOL_PROPERTY
VdW12
SciTegic.value.DoubleValue
11.655

@<SCITEGIC>MOL_PROPERTY
Bond
SciTegic.value.DoubleValue
0.339

@<SCITEGIC>MOL_PROPERTY
Angle
SciTegic.value.DoubleValue
2.103

@<SCITEGIC>MOL_PROPERTY
Pdih
SciTegic.value.DoubleValue
5.663

@<SCITEGIC>MOL_PROPERTY
Idih
SciTegic.value.DoubleValue
0.000

@<SCITEGIC>MOL_PROPERTY
Tether
SciTegic.value.DoubleValue
0.000

@<TRIPOS>MOLECULE
guest-3_vm2.mol2 : vm2 ligand conformer 435
          29          28           1
SMALL
USER_CHARGES
 
@<TRIPOS>ATOM
       1    C1      21.013653   20.047075   21.572185 C.3        1 MOL1        -0.2427
       2    H1      21.700684   19.372206   22.098669 H          1 MOL1         0.0958
       3    H2      21.616380   20.721234   20.950007 H          1 MOL1         0.0958
       4    H3      20.491547   20.665397   22.312695 H          1 MOL1         0.0958
       5    C2      20.015625   19.256197   20.698646 C.3        1 MOL1        -0.1412
       6    H4      20.565962   18.791901   19.868420 H          1 MOL1         0.0947
       7    H5      19.302476   19.953996   20.238010 H          1 MOL1         0.0947
       8    C3      19.241450   18.146856   21.455532 C.3        1 MOL1        -0.1437
       9    H6      18.609433   17.626973   20.722296 H          1 MOL1         0.0947
      10    H7      19.940875   17.388466   21.833260 H          1 MOL1         0.0947
      11    C4      18.329738   18.657842   22.601461 C.3        1 MOL1        -0.1437
      12    H8      17.427765   18.031092   22.632851 H          1 MOL1         0.0947
      13    H9      17.984049   19.677254   22.381327 H          1 MOL1         0.0947
      14    C5      19.003819   18.604547   23.994072 C.3        1 MOL1        -0.1437
      15    H10     19.279674   17.566137   24.223724 H          1 MOL1         0.0947
      16    H11     19.929001   19.188199   23.975695 H          1 MOL1         0.0947
      17    C6      18.070808   19.149036   25.101156 C.3        1 MOL1        -0.1437
      18    H12     17.095451   18.649115   25.022923 H          1 MOL1         0.0947
      19    H13     17.882047   20.217516   24.927564 H          1 MOL1         0.0947
      20    C7      18.601765   18.947358   26.543437 C.3        1 MOL1        -0.1477
      21    H14     17.827557   19.298001   27.238768 H          1 MOL1         0.0947
      22    H15     18.735584   17.878292   26.755712 H          1 MOL1         0.0947
      23    C8      19.901196   19.716117   26.860764 C.3        1 MOL1         0.0145
      24    H16     19.981191   19.848452   27.943151 H          1 MOL1         0.0921
      25    H17     19.868774   20.706722   26.399320 H          1 MOL1         0.0921
      26    N1      21.165945   19.012972   26.407748 N.4        1 MOL1        -0.5969
      27    H18     21.273016   18.098741   26.859575 H          1 MOL1         0.3603
      28    H19     22.005332   19.558122   26.633479 H          1 MOL1         0.3603
      29    H20     21.169995   18.853457   25.396391 H          1 MOL1         0.3603
@<TRIPOS>BOND
    1     1     2    1
    2     1     3    1
    3     1     4    1
    4     1     5    1
    5     5     6    1
    6     5     7    1
    7     5     8    1
    8     8     9    1
    9     8    10    1
   10     8    11    1
   11    11    12    1
   12    11    13    1
   13    11    14    1
   14    14    15    1
   15    14    16    1
   16    14    17    1
   17    17    18    1
   18    17    19    1
   19    17    20    1
   20    20    21    1
   21    20    22    1
   22    20    23    1
   23    23    24    1
   24    23    25    1
   25    23    26    1
   26    26    27    1
   27    26    28    1
   28    26    29    1
@<TRIPOS>SUBSTRUCTURE
       1 MOL1            1 RESIDUE      1      MOL     
@<SCITEGIC>MOL_PROPERTY
VM2 Rank
SciTegic.value.IntegerValue
435

@<SCITEGIC>MOL_PROPERTY
Conf_Id
SciTegic.value.IntegerValue
347

@<SCITEGIC>MOL_PROPERTY
Probability
SciTegic.value.DoubleValue
0.00

@<SCITEGIC>MOL_PROPERTY
Sum Probability
SciTegic.value.DoubleValue
100.00

@<SCITEGIC>MOL_PROPERTY
Delta G
SciTegic.value.DoubleValue
6.554

@<SCITEGIC>MOL_PROPERTY
G
SciTegic.value.DoubleValue
64.702

@<SCITEGIC>MOL_PROPERTY
E
SciTegic.value.DoubleValue
27.000

@<SCITEGIC>MOL_PROPERTY
-TS
SciTegic.value.DoubleValue
37.702

@<SCITEGIC>MOL_PROPERTY
U+W
SciTegic.value.DoubleValue
2.855

@<SCITEGIC>MOL_PROPERTY
U
SciTegic.value.DoubleValue
55.032

@<SCITEGIC>MOL_PROPERTY
W
SciTegic.value.DoubleValue
-52.177

@<SCITEGIC>MOL_PROPERTY
W(PB)
SciTegic.value.DoubleValue
-54.589

@<SCITEGIC>MOL_PROPERTY
W(SA)
SciTegic.value.DoubleValue
2.412

@<SCITEGIC>MOL_PROPERTY
Valence
SciTegic.value.DoubleValue
7.133

@<SCITEGIC>MOL_PROPERTY
Coulomb
SciTegic.value.DoubleValue
47.194

@<SCITEGIC>MOL_PROPERTY
VdW
SciTegic.value.DoubleValue
0.706

@<SCITEGIC>MOL_PROPERTY
VdW6
SciTegic.value.DoubleValue
-10.154

@<SCITEGIC>MOL_PROPERTY
VdW12
SciTegic.value.DoubleValue
10.860

@<SCITEGIC>MOL_PROPERTY
Bond
SciTegic.value.DoubleValue
0.291

@<SCITEGIC>MOL_PROPERTY
Angle
SciTegic.value.DoubleValue
1.686

@<SCITEGIC>MOL_PROPERTY
Pdih
SciTegic.value.DoubleValue
5.156

@<SCITEGIC>MOL_PROPERTY
Idih
SciTegic.value.DoubleValue
0.000

@<SCITEGIC>MOL_PROPERTY
Tether
SciTegic.value.DoubleValue
0.000

@<TRIPOS>MOLECULE
guest-3_vm2.mol2 : vm2 ligand conformer 436
          29          28           1
SMALL
USER_CHARGES
 
@<TRIPOS>ATOM
       1    C1      19.818664   18.463496   20.043242 C.3        1 MOL1        -0.2427
       2    H1      19.859250   17.599771   20.716394 H          1 MOL1         0.0958
       3    H2      19.207584   18.182808   19.175667 H          1 MOL1         0.0958
       4    H3      20.837525   18.658306   19.683987 H          1 MOL1         0.0958
       5    C2      19.231432   19.714221   20.737749 C.3        1 MOL1        -0.1412
       6    H4      18.181668   19.541317   21.012831 H          1 MOL1         0.0947
       7    H5      19.220485   20.534847   20.006777 H          1 MOL1         0.0947
       8    C3      20.047689   20.163848   21.976846 C.3        1 MOL1        -0.1437
       9    H6      21.093159   19.839428   21.882224 H          1 MOL1         0.0947
      10    H7      20.079386   21.262162   21.985228 H          1 MOL1         0.0947
      11    C4      19.470193   19.703460   23.340332 C.3        1 MOL1        -0.1437
      12    H8      18.463509   20.123300   23.471652 H          1 MOL1         0.0947
      13    H9      20.098909   20.140797   24.125362 H          1 MOL1         0.0947
      14    C5      19.419597   18.167399   23.524528 C.3        1 MOL1        -0.1437
      15    H10     18.811335   17.728528   22.724102 H          1 MOL1         0.0947
      16    H11     20.430424   17.752071   23.412022 H          1 MOL1         0.0947
      17    C6      18.815039   17.699529   24.873949 C.3        1 MOL1        -0.1437
      18    H12     18.797903   16.600862   24.864781 H          1 MOL1         0.0947
      19    H13     17.763823   18.011850   24.944672 H          1 MOL1         0.0947
      20    C7      19.591360   18.158613   26.133859 C.3        1 MOL1        -0.1477
      21    H14     19.461799   17.402757   26.919924 H          1 MOL1         0.0947
      22    H15     20.667626   18.202255   25.920200 H          1 MOL1         0.0947
      23    C8      19.096847   19.510212   26.685212 C.3        1 MOL1         0.0145
      24    H16     18.038867   19.431974   26.949607 H          1 MOL1         0.0921
      25    H17     19.201269   20.290122   25.928658 H          1 MOL1         0.0921
      26    N1      19.853180   19.957223   27.919282 N.4        1 MOL1        -0.5969
      27    H18     19.767824   19.280522   28.684953 H          1 MOL1         0.3603
      28    H19     19.506568   20.855260   28.274262 H          1 MOL1         0.3603
      29    H20     20.854195   20.075948   27.731545 H          1 MOL1         0.3603
@<TRIPOS>BOND
    1     1     2    1
    2     1     3    1
    3     1     4    1
    4     1     5    1
    5     5     6    1
    6     5     7    1
    7     5     8    1
    8     8     9    1
    9     8    10    1
   10     8    11    1
   11    11    12    1
   12    11    13    1
   13    11    14    1
   14    14    15    1
   15    14    16    1
   16    14    17    1
   17    17    18    1
   18    17    19    1
   19    17    20    1
   20    20    21    1
   21    20    22    1
   22    20    23    1
   23    23    24    1
   24    23    25    1
   25    23    26    1
   26    26    27    1
   27    26    28    1
   28    26    29    1
@<TRIPOS>SUBSTRUCTURE
       1 MOL1            1 RESIDUE      1      MOL     
@<SCITEGIC>MOL_PROPERTY
VM2 Rank
SciTegic.value.IntegerValue
436

@<SCITEGIC>MOL_PROPERTY
Conf_Id
SciTegic.value.IntegerValue
967

@<SCITEGIC>MOL_PROPERTY
Probability
SciTegic.value.DoubleValue
0.00

@<SCITEGIC>MOL_PROPERTY
Sum Probability
SciTegic.value.DoubleValue
100.00

@<SCITEGIC>MOL_PROPERTY
Delta G
SciTegic.value.DoubleValue
6.623

@<SCITEGIC>MOL_PROPERTY
G
SciTegic.value.DoubleValue
64.771

@<SCITEGIC>MOL_PROPERTY
E
SciTegic.value.DoubleValue
26.993

@<SCITEGIC>MOL_PROPERTY
-TS
SciTegic.value.DoubleValue
37.778

@<SCITEGIC>MOL_PROPERTY
U+W
SciTegic.value.DoubleValue
2.849

@<SCITEGIC>MOL_PROPERTY
U
SciTegic.value.DoubleValue
54.913

@<SCITEGIC>MOL_PROPERTY
W
SciTegic.value.DoubleValue
-52.065

@<SCITEGIC>MOL_PROPERTY
W(PB)
SciTegic.value.DoubleValue
-54.526

@<SCITEGIC>MOL_PROPERTY
W(SA)
SciTegic.value.DoubleValue
2.461

@<SCITEGIC>MOL_PROPERTY
Valence
SciTegic.value.DoubleValue
8.260

@<SCITEGIC>MOL_PROPERTY
Coulomb
SciTegic.value.DoubleValue
45.700

@<SCITEGIC>MOL_PROPERTY
VdW
SciTegic.value.DoubleValue
0.953

@<SCITEGIC>MOL_PROPERTY
VdW6
SciTegic.value.DoubleValue
-10.016

@<SCITEGIC>MOL_PROPERTY
VdW12
SciTegic.value.DoubleValue
10.969

@<SCITEGIC>MOL_PROPERTY
Bond
SciTegic.value.DoubleValue
0.304

@<SCITEGIC>MOL_PROPERTY
Angle
SciTegic.value.DoubleValue
1.968

@<SCITEGIC>MOL_PROPERTY
Pdih
SciTegic.value.DoubleValue
5.989

@<SCITEGIC>MOL_PROPERTY
Idih
SciTegic.value.DoubleValue
0.000

@<SCITEGIC>MOL_PROPERTY
Tether
SciTegic.value.DoubleValue
0.000

@<TRIPOS>MOLECULE
guest-3_vm2.mol2 : vm2 ligand conformer 437
          29          28           1
SMALL
USER_CHARGES
 
@<TRIPOS>ATOM
       1    C1      21.306631   18.787110   20.732532 C.3        1 MOL1        -0.2427
       2    H1      21.925248   18.221915   21.441806 H          1 MOL1         0.0958
       3    H2      21.315930   18.250405   19.774990 H          1 MOL1         0.0958
       4    H3      21.776076   19.766788   20.574205 H          1 MOL1         0.0958
       5    C2      19.863185   18.941444   21.256516 C.3        1 MOL1        -0.1412
       6    H4      19.413103   17.945965   21.363497 H          1 MOL1         0.0947
       7    H5      19.262415   19.481287   20.511356 H          1 MOL1         0.0947
       8    C3      19.825242   19.698873   22.605096 C.3        1 MOL1        -0.1437
       9    H6      20.429948   19.159001   23.343153 H          1 MOL1         0.0947
      10    H7      20.303722   20.678792   22.471208 H          1 MOL1         0.0947
      11    C4      18.386645   19.923071   23.139740 C.3        1 MOL1        -0.1437
      12    H8      17.775911   20.330706   22.322365 H          1 MOL1         0.0947
      13    H9      18.391164   20.703414   23.912285 H          1 MOL1         0.0947
      14    C5      17.696536   18.647489   23.692882 C.3        1 MOL1        -0.1437
      15    H10     16.631334   18.701602   23.428860 H          1 MOL1         0.0947
      16    H11     18.074912   17.749159   23.189337 H          1 MOL1         0.0947
      17    C6      17.780002   18.457109   25.231471 C.3        1 MOL1        -0.1437
      18    H12     17.169640   17.579754   25.486660 H          1 MOL1         0.0947
      19    H13     17.304276   19.305628   25.742560 H          1 MOL1         0.0947
      20    C7      19.202237   18.227543   25.799750 C.3        1 MOL1        -0.1477
      21    H14     19.116290   17.659593   26.735693 H          1 MOL1         0.0947
      22    H15     19.786899   17.602407   25.112247 H          1 MOL1         0.0947
      23    C8      19.947994   19.540454   26.106262 C.3        1 MOL1         0.0145
      24    H16     19.378713   20.123208   26.835386 H          1 MOL1         0.0921
      25    H17     20.049506   20.137060   25.197753 H          1 MOL1         0.0921
      26    N1      21.335528   19.314908   26.670751 N.4        1 MOL1        -0.5969
      27    H18     21.932208   18.791719   26.021666 H          1 MOL1         0.3603
      28    H19     21.308048   18.785879   27.548707 H          1 MOL1         0.3603
      29    H20     21.813910   20.200175   26.870746 H          1 MOL1         0.3603
@<TRIPOS>BOND
    1     1     2    1
    2     1     3    1
    3     1     4    1
    4     1     5    1
    5     5     6    1
    6     5     7    1
    7     5     8    1
    8     8     9    1
    9     8    10    1
   10     8    11    1
   11    11    12    1
   12    11    13    1
   13    11    14    1
   14    14    15    1
   15    14    16    1
   16    14    17    1
   17    17    18    1
   18    17    19    1
   19    17    20    1
   20    20    21    1
   21    20    22    1
   22    20    23    1
   23    23    24    1
   24    23    25    1
   25    23    26    1
   26    26    27    1
   27    26    28    1
   28    26    29    1
@<TRIPOS>SUBSTRUCTURE
       1 MOL1            1 RESIDUE      1      MOL     
@<SCITEGIC>MOL_PROPERTY
VM2 Rank
SciTegic.value.IntegerValue
437

@<SCITEGIC>MOL_PROPERTY
Conf_Id
SciTegic.value.IntegerValue
350

@<SCITEGIC>MOL_PROPERTY
Probability
SciTegic.value.DoubleValue
0.00

@<SCITEGIC>MOL_PROPERTY
Sum Probability
SciTegic.value.DoubleValue
100.00

@<SCITEGIC>MOL_PROPERTY
Delta G
SciTegic.value.DoubleValue
6.650

@<SCITEGIC>MOL_PROPERTY
G
SciTegic.value.DoubleValue
64.798

@<SCITEGIC>MOL_PROPERTY
E
SciTegic.value.DoubleValue
26.633

@<SCITEGIC>MOL_PROPERTY
-TS
SciTegic.value.DoubleValue
38.164

@<SCITEGIC>MOL_PROPERTY
U+W
SciTegic.value.DoubleValue
2.489

@<SCITEGIC>MOL_PROPERTY
U
SciTegic.value.DoubleValue
55.371

@<SCITEGIC>MOL_PROPERTY
W
SciTegic.value.DoubleValue
-52.882

@<SCITEGIC>MOL_PROPERTY
W(PB)
SciTegic.value.DoubleValue
-55.303

@<SCITEGIC>MOL_PROPERTY
W(SA)
SciTegic.value.DoubleValue
2.421

@<SCITEGIC>MOL_PROPERTY
Valence
SciTegic.value.DoubleValue
8.230

@<SCITEGIC>MOL_PROPERTY
Coulomb
SciTegic.value.DoubleValue
46.640

@<SCITEGIC>MOL_PROPERTY
VdW
SciTegic.value.DoubleValue
0.501

@<SCITEGIC>MOL_PROPERTY
VdW6
SciTegic.value.DoubleValue
-10.691

@<SCITEGIC>MOL_PROPERTY
VdW12
SciTegic.value.DoubleValue
11.191

@<SCITEGIC>MOL_PROPERTY
Bond
SciTegic.value.DoubleValue
0.310

@<SCITEGIC>MOL_PROPERTY
Angle
SciTegic.value.DoubleValue
1.952

@<SCITEGIC>MOL_PROPERTY
Pdih
SciTegic.value.DoubleValue
5.968

@<SCITEGIC>MOL_PROPERTY
Idih
SciTegic.value.DoubleValue
0.000

@<SCITEGIC>MOL_PROPERTY
Tether
SciTegic.value.DoubleValue
0.000

@<TRIPOS>MOLECULE
guest-3_vm2.mol2 : vm2 ligand conformer 438
          29          28           1
SMALL
USER_CHARGES
 
@<TRIPOS>ATOM
       1    C1      20.019545   17.930240   20.735126 C.3        1 MOL1        -0.2427
       2    H1      20.208619   17.405296   21.679772 H          1 MOL1         0.0958
       3    H2      19.923524   17.169453   19.949750 H          1 MOL1         0.0958
       4    H3      20.894359   18.549240   20.497782 H          1 MOL1         0.0958
       5    C2      18.737311   18.787013   20.816294 C.3        1 MOL1        -0.1412
       6    H4      17.888773   18.146596   21.094734 H          1 MOL1         0.0947
       7    H5      18.509044   19.175942   19.814141 H          1 MOL1         0.0947
       8    C3      18.829426   19.981700   21.799655 C.3        1 MOL1        -0.1437
       9    H6      19.612107   20.680814   21.474292 H          1 MOL1         0.0947
      10    H7      17.885697   20.540218   21.730391 H          1 MOL1         0.0947
      11    C4      19.047092   19.581126   23.281901 C.3        1 MOL1        -0.1437
      12    H8      18.618733   18.587047   23.468729 H          1 MOL1         0.0947
      13    H9      18.485635   20.287209   23.906767 H          1 MOL1         0.0947
      14    C5      20.533473   19.624612   23.715791 C.3        1 MOL1        -0.1437
      15    H10     21.152361   19.114476   22.968110 H          1 MOL1         0.0947
      16    H11     20.876835   20.668197   23.723630 H          1 MOL1         0.0947
      17    C6      20.821110   18.977534   25.095199 C.3        1 MOL1        -0.1437
      18    H12     21.907092   19.019966   25.256882 H          1 MOL1         0.0947
      19    H13     20.571525   17.909071   25.066887 H          1 MOL1         0.0947
      20    C7      20.133870   19.669330   26.303007 C.3        1 MOL1        -0.1477
      21    H14     20.717106   19.460924   27.209798 H          1 MOL1         0.0947
      22    H15     20.164358   20.758836   26.169941 H          1 MOL1         0.0947
      23    C8      18.678146   19.225125   26.558642 C.3        1 MOL1         0.0145
      24    H16     18.064092   19.405477   25.674886 H          1 MOL1         0.0921
      25    H17     18.263329   19.811733   27.382827 H          1 MOL1         0.0921
      26    N1      18.544028   17.761319   26.929383 N.4        1 MOL1        -0.5969
      27    H18     18.884803   17.148493   26.182300 H          1 MOL1         0.3603
      28    H19     17.568098   17.502198   27.110604 H          1 MOL1         0.3603
      29    H20     19.076655   17.533511   27.775323 H          1 MOL1         0.3603
@<TRIPOS>BOND
    1     1     2    1
    2     1     3    1
    3     1     4    1
    4     1     5    1
    5     5     6    1
    6     5     7    1
    7     5     8    1
    8     8     9    1
    9     8    10    1
   10     8    11    1
   11    11    12    1
   12    11    13    1
   13    11    14    1
   14    14    15    1
   15    14    16    1
   16    14    17    1
   17    17    18    1
   18    17    19    1
   19    17    20    1
   20    20    21    1
   21    20    22    1
   22    20    23    1
   23    23    24    1
   24    23    25    1
   25    23    26    1
   26    26    27    1
   27    26    28    1
   28    26    29    1
@<TRIPOS>SUBSTRUCTURE
       1 MOL1            1 RESIDUE      1      MOL     
@<SCITEGIC>MOL_PROPERTY
VM2 Rank
SciTegic.value.IntegerValue
438

@<SCITEGIC>MOL_PROPERTY
Conf_Id
SciTegic.value.IntegerValue
957

@<SCITEGIC>MOL_PROPERTY
Probability
SciTegic.value.DoubleValue
0.00

@<SCITEGIC>MOL_PROPERTY
Sum Probability
SciTegic.value.DoubleValue
100.00

@<SCITEGIC>MOL_PROPERTY
Delta G
SciTegic.value.DoubleValue
6.701

@<SCITEGIC>MOL_PROPERTY
G
SciTegic.value.DoubleValue
64.849

@<SCITEGIC>MOL_PROPERTY
E
SciTegic.value.DoubleValue
26.841

@<SCITEGIC>MOL_PROPERTY
-TS
SciTegic.value.DoubleValue
38.009

@<SCITEGIC>MOL_PROPERTY
U+W
SciTegic.value.DoubleValue
2.696

@<SCITEGIC>MOL_PROPERTY
U
SciTegic.value.DoubleValue
55.223

@<SCITEGIC>MOL_PROPERTY
W
SciTegic.value.DoubleValue
-52.527

@<SCITEGIC>MOL_PROPERTY
W(PB)
SciTegic.value.DoubleValue
-54.946

@<SCITEGIC>MOL_PROPERTY
W(SA)
SciTegic.value.DoubleValue
2.419

@<SCITEGIC>MOL_PROPERTY
Valence
SciTegic.value.DoubleValue
8.119

@<SCITEGIC>MOL_PROPERTY
Coulomb
SciTegic.value.DoubleValue
46.277

@<SCITEGIC>MOL_PROPERTY
VdW
SciTegic.value.DoubleValue
0.827

@<SCITEGIC>MOL_PROPERTY
VdW6
SciTegic.value.DoubleValue
-10.855

@<SCITEGIC>MOL_PROPERTY
VdW12
SciTegic.value.DoubleValue
11.681

@<SCITEGIC>MOL_PROPERTY
Bond
SciTegic.value.DoubleValue
0.330

@<SCITEGIC>MOL_PROPERTY
Angle
SciTegic.value.DoubleValue
2.067

@<SCITEGIC>MOL_PROPERTY
Pdih
SciTegic.value.DoubleValue
5.721

@<SCITEGIC>MOL_PROPERTY
Idih
SciTegic.value.DoubleValue
0.000

@<SCITEGIC>MOL_PROPERTY
Tether
SciTegic.value.DoubleValue
0.000

@<TRIPOS>MOLECULE
guest-3_vm2.mol2 : vm2 ligand conformer 439
          29          28           1
SMALL
USER_CHARGES
 
@<TRIPOS>ATOM
       1    C1      21.427418   18.821124   21.613196 C.3        1 MOL1        -0.2427
       2    H1      21.447958   17.907967   21.004242 H          1 MOL1         0.0958
       3    H2      22.324666   19.405039   21.370282 H          1 MOL1         0.0958
       4    H3      21.496926   18.528101   22.665930 H          1 MOL1         0.0958
       5    C2      20.151711   19.645292   21.328135 C.3        1 MOL1        -0.1412
       6    H4      20.170633   19.962081   20.275992 H          1 MOL1         0.0947
       7    H5      20.161214   20.570425   21.918930 H          1 MOL1         0.0947
       8    C3      18.843400   18.853684   21.578499 C.3        1 MOL1        -0.1437
       9    H6      17.994803   19.441027   21.201585 H          1 MOL1         0.0947
      10    H7      18.862811   17.935926   20.974766 H          1 MOL1         0.0947
      11    C4      18.574128   18.476438   23.057906 C.3        1 MOL1        -0.1437
      12    H8      19.398551   17.865225   23.443490 H          1 MOL1         0.0947
      13    H9      17.682921   17.834775   23.090380 H          1 MOL1         0.0947
      14    C5      18.331481   19.707103   23.968232 C.3        1 MOL1        -0.1437
      15    H10     19.228569   20.333282   24.026753 H          1 MOL1         0.0947
      16    H11     17.560383   20.338683   23.505914 H          1 MOL1         0.0947
      17    C6      17.852341   19.335022   25.394486 C.3        1 MOL1        -0.1437
      18    H12     16.889272   18.812184   25.314649 H          1 MOL1         0.0947
      19    H13     17.642540   20.260725   25.948002 H          1 MOL1         0.0947
      20    C7      18.819541   18.459510   26.234991 C.3        1 MOL1        -0.1477
      21    H14     18.314775   18.220378   27.180379 H          1 MOL1         0.0947
      22    H15     19.003032   17.494437   25.745930 H          1 MOL1         0.0947
      23    C8      20.155804   19.146437   26.583484 C.3        1 MOL1         0.0145
      24    H16     20.595672   18.653869   27.454873 H          1 MOL1         0.0921
      25    H17     19.976311   20.193820   26.840345 H          1 MOL1         0.0921
      26    N1      21.188178   19.093390   25.476069 N.4        1 MOL1        -0.5969
      27    H18     21.459513   18.128239   25.261647 H          1 MOL1         0.3603
      28    H19     22.045056   19.596746   25.731926 H          1 MOL1         0.3603
      29    H20     20.830485   19.511459   24.611662 H          1 MOL1         0.3603
@<TRIPOS>BOND
    1     1     2    1
    2     1     3    1
    3     1     4    1
    4     1     5    1
    5     5     6    1
    6     5     7    1
    7     5     8    1
    8     8     9    1
    9     8    10    1
   10     8    11    1
   11    11    12    1
   12    11    13    1
   13    11    14    1
   14    14    15    1
   15    14    16    1
   16    14    17    1
   17    17    18    1
   18    17    19    1
   19    17    20    1
   20    20    21    1
   21    20    22    1
   22    20    23    1
   23    23    24    1
   24    23    25    1
   25    23    26    1
   26    26    27    1
   27    26    28    1
   28    26    29    1
@<TRIPOS>SUBSTRUCTURE
       1 MOL1            1 RESIDUE      1      MOL     
@<SCITEGIC>MOL_PROPERTY
VM2 Rank
SciTegic.value.IntegerValue
439

@<SCITEGIC>MOL_PROPERTY
Conf_Id
SciTegic.value.IntegerValue
1347

@<SCITEGIC>MOL_PROPERTY
Probability
SciTegic.value.DoubleValue
0.00

@<SCITEGIC>MOL_PROPERTY
Sum Probability
SciTegic.value.DoubleValue
100.00

@<SCITEGIC>MOL_PROPERTY
Delta G
SciTegic.value.DoubleValue
6.731

@<SCITEGIC>MOL_PROPERTY
G
SciTegic.value.DoubleValue
64.879

@<SCITEGIC>MOL_PROPERTY
E
SciTegic.value.DoubleValue
26.524

@<SCITEGIC>MOL_PROPERTY
-TS
SciTegic.value.DoubleValue
38.356

@<SCITEGIC>MOL_PROPERTY
U+W
SciTegic.value.DoubleValue
2.379

@<SCITEGIC>MOL_PROPERTY
U
SciTegic.value.DoubleValue
54.078

@<SCITEGIC>MOL_PROPERTY
W
SciTegic.value.DoubleValue
-51.699

@<SCITEGIC>MOL_PROPERTY
W(PB)
SciTegic.value.DoubleValue
-54.037

@<SCITEGIC>MOL_PROPERTY
W(SA)
SciTegic.value.DoubleValue
2.338

@<SCITEGIC>MOL_PROPERTY
Valence
SciTegic.value.DoubleValue
5.807

@<SCITEGIC>MOL_PROPERTY
Coulomb
SciTegic.value.DoubleValue
48.135

@<SCITEGIC>MOL_PROPERTY
VdW
SciTegic.value.DoubleValue
0.136

@<SCITEGIC>MOL_PROPERTY
VdW6
SciTegic.value.DoubleValue
-11.657

@<SCITEGIC>MOL_PROPERTY
VdW12
SciTegic.value.DoubleValue
11.793

@<SCITEGIC>MOL_PROPERTY
Bond
SciTegic.value.DoubleValue
0.321

@<SCITEGIC>MOL_PROPERTY
Angle
SciTegic.value.DoubleValue
2.065

@<SCITEGIC>MOL_PROPERTY
Pdih
SciTegic.value.DoubleValue
3.422

@<SCITEGIC>MOL_PROPERTY
Idih
SciTegic.value.DoubleValue
0.000

@<SCITEGIC>MOL_PROPERTY
Tether
SciTegic.value.DoubleValue
0.000

@<TRIPOS>MOLECULE
guest-3_vm2.mol2 : vm2 ligand conformer 440
          29          28           1
SMALL
USER_CHARGES
 
@<TRIPOS>ATOM
       1    C1      21.207365   19.355518   21.486174 C.3        1 MOL1        -0.2427
       2    H1      21.635218   18.468653   21.001063 H          1 MOL1         0.0958
       3    H2      21.864100   20.206270   21.263265 H          1 MOL1         0.0958
       4    H3      21.232836   19.191404   22.568469 H          1 MOL1         0.0958
       5    C2      19.775230   19.628266   20.970096 C.3        1 MOL1        -0.1412
       6    H4      19.837574   19.799316   19.886265 H          1 MOL1         0.0947
       7    H5      19.379100   20.559714   21.396279 H          1 MOL1         0.0947
       8    C3      18.792650   18.457130   21.224173 C.3        1 MOL1        -0.1437
       9    H6      18.079429   18.432956   20.388650 H          1 MOL1         0.0947
      10    H7      19.326901   17.498159   21.179617 H          1 MOL1         0.0947
      11    C4      17.961374   18.544043   22.533023 C.3        1 MOL1        -0.1437
      12    H8      17.231274   17.723226   22.508379 H          1 MOL1         0.0947
      13    H9      17.363555   19.465809   22.539871 H          1 MOL1         0.0947
      14    C5      18.769738   18.417474   23.849217 C.3        1 MOL1        -0.1437
      15    H10     18.162035   17.853517   24.569498 H          1 MOL1         0.0947
      16    H11     19.672006   17.814746   23.680668 H          1 MOL1         0.0947
      17    C6      19.130203   19.787217   24.479417 C.3        1 MOL1        -0.1437
      18    H12     18.208397   20.313626   24.763179 H          1 MOL1         0.0947
      19    H13     19.626863   20.424540   23.738541 H          1 MOL1         0.0947
      20    C7      20.050253   19.660505   25.716028 C.3        1 MOL1        -0.1477
      21    H14     20.986487   19.163435   25.429181 H          1 MOL1         0.0947
      22    H15     20.321648   20.666398   26.063034 H          1 MOL1         0.0947
      23    C8      19.388686   18.889704   26.873527 C.3        1 MOL1         0.0145
      24    H16     19.153058   17.871555   26.553229 H          1 MOL1         0.0921
      25    H17     18.457399   19.385251   27.160726 H          1 MOL1         0.0921
      26    N1      20.268502   18.798143   28.103345 N.4        1 MOL1        -0.5969
      27    H18     21.152196   18.317096   27.905607 H          1 MOL1         0.3603
      28    H19     19.810024   18.281687   28.862101 H          1 MOL1         0.3603
      29    H20     20.505123   19.724803   28.473165 H          1 MOL1         0.3603
@<TRIPOS>BOND
    1     1     2    1
    2     1     3    1
    3     1     4    1
    4     1     5    1
    5     5     6    1
    6     5     7    1
    7     5     8    1
    8     8     9    1
    9     8    10    1
   10     8    11    1
   11    11    12    1
   12    11    13    1
   13    11    14    1
   14    14    15    1
   15    14    16    1
   16    14    17    1
   17    17    18    1
   18    17    19    1
   19    17    20    1
   20    20    21    1
   21    20    22    1
   22    20    23    1
   23    23    24    1
   24    23    25    1
   25    23    26    1
   26    26    27    1
   27    26    28    1
   28    26    29    1
@<TRIPOS>SUBSTRUCTURE
       1 MOL1            1 RESIDUE      1      MOL     
@<SCITEGIC>MOL_PROPERTY
VM2 Rank
SciTegic.value.IntegerValue
440

@<SCITEGIC>MOL_PROPERTY
Conf_Id
SciTegic.value.IntegerValue
614

@<SCITEGIC>MOL_PROPERTY
Probability
SciTegic.value.DoubleValue
0.00

@<SCITEGIC>MOL_PROPERTY
Sum Probability
SciTegic.value.DoubleValue
100.00

@<SCITEGIC>MOL_PROPERTY
Delta G
SciTegic.value.DoubleValue
6.736

@<SCITEGIC>MOL_PROPERTY
G
SciTegic.value.DoubleValue
64.884

@<SCITEGIC>MOL_PROPERTY
E
SciTegic.value.DoubleValue
26.689

@<SCITEGIC>MOL_PROPERTY
-TS
SciTegic.value.DoubleValue
38.195

@<SCITEGIC>MOL_PROPERTY
U+W
SciTegic.value.DoubleValue
2.544

@<SCITEGIC>MOL_PROPERTY
U
SciTegic.value.DoubleValue
54.575

@<SCITEGIC>MOL_PROPERTY
W
SciTegic.value.DoubleValue
-52.031

@<SCITEGIC>MOL_PROPERTY
W(PB)
SciTegic.value.DoubleValue
-54.446

@<SCITEGIC>MOL_PROPERTY
W(SA)
SciTegic.value.DoubleValue
2.415

@<SCITEGIC>MOL_PROPERTY
Valence
SciTegic.value.DoubleValue
8.495

@<SCITEGIC>MOL_PROPERTY
Coulomb
SciTegic.value.DoubleValue
45.440

@<SCITEGIC>MOL_PROPERTY
VdW
SciTegic.value.DoubleValue
0.639

@<SCITEGIC>MOL_PROPERTY
VdW6
SciTegic.value.DoubleValue
-10.456

@<SCITEGIC>MOL_PROPERTY
VdW12
SciTegic.value.DoubleValue
11.095

@<SCITEGIC>MOL_PROPERTY
Bond
SciTegic.value.DoubleValue
0.307

@<SCITEGIC>MOL_PROPERTY
Angle
SciTegic.value.DoubleValue
2.041

@<SCITEGIC>MOL_PROPERTY
Pdih
SciTegic.value.DoubleValue
6.147

@<SCITEGIC>MOL_PROPERTY
Idih
SciTegic.value.DoubleValue
0.000

@<SCITEGIC>MOL_PROPERTY
Tether
SciTegic.value.DoubleValue
0.000

@<TRIPOS>MOLECULE
guest-3_vm2.mol2 : vm2 ligand conformer 441
          29          28           1
SMALL
USER_CHARGES
 
@<TRIPOS>ATOM
       1    C1      19.967379   17.964994   19.815158 C.3        1 MOL1        -0.2427
       2    H1      20.398714   18.838636   19.309234 H          1 MOL1         0.0958
       3    H2      20.790659   17.308050   20.124785 H          1 MOL1         0.0958
       4    H3      19.357369   17.419096   19.083771 H          1 MOL1         0.0958
       5    C2      19.112606   18.392046   21.027038 C.3        1 MOL1        -0.1412
       6    H4      18.667835   17.500705   21.491301 H          1 MOL1         0.0947
       7    H5      18.278713   19.019354   20.682025 H          1 MOL1         0.0947
       8    C3      19.947999   19.163898   22.072013 C.3        1 MOL1        -0.1437
       9    H6      20.783672   18.535004   22.408243 H          1 MOL1         0.0947
      10    H7      20.390234   20.053619   21.602550 H          1 MOL1         0.0947
      11    C4      19.095343   19.592301   23.287259 C.3        1 MOL1        -0.1437
      12    H8      18.627795   18.709228   23.738002 H          1 MOL1         0.0947
      13    H9      18.269504   20.231020   22.944273 H          1 MOL1         0.0947
      14    C5      19.932911   20.368304   24.333441 C.3        1 MOL1        -0.1437
      15    H10     20.858070   19.830247   24.579056 H          1 MOL1         0.0947
      16    H11     20.253274   21.314343   23.875092 H          1 MOL1         0.0947
      17    C6      19.143177   20.691255   25.627504 C.3        1 MOL1        -0.1437
      18    H12     18.071586   20.785874   25.403489 H          1 MOL1         0.0947
      19    H13     19.458289   21.683349   25.979501 H          1 MOL1         0.0947
      20    C7      19.353366   19.695094   26.799309 C.3        1 MOL1        -0.1477
      21    H14     20.406036   19.696006   27.111998 H          1 MOL1         0.0947
      22    H15     18.785240   20.067894   27.661900 H          1 MOL1         0.0947
      23    C8      18.892791   18.249360   26.524149 C.3        1 MOL1         0.0145
      24    H16     17.948358   18.258601   25.973644 H          1 MOL1         0.0921
      25    H17     18.725986   17.739927   27.477094 H          1 MOL1         0.0921
      26    N1      19.898428   17.420749   25.749128 N.4        1 MOL1        -0.5969
      27    H18     19.555288   16.469426   25.575720 H          1 MOL1         0.3603
      28    H19     20.785899   17.332175   26.255226 H          1 MOL1         0.3603
      29    H20     20.105533   17.845059   24.838999 H          1 MOL1         0.3603
@<TRIPOS>BOND
    1     1     2    1
    2     1     3    1
    3     1     4    1
    4     1     5    1
    5     5     6    1
    6     5     7    1
    7     5     8    1
    8     8     9    1
    9     8    10    1
   10     8    11    1
   11    11    12    1
   12    11    13    1
   13    11    14    1
   14    14    15    1
   15    14    16    1
   16    14    17    1
   17    17    18    1
   18    17    19    1
   19    17    20    1
   20    20    21    1
   21    20    22    1
   22    20    23    1
   23    23    24    1
   24    23    25    1
   25    23    26    1
   26    26    27    1
   27    26    28    1
   28    26    29    1
@<TRIPOS>SUBSTRUCTURE
       1 MOL1            1 RESIDUE      1      MOL     
@<SCITEGIC>MOL_PROPERTY
VM2 Rank
SciTegic.value.IntegerValue
441

@<SCITEGIC>MOL_PROPERTY
Conf_Id
SciTegic.value.IntegerValue
2252

@<SCITEGIC>MOL_PROPERTY
Probability
SciTegic.value.DoubleValue
0.00

@<SCITEGIC>MOL_PROPERTY
Sum Probability
SciTegic.value.DoubleValue
100.00

@<SCITEGIC>MOL_PROPERTY
Delta G
SciTegic.value.DoubleValue
6.755

@<SCITEGIC>MOL_PROPERTY
G
SciTegic.value.DoubleValue
64.903

@<SCITEGIC>MOL_PROPERTY
E
SciTegic.value.DoubleValue
26.927

@<SCITEGIC>MOL_PROPERTY
-TS
SciTegic.value.DoubleValue
37.976

@<SCITEGIC>MOL_PROPERTY
U+W
SciTegic.value.DoubleValue
2.782

@<SCITEGIC>MOL_PROPERTY
U
SciTegic.value.DoubleValue
54.340

@<SCITEGIC>MOL_PROPERTY
W
SciTegic.value.DoubleValue
-51.558

@<SCITEGIC>MOL_PROPERTY
W(PB)
SciTegic.value.DoubleValue
-54.002

@<SCITEGIC>MOL_PROPERTY
W(SA)
SciTegic.value.DoubleValue
2.445

@<SCITEGIC>MOL_PROPERTY
Valence
SciTegic.value.DoubleValue
6.615

@<SCITEGIC>MOL_PROPERTY
Coulomb
SciTegic.value.DoubleValue
47.220

@<SCITEGIC>MOL_PROPERTY
VdW
SciTegic.value.DoubleValue
0.505

@<SCITEGIC>MOL_PROPERTY
VdW6
SciTegic.value.DoubleValue
-10.122

@<SCITEGIC>MOL_PROPERTY
VdW12
SciTegic.value.DoubleValue
10.627

@<SCITEGIC>MOL_PROPERTY
Bond
SciTegic.value.DoubleValue
0.248

@<SCITEGIC>MOL_PROPERTY
Angle
SciTegic.value.DoubleValue
1.458

@<SCITEGIC>MOL_PROPERTY
Pdih
SciTegic.value.DoubleValue
4.909

@<SCITEGIC>MOL_PROPERTY
Idih
SciTegic.value.DoubleValue
0.000

@<SCITEGIC>MOL_PROPERTY
Tether
SciTegic.value.DoubleValue
0.000

@<TRIPOS>MOLECULE
guest-3_vm2.mol2 : vm2 ligand conformer 442
          29          28           1
SMALL
USER_CHARGES
 
@<TRIPOS>ATOM
       1    C1      21.219090   18.282657   21.452682 C.3        1 MOL1        -0.2427
       2    H1      21.946216   19.067440   21.206792 H          1 MOL1         0.0958
       3    H2      21.212704   18.156990   22.540466 H          1 MOL1         0.0958
       4    H3      21.580924   17.344402   21.012602 H          1 MOL1         0.0958
       5    C2      19.818959   18.634376   20.897943 C.3        1 MOL1        -0.1412
       6    H4      19.112950   17.815675   21.095048 H          1 MOL1         0.0947
       7    H5      19.898025   18.708296   19.804256 H          1 MOL1         0.0947
       8    C3      19.257573   19.973084   21.442581 C.3        1 MOL1        -0.1437
       9    H6      20.079604   20.665953   21.669032 H          1 MOL1         0.0947
      10    H7      18.680074   20.452446   20.640043 H          1 MOL1         0.0947
      11    C4      18.321221   19.836162   22.670887 C.3        1 MOL1        -0.1437
      12    H8      17.448734   19.226724   22.397801 H          1 MOL1         0.0947
      13    H9      17.932194   20.833382   22.919008 H          1 MOL1         0.0947
      14    C5      18.997517   19.234592   23.924043 C.3        1 MOL1        -0.1437
      15    H10     19.264685   18.187971   23.729296 H          1 MOL1         0.0947
      16    H11     19.923073   19.787652   24.124636 H          1 MOL1         0.0947
      17    C6      18.069701   19.297767   25.160167 C.3        1 MOL1        -0.1437
      18    H12     17.090156   18.879131   24.890570 H          1 MOL1         0.0947
      19    H13     17.890159   20.347373   25.431281 H          1 MOL1         0.0947
      20    C7      18.598384   18.528715   26.397862 C.3        1 MOL1        -0.1477
      21    H14     17.824368   18.570694   27.175662 H          1 MOL1         0.0947
      22    H15     18.728947   17.464667   26.159908 H          1 MOL1         0.0947
      23    C8      19.899441   19.099349   26.999298 C.3        1 MOL1         0.0145
      24    H16     19.984972   18.770628   28.038574 H          1 MOL1         0.0921
      25    H17     19.864372   20.192041   26.990967 H          1 MOL1         0.0921
      26    N1      21.162114   18.651296   26.289537 N.4        1 MOL1        -0.5969
      27    H18     21.269479   17.631890   26.315618 H          1 MOL1         0.3603
      28    H19     22.002478   19.051767   26.721034 H          1 MOL1         0.3603
      29    H20     21.163013   18.932230   25.305081 H          1 MOL1         0.3603
@<TRIPOS>BOND
    1     1     2    1
    2     1     3    1
    3     1     4    1
    4     1     5    1
    5     5     6    1
    6     5     7    1
    7     5     8    1
    8     8     9    1
    9     8    10    1
   10     8    11    1
   11    11    12    1
   12    11    13    1
   13    11    14    1
   14    14    15    1
   15    14    16    1
   16    14    17    1
   17    17    18    1
   18    17    19    1
   19    17    20    1
   20    20    21    1
   21    20    22    1
   22    20    23    1
   23    23    24    1
   24    23    25    1
   25    23    26    1
   26    26    27    1
   27    26    28    1
   28    26    29    1
@<TRIPOS>SUBSTRUCTURE
       1 MOL1            1 RESIDUE      1      MOL     
@<SCITEGIC>MOL_PROPERTY
VM2 Rank
SciTegic.value.IntegerValue
442

@<SCITEGIC>MOL_PROPERTY
Conf_Id
SciTegic.value.IntegerValue
1592

@<SCITEGIC>MOL_PROPERTY
Probability
SciTegic.value.DoubleValue
0.00

@<SCITEGIC>MOL_PROPERTY
Sum Probability
SciTegic.value.DoubleValue
100.00

@<SCITEGIC>MOL_PROPERTY
Delta G
SciTegic.value.DoubleValue
6.781

@<SCITEGIC>MOL_PROPERTY
G
SciTegic.value.DoubleValue
64.929

@<SCITEGIC>MOL_PROPERTY
E
SciTegic.value.DoubleValue
27.253

@<SCITEGIC>MOL_PROPERTY
-TS
SciTegic.value.DoubleValue
37.676

@<SCITEGIC>MOL_PROPERTY
U+W
SciTegic.value.DoubleValue
3.109

@<SCITEGIC>MOL_PROPERTY
U
SciTegic.value.DoubleValue
55.183

@<SCITEGIC>MOL_PROPERTY
W
SciTegic.value.DoubleValue
-52.075

@<SCITEGIC>MOL_PROPERTY
W(PB)
SciTegic.value.DoubleValue
-54.499

@<SCITEGIC>MOL_PROPERTY
W(SA)
SciTegic.value.DoubleValue
2.425

@<SCITEGIC>MOL_PROPERTY
Valence
SciTegic.value.DoubleValue
7.142

@<SCITEGIC>MOL_PROPERTY
Coulomb
SciTegic.value.DoubleValue
47.365

@<SCITEGIC>MOL_PROPERTY
VdW
SciTegic.value.DoubleValue
0.676

@<SCITEGIC>MOL_PROPERTY
VdW6
SciTegic.value.DoubleValue
-10.168

@<SCITEGIC>MOL_PROPERTY
VdW12
SciTegic.value.DoubleValue
10.844

@<SCITEGIC>MOL_PROPERTY
Bond
SciTegic.value.DoubleValue
0.287

@<SCITEGIC>MOL_PROPERTY
Angle
SciTegic.value.DoubleValue
1.759

@<SCITEGIC>MOL_PROPERTY
Pdih
SciTegic.value.DoubleValue
5.096

@<SCITEGIC>MOL_PROPERTY
Idih
SciTegic.value.DoubleValue
0.000

@<SCITEGIC>MOL_PROPERTY
Tether
SciTegic.value.DoubleValue
0.000

@<TRIPOS>MOLECULE
guest-3_vm2.mol2 : vm2 ligand conformer 443
          29          28           1
SMALL
USER_CHARGES
 
@<TRIPOS>ATOM
       1    C1      20.431864   17.510026   22.087585 C.3        1 MOL1        -0.2427
       2    H1      20.181893   16.442712   22.031756 H          1 MOL1         0.0958
       3    H2      21.446126   17.636102   21.687173 H          1 MOL1         0.0958
       4    H3      20.451702   17.792881   23.144928 H          1 MOL1         0.0958
       5    C2      19.413713   18.347878   21.279707 C.3        1 MOL1        -0.1412
       6    H4      18.388511   18.147352   21.618614 H          1 MOL1         0.0947
       7    H5      19.454136   18.008249   20.235273 H          1 MOL1         0.0947
       8    C3      19.705803   19.869233   21.312648 C.3        1 MOL1        -0.1437
       9    H6      20.786156   20.045722   21.406198 H          1 MOL1         0.0947
      10    H7      19.425842   20.284886   20.334785 H          1 MOL1         0.0947
      11    C4      18.938199   20.679804   22.392050 C.3        1 MOL1        -0.1437
      12    H8      17.854968   20.577807   22.239857 H          1 MOL1         0.0947
      13    H9      19.158283   21.742024   22.217066 H          1 MOL1         0.0947
      14    C5      19.307958   20.357188   23.862383 C.3        1 MOL1        -0.1437
      15    H10     20.353029   20.027228   23.918632 H          1 MOL1         0.0947
      16    H11     19.256026   21.288552   24.443040 H          1 MOL1         0.0947
      17    C6      18.354122   19.329193   24.523879 C.3        1 MOL1        -0.1437
      18    H12     18.350551   18.386612   23.964186 H          1 MOL1         0.0947
      19    H13     17.326408   19.714818   24.477109 H          1 MOL1         0.0947
      20    C7      18.705438   19.042872   26.002487 C.3        1 MOL1        -0.1477
      21    H14     18.687366   19.979895   26.574870 H          1 MOL1         0.0947
      22    H15     17.930185   18.395750   26.433906 H          1 MOL1         0.0947
      23    C8      20.076774   18.361404   26.165937 C.3        1 MOL1         0.0145
      24    H16     20.863368   19.013182   25.777341 H          1 MOL1         0.0921
      25    H17     20.092432   17.426128   25.599949 H          1 MOL1         0.0921
      26    N1      20.410126   18.040402   27.608322 N.4        1 MOL1        -0.5969
      27    H18     20.436849   18.884029   28.190584 H          1 MOL1         0.3603
      28    H19     21.326354   17.587184   27.696147 H          1 MOL1         0.3603
      29    H20     19.721689   17.406330   28.027184 H          1 MOL1         0.3603
@<TRIPOS>BOND
    1     1     2    1
    2     1     3    1
    3     1     4    1
    4     1     5    1
    5     5     6    1
    6     5     7    1
    7     5     8    1
    8     8     9    1
    9     8    10    1
   10     8    11    1
   11    11    12    1
   12    11    13    1
   13    11    14    1
   14    14    15    1
   15    14    16    1
   16    14    17    1
   17    17    18    1
   18    17    19    1
   19    17    20    1
   20    20    21    1
   21    20    22    1
   22    20    23    1
   23    23    24    1
   24    23    25    1
   25    23    26    1
   26    26    27    1
   27    26    28    1
   28    26    29    1
@<TRIPOS>SUBSTRUCTURE
       1 MOL1            1 RESIDUE      1      MOL     
@<SCITEGIC>MOL_PROPERTY
VM2 Rank
SciTegic.value.IntegerValue
443

@<SCITEGIC>MOL_PROPERTY
Conf_Id
SciTegic.value.IntegerValue
2246

@<SCITEGIC>MOL_PROPERTY
Probability
SciTegic.value.DoubleValue
0.00

@<SCITEGIC>MOL_PROPERTY
Sum Probability
SciTegic.value.DoubleValue
100.00

@<SCITEGIC>MOL_PROPERTY
Delta G
SciTegic.value.DoubleValue
6.804

@<SCITEGIC>MOL_PROPERTY
G
SciTegic.value.DoubleValue
64.952

@<SCITEGIC>MOL_PROPERTY
E
SciTegic.value.DoubleValue
26.642

@<SCITEGIC>MOL_PROPERTY
-TS
SciTegic.value.DoubleValue
38.310

@<SCITEGIC>MOL_PROPERTY
U+W
SciTegic.value.DoubleValue
2.497

@<SCITEGIC>MOL_PROPERTY
U
SciTegic.value.DoubleValue
54.905

@<SCITEGIC>MOL_PROPERTY
W
SciTegic.value.DoubleValue
-52.407

@<SCITEGIC>MOL_PROPERTY
W(PB)
SciTegic.value.DoubleValue
-54.812

@<SCITEGIC>MOL_PROPERTY
W(SA)
SciTegic.value.DoubleValue
2.405

@<SCITEGIC>MOL_PROPERTY
Valence
SciTegic.value.DoubleValue
8.488

@<SCITEGIC>MOL_PROPERTY
Coulomb
SciTegic.value.DoubleValue
45.987

@<SCITEGIC>MOL_PROPERTY
VdW
SciTegic.value.DoubleValue
0.429

@<SCITEGIC>MOL_PROPERTY
VdW6
SciTegic.value.DoubleValue
-10.773

@<SCITEGIC>MOL_PROPERTY
VdW12
SciTegic.value.DoubleValue
11.202

@<SCITEGIC>MOL_PROPERTY
Bond
SciTegic.value.DoubleValue
0.308

@<SCITEGIC>MOL_PROPERTY
Angle
SciTegic.value.DoubleValue
2.070

@<SCITEGIC>MOL_PROPERTY
Pdih
SciTegic.value.DoubleValue
6.110

@<SCITEGIC>MOL_PROPERTY
Idih
SciTegic.value.DoubleValue
0.000

@<SCITEGIC>MOL_PROPERTY
Tether
SciTegic.value.DoubleValue
0.000

@<TRIPOS>MOLECULE
guest-3_vm2.mol2 : vm2 ligand conformer 444
          29          28           1
SMALL
USER_CHARGES
 
@<TRIPOS>ATOM
       1    C1      18.908585   19.549203   19.736796 C.3        1 MOL1        -0.2427
       2    H1      18.880787   20.630552   19.924269 H          1 MOL1         0.0958
       3    H2      19.869013   19.308916   19.262364 H          1 MOL1         0.0958
       4    H3      18.110412   19.310378   19.022013 H          1 MOL1         0.0958
       5    C2      18.722884   18.754269   21.046549 C.3        1 MOL1        -0.1412
       6    H4      18.720616   17.678332   20.822466 H          1 MOL1         0.0947
       7    H5      17.740818   18.990211   21.479857 H          1 MOL1         0.0947
       8    C3      19.834641   19.071923   22.070870 C.3        1 MOL1        -0.1437
       9    H6      20.813382   18.835254   21.631281 H          1 MOL1         0.0947
      10    H7      19.834343   20.149445   22.279729 H          1 MOL1         0.0947
      11    C4      19.650534   18.273011   23.383766 C.3        1 MOL1        -0.1437
      12    H8      19.639369   17.200937   23.143034 H          1 MOL1         0.0947
      13    H9      18.669393   18.506895   23.813865 H          1 MOL1         0.0947
      14    C5      20.777768   18.536285   24.416429 C.3        1 MOL1        -0.1437
      15    H10     20.795602   17.737367   25.169455 H          1 MOL1         0.0947
      16    H11     21.743702   18.462262   23.897781 H          1 MOL1         0.0947
      17    C6      20.692822   19.916378   25.121918 C.3        1 MOL1        -0.1437
      18    H12     20.214549   20.657773   24.469421 H          1 MOL1         0.0947
      19    H13     21.717750   20.280909   25.276595 H          1 MOL1         0.0947
      20    C7      19.989437   19.911262   26.505231 C.3        1 MOL1        -0.1477
      21    H14     20.536341   19.267476   27.206885 H          1 MOL1         0.0947
      22    H15     20.055197   20.926716   26.917952 H          1 MOL1         0.0947
      23    C8      18.500497   19.511708   26.479742 C.3        1 MOL1         0.0145
      24    H16     18.014284   19.945687   25.602002 H          1 MOL1         0.0921
      25    H17     18.008502   19.907985   27.372127 H          1 MOL1         0.0921
      26    N1      18.266832   18.013960   26.473699 N.4        1 MOL1        -0.5969
      27    H18     18.710445   17.571299   25.662840 H          1 MOL1         0.3603
      28    H19     17.267379   17.784100   26.442377 H          1 MOL1         0.3603
      29    H20     18.650962   17.567689   27.313214 H          1 MOL1         0.3603
@<TRIPOS>BOND
    1     1     2    1
    2     1     3    1
    3     1     4    1
    4     1     5    1
    5     5     6    1
    6     5     7    1
    7     5     8    1
    8     8     9    1
    9     8    10    1
   10     8    11    1
   11    11    12    1
   12    11    13    1
   13    11    14    1
   14    14    15    1
   15    14    16    1
   16    14    17    1
   17    17    18    1
   18    17    19    1
   19    17    20    1
   20    20    21    1
   21    20    22    1
   22    20    23    1
   23    23    24    1
   24    23    25    1
   25    23    26    1
   26    26    27    1
   27    26    28    1
   28    26    29    1
@<TRIPOS>SUBSTRUCTURE
       1 MOL1            1 RESIDUE      1      MOL     
@<SCITEGIC>MOL_PROPERTY
VM2 Rank
SciTegic.value.IntegerValue
444

@<SCITEGIC>MOL_PROPERTY
Conf_Id
SciTegic.value.IntegerValue
1989

@<SCITEGIC>MOL_PROPERTY
Probability
SciTegic.value.DoubleValue
0.00

@<SCITEGIC>MOL_PROPERTY
Sum Probability
SciTegic.value.DoubleValue
100.00

@<SCITEGIC>MOL_PROPERTY
Delta G
SciTegic.value.DoubleValue
6.847

@<SCITEGIC>MOL_PROPERTY
G
SciTegic.value.DoubleValue
64.995

@<SCITEGIC>MOL_PROPERTY
E
SciTegic.value.DoubleValue
26.997

@<SCITEGIC>MOL_PROPERTY
-TS
SciTegic.value.DoubleValue
37.998

@<SCITEGIC>MOL_PROPERTY
U+W
SciTegic.value.DoubleValue
2.853

@<SCITEGIC>MOL_PROPERTY
U
SciTegic.value.DoubleValue
55.101

@<SCITEGIC>MOL_PROPERTY
W
SciTegic.value.DoubleValue
-52.248

@<SCITEGIC>MOL_PROPERTY
W(PB)
SciTegic.value.DoubleValue
-54.682

@<SCITEGIC>MOL_PROPERTY
W(SA)
SciTegic.value.DoubleValue
2.434

@<SCITEGIC>MOL_PROPERTY
Valence
SciTegic.value.DoubleValue
7.379

@<SCITEGIC>MOL_PROPERTY
Coulomb
SciTegic.value.DoubleValue
47.020

@<SCITEGIC>MOL_PROPERTY
VdW
SciTegic.value.DoubleValue
0.702

@<SCITEGIC>MOL_PROPERTY
VdW6
SciTegic.value.DoubleValue
-10.390

@<SCITEGIC>MOL_PROPERTY
VdW12
SciTegic.value.DoubleValue
11.091

@<SCITEGIC>MOL_PROPERTY
Bond
SciTegic.value.DoubleValue
0.297

@<SCITEGIC>MOL_PROPERTY
Angle
SciTegic.value.DoubleValue
1.605

@<SCITEGIC>MOL_PROPERTY
Pdih
SciTegic.value.DoubleValue
5.476

@<SCITEGIC>MOL_PROPERTY
Idih
SciTegic.value.DoubleValue
0.000

@<SCITEGIC>MOL_PROPERTY
Tether
SciTegic.value.DoubleValue
0.000

@<TRIPOS>MOLECULE
guest-3_vm2.mol2 : vm2 ligand conformer 445
          29          28           1
SMALL
USER_CHARGES
 
@<TRIPOS>ATOM
       1    C1      20.896837   20.125132   20.756551 C.3        1 MOL1        -0.2427
       2    H1      20.254969   20.094666   19.866411 H          1 MOL1         0.0958
       3    H2      21.271840   21.150896   20.866972 H          1 MOL1         0.0958
       4    H3      21.758983   19.468995   20.579352 H          1 MOL1         0.0958
       5    C2      20.117918   19.691411   22.016411 C.3        1 MOL1        -0.1412
       6    H4      19.292763   20.396246   22.174567 H          1 MOL1         0.0947
       7    H5      20.778379   19.754903   22.891356 H          1 MOL1         0.0947
       8    C3      19.561826   18.256724   21.875640 C.3        1 MOL1        -0.1437
       9    H6      18.795675   18.240049   21.088366 H          1 MOL1         0.0947
      10    H7      20.369153   17.598301   21.526356 H          1 MOL1         0.0947
      11    C4      18.978679   17.645558   23.176674 C.3        1 MOL1        -0.1437
      12    H8      19.759830   17.543436   23.937150 H          1 MOL1         0.0947
      13    H9      18.686196   16.613886   22.937076 H          1 MOL1         0.0947
      14    C5      17.723935   18.357604   23.751935 C.3        1 MOL1        -0.1437
      15    H10     17.079186   18.679395   22.922670 H          1 MOL1         0.0947
      16    H11     17.136099   17.610187   24.302580 H          1 MOL1         0.0947
      17    C6      17.964633   19.557811   24.710069 C.3        1 MOL1        -0.1437
      18    H12     16.976152   19.923557   25.020767 H          1 MOL1         0.0947
      19    H13     18.427920   20.402513   24.188846 H          1 MOL1         0.0947
      20    C7      18.767103   19.219703   25.992099 C.3        1 MOL1        -0.1477
      21    H14     18.383836   19.834620   26.817343 H          1 MOL1         0.0947
      22    H15     18.598464   18.174054   26.281955 H          1 MOL1         0.0947
      23    C8      20.275295   19.501481   25.849210 C.3        1 MOL1         0.0145
      24    H16     20.429125   20.558725   25.616971 H          1 MOL1         0.0921
      25    H17     20.696669   18.909555   25.034787 H          1 MOL1         0.0921
      26    N1      21.057773   19.182575   27.106411 N.4        1 MOL1        -0.5969
      27    H18     20.976393   18.194052   27.366317 H          1 MOL1         0.3603
      28    H19     20.732385   19.733002   27.908024 H          1 MOL1         0.3603
      29    H20     22.057976   19.381246   26.993836 H          1 MOL1         0.3603
@<TRIPOS>BOND
    1     1     2    1
    2     1     3    1
    3     1     4    1
    4     1     5    1
    5     5     6    1
    6     5     7    1
    7     5     8    1
    8     8     9    1
    9     8    10    1
   10     8    11    1
   11    11    12    1
   12    11    13    1
   13    11    14    1
   14    14    15    1
   15    14    16    1
   16    14    17    1
   17    17    18    1
   18    17    19    1
   19    17    20    1
   20    20    21    1
   21    20    22    1
   22    20    23    1
   23    23    24    1
   24    23    25    1
   25    23    26    1
   26    26    27    1
   27    26    28    1
   28    26    29    1
@<TRIPOS>SUBSTRUCTURE
       1 MOL1            1 RESIDUE      1      MOL     
@<SCITEGIC>MOL_PROPERTY
VM2 Rank
SciTegic.value.IntegerValue
445

@<SCITEGIC>MOL_PROPERTY
Conf_Id
SciTegic.value.IntegerValue
1652

@<SCITEGIC>MOL_PROPERTY
Probability
SciTegic.value.DoubleValue
0.00

@<SCITEGIC>MOL_PROPERTY
Sum Probability
SciTegic.value.DoubleValue
100.00

@<SCITEGIC>MOL_PROPERTY
Delta G
SciTegic.value.DoubleValue
6.918

@<SCITEGIC>MOL_PROPERTY
G
SciTegic.value.DoubleValue
65.066

@<SCITEGIC>MOL_PROPERTY
E
SciTegic.value.DoubleValue
27.115

@<SCITEGIC>MOL_PROPERTY
-TS
SciTegic.value.DoubleValue
37.951

@<SCITEGIC>MOL_PROPERTY
U+W
SciTegic.value.DoubleValue
2.971

@<SCITEGIC>MOL_PROPERTY
U
SciTegic.value.DoubleValue
55.710

@<SCITEGIC>MOL_PROPERTY
W
SciTegic.value.DoubleValue
-52.739

@<SCITEGIC>MOL_PROPERTY
W(PB)
SciTegic.value.DoubleValue
-55.149

@<SCITEGIC>MOL_PROPERTY
W(SA)
SciTegic.value.DoubleValue
2.410

@<SCITEGIC>MOL_PROPERTY
Valence
SciTegic.value.DoubleValue
8.730

@<SCITEGIC>MOL_PROPERTY
Coulomb
SciTegic.value.DoubleValue
46.536

@<SCITEGIC>MOL_PROPERTY
VdW
SciTegic.value.DoubleValue
0.444

@<SCITEGIC>MOL_PROPERTY
VdW6
SciTegic.value.DoubleValue
-10.614

@<SCITEGIC>MOL_PROPERTY
VdW12
SciTegic.value.DoubleValue
11.058

@<SCITEGIC>MOL_PROPERTY
Bond
SciTegic.value.DoubleValue
0.338

@<SCITEGIC>MOL_PROPERTY
Angle
SciTegic.value.DoubleValue
2.906

@<SCITEGIC>MOL_PROPERTY
Pdih
SciTegic.value.DoubleValue
5.486

@<SCITEGIC>MOL_PROPERTY
Idih
SciTegic.value.DoubleValue
0.000

@<SCITEGIC>MOL_PROPERTY
Tether
SciTegic.value.DoubleValue
0.000

@<TRIPOS>MOLECULE
guest-3_vm2.mol2 : vm2 ligand conformer 446
          29          28           1
SMALL
USER_CHARGES
 
@<TRIPOS>ATOM
       1    C1      21.407161   19.371453   21.548967 C.3        1 MOL1        -0.2427
       2    H1      21.443439   19.140167   22.618657 H          1 MOL1         0.0958
       3    H2      21.766060   18.490114   21.001654 H          1 MOL1         0.0958
       4    H3      22.113223   20.190482   21.360249 H          1 MOL1         0.0958
       5    C2      19.985239   19.765252   21.085629 C.3        1 MOL1        -0.1412
       6    H4      20.029790   19.990294   20.010806 H          1 MOL1         0.0947
       7    H5      19.666914   20.695830   21.575780 H          1 MOL1         0.0947
       8    C3      18.933963   18.648744   21.313819 C.3        1 MOL1        -0.1437
       9    H6      18.223986   18.670732   20.475486 H          1 MOL1         0.0947
      10    H7      19.413039   17.660983   21.269367 H          1 MOL1         0.0947
      11    C4      18.113811   18.784404   22.622707 C.3        1 MOL1        -0.1437
      12    H8      17.366490   17.979261   22.643624 H          1 MOL1         0.0947
      13    H9      17.548263   19.726220   22.602501 H          1 MOL1         0.0947
      14    C5      18.960913   18.722080   23.914652 C.3        1 MOL1        -0.1437
      15    H10     19.592730   17.823475   23.895899 H          1 MOL1         0.0947
      16    H11     19.620175   19.596499   23.945229 H          1 MOL1         0.0947
      17    C6      18.073298   18.708827   25.181649 C.3        1 MOL1        -0.1437
      18    H12     17.318065   17.917337   25.079340 H          1 MOL1         0.0947
      19    H13     17.518207   19.654647   25.250415 H          1 MOL1         0.0947
      20    C7      18.846477   18.466699   26.503178 C.3        1 MOL1        -0.1477
      21    H14     18.109849   18.387934   27.313747 H          1 MOL1         0.0947
      22    H15     19.364190   17.498791   26.471596 H          1 MOL1         0.0947
      23    C8      19.839586   19.585775   26.879458 C.3        1 MOL1         0.0145
      24    H16     20.033280   19.542600   27.954677 H          1 MOL1         0.0921
      25    H17     19.402634   20.561916   26.652516 H          1 MOL1         0.0921
      26    N1      21.183552   19.484766   26.184940 N.4        1 MOL1        -0.5969
      27    H18     21.660487   18.605367   26.410141 H          1 MOL1         0.3603
      28    H19     21.812709   20.246009   26.463379 H          1 MOL1         0.3603
      29    H20     21.087434   19.526699   25.166705 H          1 MOL1         0.3603
@<TRIPOS>BOND
    1     1     2    1
    2     1     3    1
    3     1     4    1
    4     1     5    1
    5     5     6    1
    6     5     7    1
    7     5     8    1
    8     8     9    1
    9     8    10    1
   10     8    11    1
   11    11    12    1
   12    11    13    1
   13    11    14    1
   14    14    15    1
   15    14    16    1
   16    14    17    1
   17    17    18    1
   18    17    19    1
   19    17    20    1
   20    20    21    1
   21    20    22    1
   22    20    23    1
   23    23    24    1
   24    23    25    1
   25    23    26    1
   26    26    27    1
   27    26    28    1
   28    26    29    1
@<TRIPOS>SUBSTRUCTURE
       1 MOL1            1 RESIDUE      1      MOL     
@<SCITEGIC>MOL_PROPERTY
VM2 Rank
SciTegic.value.IntegerValue
446

@<SCITEGIC>MOL_PROPERTY
Conf_Id
SciTegic.value.IntegerValue
672

@<SCITEGIC>MOL_PROPERTY
Probability
SciTegic.value.DoubleValue
0.00

@<SCITEGIC>MOL_PROPERTY
Sum Probability
SciTegic.value.DoubleValue
100.00

@<SCITEGIC>MOL_PROPERTY
Delta G
SciTegic.value.DoubleValue
6.972

@<SCITEGIC>MOL_PROPERTY
G
SciTegic.value.DoubleValue
65.120

@<SCITEGIC>MOL_PROPERTY
E
SciTegic.value.DoubleValue
27.478

@<SCITEGIC>MOL_PROPERTY
-TS
SciTegic.value.DoubleValue
37.642

@<SCITEGIC>MOL_PROPERTY
U+W
SciTegic.value.DoubleValue
3.334

@<SCITEGIC>MOL_PROPERTY
U
SciTegic.value.DoubleValue
55.356

@<SCITEGIC>MOL_PROPERTY
W
SciTegic.value.DoubleValue
-52.023

@<SCITEGIC>MOL_PROPERTY
W(PB)
SciTegic.value.DoubleValue
-54.422

@<SCITEGIC>MOL_PROPERTY
W(SA)
SciTegic.value.DoubleValue
2.399

@<SCITEGIC>MOL_PROPERTY
Valence
SciTegic.value.DoubleValue
7.162

@<SCITEGIC>MOL_PROPERTY
Coulomb
SciTegic.value.DoubleValue
47.546

@<SCITEGIC>MOL_PROPERTY
VdW
SciTegic.value.DoubleValue
0.649

@<SCITEGIC>MOL_PROPERTY
VdW6
SciTegic.value.DoubleValue
-10.234

@<SCITEGIC>MOL_PROPERTY
VdW12
SciTegic.value.DoubleValue
10.883

@<SCITEGIC>MOL_PROPERTY
Bond
SciTegic.value.DoubleValue
0.291

@<SCITEGIC>MOL_PROPERTY
Angle
SciTegic.value.DoubleValue
1.731

@<SCITEGIC>MOL_PROPERTY
Pdih
SciTegic.value.DoubleValue
5.140

@<SCITEGIC>MOL_PROPERTY
Idih
SciTegic.value.DoubleValue
0.000

@<SCITEGIC>MOL_PROPERTY
Tether
SciTegic.value.DoubleValue
0.000

@<TRIPOS>MOLECULE
guest-3_vm2.mol2 : vm2 ligand conformer 447
          29          28           1
SMALL
USER_CHARGES
 
@<TRIPOS>ATOM
       1    C1      21.290796   19.203444   21.604661 C.3        1 MOL1        -0.2427
       2    H1      21.375537   20.020719   22.332562 H          1 MOL1         0.0958
       3    H2      21.351950   18.248055   22.139663 H          1 MOL1         0.0958
       4    H3      22.158489   19.258434   20.934635 H          1 MOL1         0.0958
       5    C2      19.979006   19.309396   20.797178 C.3        1 MOL1        -0.1412
       6    H4      19.883134   18.433534   20.140427 H          1 MOL1         0.0947
       7    H5      20.045657   20.181817   20.132235 H          1 MOL1         0.0947
       8    C3      18.702674   19.452226   21.665082 C.3        1 MOL1        -0.1437
       9    H6      18.747240   20.384179   22.241521 H          1 MOL1         0.0947
      10    H7      17.852784   19.573444   20.979389 H          1 MOL1         0.0947
      11    C4      18.402653   18.238870   22.587426 C.3        1 MOL1        -0.1437
      12    H8      18.777645   17.320897   22.114519 H          1 MOL1         0.0947
      13    H9      17.313828   18.108586   22.655418 H          1 MOL1         0.0947
      14    C5      18.968867   18.347108   24.027736 C.3        1 MOL1        -0.1437
      15    H10     18.832053   17.376353   24.523653 H          1 MOL1         0.0947
      16    H11     20.046458   18.531649   23.988597 H          1 MOL1         0.0947
      17    C6      18.278997   19.444506   24.876955 C.3        1 MOL1        -0.1437
      18    H12     17.190196   19.349304   24.765186 H          1 MOL1         0.0947
      19    H13     18.541223   20.438805   24.493018 H          1 MOL1         0.0947
      20    C7      18.614800   19.384986   26.389013 C.3        1 MOL1        -0.1477
      21    H14     18.001468   20.139257   26.899633 H          1 MOL1         0.0947
      22    H15     18.314304   18.416621   26.810688 H          1 MOL1         0.0947
      23    C8      20.091963   19.674538   26.727191 C.3        1 MOL1         0.0145
      24    H16     20.162976   19.987564   27.772389 H          1 MOL1         0.0921
      25    H17     20.462404   20.491675   26.102422 H          1 MOL1         0.0921
      26    N1      21.014244   18.482926   26.559756 N.4        1 MOL1        -0.5969
      27    H18     21.009493   18.132170   25.597930 H          1 MOL1         0.3603
      28    H19     20.740841   17.704314   27.168340 H          1 MOL1         0.3603
      29    H20     21.985237   18.718288   26.793055 H          1 MOL1         0.3603
@<TRIPOS>BOND
    1     1     2    1
    2     1     3    1
    3     1     4    1
    4     1     5    1
    5     5     6    1
    6     5     7    1
    7     5     8    1
    8     8     9    1
    9     8    10    1
   10     8    11    1
   11    11    12    1
   12    11    13    1
   13    11    14    1
   14    14    15    1
   15    14    16    1
   16    14    17    1
   17    17    18    1
   18    17    19    1
   19    17    20    1
   20    20    21    1
   21    20    22    1
   22    20    23    1
   23    23    24    1
   24    23    25    1
   25    23    26    1
   26    26    27    1
   27    26    28    1
   28    26    29    1
@<TRIPOS>SUBSTRUCTURE
       1 MOL1            1 RESIDUE      1      MOL     
@<SCITEGIC>MOL_PROPERTY
VM2 Rank
SciTegic.value.IntegerValue
447

@<SCITEGIC>MOL_PROPERTY
Conf_Id
SciTegic.value.IntegerValue
2255

@<SCITEGIC>MOL_PROPERTY
Probability
SciTegic.value.DoubleValue
0.00

@<SCITEGIC>MOL_PROPERTY
Sum Probability
SciTegic.value.DoubleValue
100.00

@<SCITEGIC>MOL_PROPERTY
Delta G
SciTegic.value.DoubleValue
6.994

@<SCITEGIC>MOL_PROPERTY
G
SciTegic.value.DoubleValue
65.142

@<SCITEGIC>MOL_PROPERTY
E
SciTegic.value.DoubleValue
27.494

@<SCITEGIC>MOL_PROPERTY
-TS
SciTegic.value.DoubleValue
37.648

@<SCITEGIC>MOL_PROPERTY
U+W
SciTegic.value.DoubleValue
3.349

@<SCITEGIC>MOL_PROPERTY
U
SciTegic.value.DoubleValue
55.770

@<SCITEGIC>MOL_PROPERTY
W
SciTegic.value.DoubleValue
-52.421

@<SCITEGIC>MOL_PROPERTY
W(PB)
SciTegic.value.DoubleValue
-54.802

@<SCITEGIC>MOL_PROPERTY
W(SA)
SciTegic.value.DoubleValue
2.381

@<SCITEGIC>MOL_PROPERTY
Valence
SciTegic.value.DoubleValue
7.801

@<SCITEGIC>MOL_PROPERTY
Coulomb
SciTegic.value.DoubleValue
47.165

@<SCITEGIC>MOL_PROPERTY
VdW
SciTegic.value.DoubleValue
0.805

@<SCITEGIC>MOL_PROPERTY
VdW6
SciTegic.value.DoubleValue
-10.759

@<SCITEGIC>MOL_PROPERTY
VdW12
SciTegic.value.DoubleValue
11.563

@<SCITEGIC>MOL_PROPERTY
Bond
SciTegic.value.DoubleValue
0.351

@<SCITEGIC>MOL_PROPERTY
Angle
SciTegic.value.DoubleValue
2.050

@<SCITEGIC>MOL_PROPERTY
Pdih
SciTegic.value.DoubleValue
5.400

@<SCITEGIC>MOL_PROPERTY
Idih
SciTegic.value.DoubleValue
0.000

@<SCITEGIC>MOL_PROPERTY
Tether
SciTegic.value.DoubleValue
0.000

@<TRIPOS>MOLECULE
guest-3_vm2.mol2 : vm2 ligand conformer 448
          29          28           1
SMALL
USER_CHARGES
 
@<TRIPOS>ATOM
       1    C1      20.810768   17.696580   21.511475 C.3        1 MOL1        -0.2427
       2    H1      21.653182   18.173916   20.994166 H          1 MOL1         0.0958
       3    H2      20.970171   17.810619   22.588803 H          1 MOL1         0.0958
       4    H3      20.843440   16.623900   21.280750 H          1 MOL1         0.0958
       5    C2      19.466199   18.307940   21.053223 C.3        1 MOL1        -0.1412
       6    H4      18.624925   17.769110   21.510907 H          1 MOL1         0.0947
       7    H5      19.373470   18.147893   19.969867 H          1 MOL1         0.0947
       8    C3      19.353274   19.827436   21.339964 C.3        1 MOL1        -0.1437
       9    H6      20.349111   20.291456   21.327493 H          1 MOL1         0.0947
      10    H7      18.800564   20.291838   20.511594 H          1 MOL1         0.0947
      11    C4      18.613813   20.188821   22.654056 C.3        1 MOL1        -0.1437
      12    H8      17.580788   19.817728   22.604875 H          1 MOL1         0.0947
      13    H9      18.542920   21.283427   22.717269 H          1 MOL1         0.0947
      14    C5      19.291872   19.650910   23.935258 C.3        1 MOL1        -0.1437
      15    H10     19.249841   18.556277   23.922084 H          1 MOL1         0.0947
      16    H11     20.349560   19.948020   23.942802 H          1 MOL1         0.0947
      17    C6      18.594924   20.172093   25.214299 C.3        1 MOL1        -0.1437
      18    H12     17.566085   19.788204   25.253665 H          1 MOL1         0.0947
      19    H13     18.511431   21.266027   25.153978 H          1 MOL1         0.0947
      20    C7      19.328703   19.818626   26.533200 C.3        1 MOL1        -0.1477
      21    H14     20.342196   20.241355   26.532193 H          1 MOL1         0.0947
      22    H15     18.796776   20.313539   27.356583 H          1 MOL1         0.0947
      23    C8      19.385065   18.310045   26.851311 C.3        1 MOL1         0.0145
      24    H16     18.432433   17.840059   26.592682 H          1 MOL1         0.0921
      25    H17     19.547682   18.178769   27.924530 H          1 MOL1         0.0921
      26    N1      20.499383   17.565548   26.142214 N.4        1 MOL1        -0.5969
      27    H18     21.421824   17.935494   26.394735 H          1 MOL1         0.3603
      28    H19     20.412328   17.633808   25.124591 H          1 MOL1         0.3603
      29    H20     20.501494   16.567817   26.381768 H          1 MOL1         0.3603
@<TRIPOS>BOND
    1     1     2    1
    2     1     3    1
    3     1     4    1
    4     1     5    1
    5     5     6    1
    6     5     7    1
    7     5     8    1
    8     8     9    1
    9     8    10    1
   10     8    11    1
   11    11    12    1
   12    11    13    1
   13    11    14    1
   14    14    15    1
   15    14    16    1
   16    14    17    1
   17    17    18    1
   18    17    19    1
   19    17    20    1
   20    20    21    1
   21    20    22    1
   22    20    23    1
   23    23    24    1
   24    23    25    1
   25    23    26    1
   26    26    27    1
   27    26    28    1
   28    26    29    1
@<TRIPOS>SUBSTRUCTURE
       1 MOL1            1 RESIDUE      1      MOL     
@<SCITEGIC>MOL_PROPERTY
VM2 Rank
SciTegic.value.IntegerValue
448

@<SCITEGIC>MOL_PROPERTY
Conf_Id
SciTegic.value.IntegerValue
294

@<SCITEGIC>MOL_PROPERTY
Probability
SciTegic.value.DoubleValue
0.00

@<SCITEGIC>MOL_PROPERTY
Sum Probability
SciTegic.value.DoubleValue
100.00

@<SCITEGIC>MOL_PROPERTY
Delta G
SciTegic.value.DoubleValue
6.997

@<SCITEGIC>MOL_PROPERTY
G
SciTegic.value.DoubleValue
65.145

@<SCITEGIC>MOL_PROPERTY
E
SciTegic.value.DoubleValue
27.503

@<SCITEGIC>MOL_PROPERTY
-TS
SciTegic.value.DoubleValue
37.642

@<SCITEGIC>MOL_PROPERTY
U+W
SciTegic.value.DoubleValue
3.358

@<SCITEGIC>MOL_PROPERTY
U
SciTegic.value.DoubleValue
55.356

@<SCITEGIC>MOL_PROPERTY
W
SciTegic.value.DoubleValue
-51.998

@<SCITEGIC>MOL_PROPERTY
W(PB)
SciTegic.value.DoubleValue
-54.383

@<SCITEGIC>MOL_PROPERTY
W(SA)
SciTegic.value.DoubleValue
2.386

@<SCITEGIC>MOL_PROPERTY
Valence
SciTegic.value.DoubleValue
7.162

@<SCITEGIC>MOL_PROPERTY
Coulomb
SciTegic.value.DoubleValue
47.545

@<SCITEGIC>MOL_PROPERTY
VdW
SciTegic.value.DoubleValue
0.649

@<SCITEGIC>MOL_PROPERTY
VdW6
SciTegic.value.DoubleValue
-10.233

@<SCITEGIC>MOL_PROPERTY
VdW12
SciTegic.value.DoubleValue
10.882

@<SCITEGIC>MOL_PROPERTY
Bond
SciTegic.value.DoubleValue
0.291

@<SCITEGIC>MOL_PROPERTY
Angle
SciTegic.value.DoubleValue
1.731

@<SCITEGIC>MOL_PROPERTY
Pdih
SciTegic.value.DoubleValue
5.140

@<SCITEGIC>MOL_PROPERTY
Idih
SciTegic.value.DoubleValue
0.000

@<SCITEGIC>MOL_PROPERTY
Tether
SciTegic.value.DoubleValue
0.000

@<TRIPOS>MOLECULE
guest-3_vm2.mol2 : vm2 ligand conformer 449
          29          28           1
SMALL
USER_CHARGES
 
@<TRIPOS>ATOM
       1    C1      19.727031   18.162274   20.455838 C.3        1 MOL1        -0.2427
       2    H1      20.451101   17.764700   21.175276 H          1 MOL1         0.0958
       3    H2      19.296820   17.310882   19.912772 H          1 MOL1         0.0958
       4    H3      20.274589   18.777563   19.730152 H          1 MOL1         0.0958
       5    C2      18.611944   18.982970   21.144638 C.3        1 MOL1        -0.1412
       6    H4      18.028553   18.342312   21.820486 H          1 MOL1         0.0947
       7    H5      17.911382   19.319789   20.367720 H          1 MOL1         0.0947
       8    C3      19.141162   20.226808   21.904089 C.3        1 MOL1        -0.1437
       9    H6      20.053284   20.606825   21.423736 H          1 MOL1         0.0947
      10    H7      18.397822   21.029683   21.803077 H          1 MOL1         0.0947
      11    C4      19.385981   20.007391   23.419242 C.3        1 MOL1        -0.1437
      12    H8      18.436925   19.728043   23.889726 H          1 MOL1         0.0947
      13    H9      19.677435   20.970841   23.858837 H          1 MOL1         0.0947
      14    C5      20.478396   18.956132   23.737934 C.3        1 MOL1        -0.1437
      15    H10     20.145724   17.955336   23.434087 H          1 MOL1         0.0947
      16    H11     21.362430   19.188287   23.128234 H          1 MOL1         0.0947
      17    C6      20.916623   18.925262   25.225788 C.3        1 MOL1        -0.1437
      18    H12     20.966838   19.943978   25.632408 H          1 MOL1         0.0947
      19    H13     21.947943   18.547834   25.261774 H          1 MOL1         0.0947
      20    C7      20.062410   18.009686   26.143026 C.3        1 MOL1        -0.1477
      21    H14     20.086286   16.983579   25.752855 H          1 MOL1         0.0947
      22    H15     20.531584   17.965770   27.134863 H          1 MOL1         0.0947
      23    C8      18.592429   18.436959   26.315728 C.3        1 MOL1         0.0145
      24    H16     18.091092   17.739352   26.992073 H          1 MOL1         0.0921
      25    H17     18.078771   18.396622   25.352995 H          1 MOL1         0.0921
      26    N1      18.428022   19.830518   26.888716 N.4        1 MOL1        -0.5969
      27    H18     18.861372   19.912847   27.814262 H          1 MOL1         0.3603
      28    H19     17.440043   20.085128   26.995666 H          1 MOL1         0.3603
      29    H20     18.861517   20.536927   26.286389 H          1 MOL1         0.3603
@<TRIPOS>BOND
    1     1     2    1
    2     1     3    1
    3     1     4    1
    4     1     5    1
    5     5     6    1
    6     5     7    1
    7     5     8    1
    8     8     9    1
    9     8    10    1
   10     8    11    1
   11    11    12    1
   12    11    13    1
   13    11    14    1
   14    14    15    1
   15    14    16    1
   16    14    17    1
   17    17    18    1
   18    17    19    1
   19    17    20    1
   20    20    21    1
   21    20    22    1
   22    20    23    1
   23    23    24    1
   24    23    25    1
   25    23    26    1
   26    26    27    1
   27    26    28    1
   28    26    29    1
@<TRIPOS>SUBSTRUCTURE
       1 MOL1            1 RESIDUE      1      MOL     
@<SCITEGIC>MOL_PROPERTY
VM2 Rank
SciTegic.value.IntegerValue
449

@<SCITEGIC>MOL_PROPERTY
Conf_Id
SciTegic.value.IntegerValue
1984

@<SCITEGIC>MOL_PROPERTY
Probability
SciTegic.value.DoubleValue
0.00

@<SCITEGIC>MOL_PROPERTY
Sum Probability
SciTegic.value.DoubleValue
100.00

@<SCITEGIC>MOL_PROPERTY
Delta G
SciTegic.value.DoubleValue
7.017

@<SCITEGIC>MOL_PROPERTY
G
SciTegic.value.DoubleValue
65.165

@<SCITEGIC>MOL_PROPERTY
E
SciTegic.value.DoubleValue
27.190

@<SCITEGIC>MOL_PROPERTY
-TS
SciTegic.value.DoubleValue
37.975

@<SCITEGIC>MOL_PROPERTY
U+W
SciTegic.value.DoubleValue
3.045

@<SCITEGIC>MOL_PROPERTY
U
SciTegic.value.DoubleValue
55.537

@<SCITEGIC>MOL_PROPERTY
W
SciTegic.value.DoubleValue
-52.492

@<SCITEGIC>MOL_PROPERTY
W(PB)
SciTegic.value.DoubleValue
-54.890

@<SCITEGIC>MOL_PROPERTY
W(SA)
SciTegic.value.DoubleValue
2.399

@<SCITEGIC>MOL_PROPERTY
Valence
SciTegic.value.DoubleValue
8.236

@<SCITEGIC>MOL_PROPERTY
Coulomb
SciTegic.value.DoubleValue
46.626

@<SCITEGIC>MOL_PROPERTY
VdW
SciTegic.value.DoubleValue
0.674

@<SCITEGIC>MOL_PROPERTY
VdW6
SciTegic.value.DoubleValue
-11.047

@<SCITEGIC>MOL_PROPERTY
VdW12
SciTegic.value.DoubleValue
11.722

@<SCITEGIC>MOL_PROPERTY
Bond
SciTegic.value.DoubleValue
0.341

@<SCITEGIC>MOL_PROPERTY
Angle
SciTegic.value.DoubleValue
2.227

@<SCITEGIC>MOL_PROPERTY
Pdih
SciTegic.value.DoubleValue
5.668

@<SCITEGIC>MOL_PROPERTY
Idih
SciTegic.value.DoubleValue
0.000

@<SCITEGIC>MOL_PROPERTY
Tether
SciTegic.value.DoubleValue
0.000

@<TRIPOS>MOLECULE
guest-3_vm2.mol2 : vm2 ligand conformer 450
          29          28           1
SMALL
USER_CHARGES
 
@<TRIPOS>ATOM
       1    C1      19.144630   17.582831   20.899266 C.3        1 MOL1        -0.2427
       2    H1      18.896249   16.514238   20.935341 H          1 MOL1         0.0958
       3    H2      18.201014   18.138843   20.844318 H          1 MOL1         0.0958
       4    H3      19.703947   17.765044   19.972485 H          1 MOL1         0.0958
       5    C2      19.976107   17.986150   22.138452 C.3        1 MOL1        -0.1412
       6    H4      20.857823   17.332673   22.193530 H          1 MOL1         0.0947
       7    H5      19.394541   17.789396   23.046437 H          1 MOL1         0.0947
       8    C3      20.456999   19.459977   22.098307 C.3        1 MOL1        -0.1437
       9    H6      21.237449   19.620132   22.853855 H          1 MOL1         0.0947
      10    H7      20.951710   19.628800   21.131886 H          1 MOL1         0.0947
      11    C4      19.338847   20.522314   22.274482 C.3        1 MOL1        -0.1437
      12    H8      18.390998   20.166586   21.852225 H          1 MOL1         0.0947
      13    H9      19.614404   21.396956   21.669285 H          1 MOL1         0.0947
      14    C5      19.112195   21.025211   23.726018 C.3        1 MOL1        -0.1437
      15    H10     20.037097   21.467007   24.121587 H          1 MOL1         0.0947
      16    H11     18.392539   21.853916   23.673337 H          1 MOL1         0.0947
      17    C6      18.550434   19.974844   24.717578 C.3        1 MOL1        -0.1437
      18    H12     17.936029   19.239235   24.181301 H          1 MOL1         0.0947
      19    H13     17.868351   20.484024   25.412693 H          1 MOL1         0.0947
      20    C7      19.645522   19.272124   25.555008 C.3        1 MOL1        -0.1477
      21    H14     20.387162   18.798220   24.902808 H          1 MOL1         0.0947
      22    H15     20.183443   20.019087   26.153801 H          1 MOL1         0.0947
      23    C8      19.040202   18.210807   26.489913 C.3        1 MOL1         0.0145
      24    H16     18.515768   17.455420   25.898497 H          1 MOL1         0.0921
      25    H17     18.319619   18.681805   27.163976 H          1 MOL1         0.0921
      26    N1      20.079066   17.503742   27.335975 N.4        1 MOL1        -0.5969
      27    H18     20.773288   17.015896   26.760324 H          1 MOL1         0.3603
      28    H19     19.654499   16.801543   27.951874 H          1 MOL1         0.3603
      29    H20     20.590792   18.157912   27.937370 H          1 MOL1         0.3603
@<TRIPOS>BOND
    1     1     2    1
    2     1     3    1
    3     1     4    1
    4     1     5    1
    5     5     6    1
    6     5     7    1
    7     5     8    1
    8     8     9    1
    9     8    10    1
   10     8    11    1
   11    11    12    1
   12    11    13    1
   13    11    14    1
   14    14    15    1
   15    14    16    1
   16    14    17    1
   17    17    18    1
   18    17    19    1
   19    17    20    1
   20    20    21    1
   21    20    22    1
   22    20    23    1
   23    23    24    1
   24    23    25    1
   25    23    26    1
   26    26    27    1
   27    26    28    1
   28    26    29    1
@<TRIPOS>SUBSTRUCTURE
       1 MOL1            1 RESIDUE      1      MOL     
@<SCITEGIC>MOL_PROPERTY
VM2 Rank
SciTegic.value.IntegerValue
450

@<SCITEGIC>MOL_PROPERTY
Conf_Id
SciTegic.value.IntegerValue
993

@<SCITEGIC>MOL_PROPERTY
Probability
SciTegic.value.DoubleValue
0.00

@<SCITEGIC>MOL_PROPERTY
Sum Probability
SciTegic.value.DoubleValue
100.00

@<SCITEGIC>MOL_PROPERTY
Delta G
SciTegic.value.DoubleValue
7.035

@<SCITEGIC>MOL_PROPERTY
G
SciTegic.value.DoubleValue
65.183

@<SCITEGIC>MOL_PROPERTY
E
SciTegic.value.DoubleValue
27.073

@<SCITEGIC>MOL_PROPERTY
-TS
SciTegic.value.DoubleValue
38.110

@<SCITEGIC>MOL_PROPERTY
U+W
SciTegic.value.DoubleValue
2.929

@<SCITEGIC>MOL_PROPERTY
U
SciTegic.value.DoubleValue
55.529

@<SCITEGIC>MOL_PROPERTY
W
SciTegic.value.DoubleValue
-52.600

@<SCITEGIC>MOL_PROPERTY
W(PB)
SciTegic.value.DoubleValue
-55.024

@<SCITEGIC>MOL_PROPERTY
W(SA)
SciTegic.value.DoubleValue
2.424

@<SCITEGIC>MOL_PROPERTY
Valence
SciTegic.value.DoubleValue
8.892

@<SCITEGIC>MOL_PROPERTY
Coulomb
SciTegic.value.DoubleValue
46.031

@<SCITEGIC>MOL_PROPERTY
VdW
SciTegic.value.DoubleValue
0.606

@<SCITEGIC>MOL_PROPERTY
VdW6
SciTegic.value.DoubleValue
-10.527

@<SCITEGIC>MOL_PROPERTY
VdW12
SciTegic.value.DoubleValue
11.133

@<SCITEGIC>MOL_PROPERTY
Bond
SciTegic.value.DoubleValue
0.331

@<SCITEGIC>MOL_PROPERTY
Angle
SciTegic.value.DoubleValue
2.234

@<SCITEGIC>MOL_PROPERTY
Pdih
SciTegic.value.DoubleValue
6.326

@<SCITEGIC>MOL_PROPERTY
Idih
SciTegic.value.DoubleValue
0.000

@<SCITEGIC>MOL_PROPERTY
Tether
SciTegic.value.DoubleValue
0.000

@<TRIPOS>MOLECULE
guest-3_vm2.mol2 : vm2 ligand conformer 451
          29          28           1
SMALL
USER_CHARGES
 
@<TRIPOS>ATOM
       1    C1      20.197134   20.535895   20.965312 C.3        1 MOL1        -0.2427
       2    H1      19.115394   20.704302   20.901617 H          1 MOL1         0.0958
       3    H2      20.679688   21.518395   21.047289 H          1 MOL1         0.0958
       4    H3      20.528437   20.078083   20.024245 H          1 MOL1         0.0958
       5    C2      20.568745   19.649032   22.175677 C.3        1 MOL1        -0.1412
       6    H4      20.229714   20.132938   23.098856 H          1 MOL1         0.0947
       7    H5      21.664138   19.595115   22.244209 H          1 MOL1         0.0947
       8    C3      20.010135   18.206158   22.070315 C.3        1 MOL1        -0.1437
       9    H6      20.300326   17.801097   21.091069 H          1 MOL1         0.0947
      10    H7      20.502804   17.558877   22.807819 H          1 MOL1         0.0947
      11    C4      18.469831   18.084022   22.219994 C.3        1 MOL1        -0.1437
      12    H8      18.138911   17.257041   21.576731 H          1 MOL1         0.0947
      13    H9      17.966411   18.975260   21.825628 H          1 MOL1         0.0947
      14    C5      17.955794   17.780590   23.653495 C.3        1 MOL1        -0.1437
      15    H10     16.875132   17.596404   23.578153 H          1 MOL1         0.0947
      16    H11     18.387395   16.838318   24.018116 H          1 MOL1         0.0947
      17    C6      18.170620   18.909167   24.693785 C.3        1 MOL1        -0.1437
      18    H12     17.310519   18.918760   25.377757 H          1 MOL1         0.0947
      19    H13     18.167215   19.888074   24.195853 H          1 MOL1         0.0947
      20    C7      19.451413   18.727471   25.542833 C.3        1 MOL1        -0.1477
      21    H14     19.387488   17.785674   26.103903 H          1 MOL1         0.0947
      22    H15     20.334754   18.651187   24.899508 H          1 MOL1         0.0947
      23    C8      19.640203   19.894356   26.527512 C.3        1 MOL1         0.0145
      24    H16     18.774743   19.958646   27.192557 H          1 MOL1         0.0921
      25    H17     19.719702   20.833865   25.973963 H          1 MOL1         0.0921
      26    N1      20.880125   19.751309   27.386077 N.4        1 MOL1        -0.5969
      27    H18     20.986413   20.538674   28.035257 H          1 MOL1         0.3603
      28    H19     21.734432   19.712828   26.820400 H          1 MOL1         0.3603
      29    H20     20.854624   18.897764   27.953780 H          1 MOL1         0.3603
@<TRIPOS>BOND
    1     1     2    1
    2     1     3    1
    3     1     4    1
    4     1     5    1
    5     5     6    1
    6     5     7    1
    7     5     8    1
    8     8     9    1
    9     8    10    1
   10     8    11    1
   11    11    12    1
   12    11    13    1
   13    11    14    1
   14    14    15    1
   15    14    16    1
   16    14    17    1
   17    17    18    1
   18    17    19    1
   19    17    20    1
   20    20    21    1
   21    20    22    1
   22    20    23    1
   23    23    24    1
   24    23    25    1
   25    23    26    1
   26    26    27    1
   27    26    28    1
   28    26    29    1
@<TRIPOS>SUBSTRUCTURE
       1 MOL1            1 RESIDUE      1      MOL     
@<SCITEGIC>MOL_PROPERTY
VM2 Rank
SciTegic.value.IntegerValue
451

@<SCITEGIC>MOL_PROPERTY
Conf_Id
SciTegic.value.IntegerValue
1331

@<SCITEGIC>MOL_PROPERTY
Probability
SciTegic.value.DoubleValue
0.00

@<SCITEGIC>MOL_PROPERTY
Sum Probability
SciTegic.value.DoubleValue
100.00

@<SCITEGIC>MOL_PROPERTY
Delta G
SciTegic.value.DoubleValue
7.057

@<SCITEGIC>MOL_PROPERTY
G
SciTegic.value.DoubleValue
65.205

@<SCITEGIC>MOL_PROPERTY
E
SciTegic.value.DoubleValue
27.095

@<SCITEGIC>MOL_PROPERTY
-TS
SciTegic.value.DoubleValue
38.110

@<SCITEGIC>MOL_PROPERTY
U+W
SciTegic.value.DoubleValue
2.950

@<SCITEGIC>MOL_PROPERTY
U
SciTegic.value.DoubleValue
55.529

@<SCITEGIC>MOL_PROPERTY
W
SciTegic.value.DoubleValue
-52.578

@<SCITEGIC>MOL_PROPERTY
W(PB)
SciTegic.value.DoubleValue
-54.980

@<SCITEGIC>MOL_PROPERTY
W(SA)
SciTegic.value.DoubleValue
2.402

@<SCITEGIC>MOL_PROPERTY
Valence
SciTegic.value.DoubleValue
8.891

@<SCITEGIC>MOL_PROPERTY
Coulomb
SciTegic.value.DoubleValue
46.031

@<SCITEGIC>MOL_PROPERTY
VdW
SciTegic.value.DoubleValue
0.606

@<SCITEGIC>MOL_PROPERTY
VdW6
SciTegic.value.DoubleValue
-10.528

@<SCITEGIC>MOL_PROPERTY
VdW12
SciTegic.value.DoubleValue
11.134

@<SCITEGIC>MOL_PROPERTY
Bond
SciTegic.value.DoubleValue
0.331

@<SCITEGIC>MOL_PROPERTY
Angle
SciTegic.value.DoubleValue
2.234

@<SCITEGIC>MOL_PROPERTY
Pdih
SciTegic.value.DoubleValue
6.326

@<SCITEGIC>MOL_PROPERTY
Idih
SciTegic.value.DoubleValue
0.000

@<SCITEGIC>MOL_PROPERTY
Tether
SciTegic.value.DoubleValue
0.000

@<TRIPOS>MOLECULE
guest-3_vm2.mol2 : vm2 ligand conformer 452
          29          28           1
SMALL
USER_CHARGES
 
@<TRIPOS>ATOM
       1    C1      21.147152   18.704844   21.207769 C.3        1 MOL1        -0.2427
       2    H1      21.911169   18.615415   20.424753 H          1 MOL1         0.0958
       3    H2      21.480717   19.483902   21.904247 H          1 MOL1         0.0958
       4    H3      21.104163   17.749341   21.746351 H          1 MOL1         0.0958
       5    C2      19.777225   19.056258   20.587649 C.3        1 MOL1        -0.1412
       6    H4      19.558011   18.336581   19.786583 H          1 MOL1         0.0947
       7    H5      19.837118   20.041213   20.103966 H          1 MOL1         0.0947
       8    C3      18.601335   19.042539   21.597146 C.3        1 MOL1        -0.1437
       9    H6      17.680024   19.247774   21.034807 H          1 MOL1         0.0947
      10    H7      18.478474   18.032223   22.006907 H          1 MOL1         0.0947
      11    C4      18.716891   20.094112   22.734394 C.3        1 MOL1        -0.1437
      12    H8      17.716693   20.489439   22.959324 H          1 MOL1         0.0947
      13    H9      19.298119   20.954572   22.375528 H          1 MOL1         0.0947
      14    C5      19.340291   19.561193   24.050349 C.3        1 MOL1        -0.1437
      15    H10     20.269562   19.018663   23.839350 H          1 MOL1         0.0947
      16    H11     19.610554   20.428059   24.665590 H          1 MOL1         0.0947
      17    C6      18.374253   18.655816   24.855550 C.3        1 MOL1        -0.1437
      18    H12     17.970930   17.872827   24.201165 H          1 MOL1         0.0947
      19    H13     17.510243   19.248482   25.186384 H          1 MOL1         0.0947
      20    C7      19.021238   17.962528   26.081783 C.3        1 MOL1        -0.1477
      21    H14     18.271032   17.293836   26.524359 H          1 MOL1         0.0947
      22    H15     19.849588   17.316305   25.762245 H          1 MOL1         0.0947
      23    C8      19.499281   18.927658   27.186311 C.3        1 MOL1         0.0145
      24    H16     19.562307   18.382847   28.132182 H          1 MOL1         0.0921
      25    H17     18.776383   19.738551   27.309350 H          1 MOL1         0.0921
      26    N1      20.866334   19.533052   26.934048 N.4        1 MOL1        -0.5969
      27    H18     21.145250   20.169483   27.688915 H          1 MOL1         0.3603
      28    H19     20.888837   20.068922   26.061854 H          1 MOL1         0.3603
      29    H20     21.592923   18.812768   26.866505 H          1 MOL1         0.3603
@<TRIPOS>BOND
    1     1     2    1
    2     1     3    1
    3     1     4    1
    4     1     5    1
    5     5     6    1
    6     5     7    1
    7     5     8    1
    8     8     9    1
    9     8    10    1
   10     8    11    1
   11    11    12    1
   12    11    13    1
   13    11    14    1
   14    14    15    1
   15    14    16    1
   16    14    17    1
   17    17    18    1
   18    17    19    1
   19    17    20    1
   20    20    21    1
   21    20    22    1
   22    20    23    1
   23    23    24    1
   24    23    25    1
   25    23    26    1
   26    26    27    1
   27    26    28    1
   28    26    29    1
@<TRIPOS>SUBSTRUCTURE
       1 MOL1            1 RESIDUE      1      MOL     
@<SCITEGIC>MOL_PROPERTY
VM2 Rank
SciTegic.value.IntegerValue
452

@<SCITEGIC>MOL_PROPERTY
Conf_Id
SciTegic.value.IntegerValue
2614

@<SCITEGIC>MOL_PROPERTY
Probability
SciTegic.value.DoubleValue
0.00

@<SCITEGIC>MOL_PROPERTY
Sum Probability
SciTegic.value.DoubleValue
100.00

@<SCITEGIC>MOL_PROPERTY
Delta G
SciTegic.value.DoubleValue
7.105

@<SCITEGIC>MOL_PROPERTY
G
SciTegic.value.DoubleValue
65.253

@<SCITEGIC>MOL_PROPERTY
E
SciTegic.value.DoubleValue
27.409

@<SCITEGIC>MOL_PROPERTY
-TS
SciTegic.value.DoubleValue
37.844

@<SCITEGIC>MOL_PROPERTY
U+W
SciTegic.value.DoubleValue
3.265

@<SCITEGIC>MOL_PROPERTY
U
SciTegic.value.DoubleValue
55.673

@<SCITEGIC>MOL_PROPERTY
W
SciTegic.value.DoubleValue
-52.409

@<SCITEGIC>MOL_PROPERTY
W(PB)
SciTegic.value.DoubleValue
-54.827

@<SCITEGIC>MOL_PROPERTY
W(SA)
SciTegic.value.DoubleValue
2.418

@<SCITEGIC>MOL_PROPERTY
Valence
SciTegic.value.DoubleValue
7.999

@<SCITEGIC>MOL_PROPERTY
Coulomb
SciTegic.value.DoubleValue
46.770

@<SCITEGIC>MOL_PROPERTY
VdW
SciTegic.value.DoubleValue
0.905

@<SCITEGIC>MOL_PROPERTY
VdW6
SciTegic.value.DoubleValue
-10.579

@<SCITEGIC>MOL_PROPERTY
VdW12
SciTegic.value.DoubleValue
11.484

@<SCITEGIC>MOL_PROPERTY
Bond
SciTegic.value.DoubleValue
0.338

@<SCITEGIC>MOL_PROPERTY
Angle
SciTegic.value.DoubleValue
1.894

@<SCITEGIC>MOL_PROPERTY
Pdih
SciTegic.value.DoubleValue
5.767

@<SCITEGIC>MOL_PROPERTY
Idih
SciTegic.value.DoubleValue
0.000

@<SCITEGIC>MOL_PROPERTY
Tether
SciTegic.value.DoubleValue
0.000

@<TRIPOS>MOLECULE
guest-3_vm2.mol2 : vm2 ligand conformer 453
          29          28           1
SMALL
USER_CHARGES
 
@<TRIPOS>ATOM
       1    C1      21.067740   19.497221   21.407713 C.3        1 MOL1        -0.2427
       2    H1      21.782167   19.523804   20.574820 H          1 MOL1         0.0958
       3    H2      20.476815   20.420468   21.363341 H          1 MOL1         0.0958
       4    H3      21.642431   19.494377   22.342822 H          1 MOL1         0.0958
       5    C2      20.165569   18.248114   21.305056 C.3        1 MOL1        -0.1412
       6    H4      20.804903   17.359064   21.212794 H          1 MOL1         0.0947
       7    H5      19.577686   18.297442   20.377908 H          1 MOL1         0.0947
       8    C3      19.215624   18.048657   22.513338 C.3        1 MOL1        -0.1437
       9    H6      18.682245   17.100222   22.361579 H          1 MOL1         0.0947
      10    H7      19.804973   17.913530   23.426952 H          1 MOL1         0.0947
      11    C4      18.158234   19.171470   22.693789 C.3        1 MOL1        -0.1437
      12    H8      17.225814   18.732227   23.073951 H          1 MOL1         0.0947
      13    H9      17.902853   19.578323   21.705722 H          1 MOL1         0.0947
      14    C5      18.585040   20.334692   23.630768 C.3        1 MOL1        -0.1437
      15    H10     19.667319   20.502471   23.583539 H          1 MOL1         0.0947
      16    H11     18.128713   21.258459   23.249343 H          1 MOL1         0.0947
      17    C6      18.131214   20.169134   25.106009 C.3        1 MOL1        -0.1437
      18    H12     17.038120   20.062312   25.135623 H          1 MOL1         0.0947
      19    H13     18.355109   21.097817   25.649016 H          1 MOL1         0.0947
      20    C7      18.773346   18.984504   25.866449 C.3        1 MOL1        -0.1477
      21    H14     18.345379   18.939684   26.876684 H          1 MOL1         0.0947
      22    H15     18.509132   18.037615   25.379275 H          1 MOL1         0.0947
      23    C8      20.303786   19.116150   25.979308 C.3        1 MOL1         0.0145
      24    H16     20.555044   20.043768   26.500571 H          1 MOL1         0.0921
      25    H17     20.747791   19.152364   24.981353 H          1 MOL1         0.0921
      26    N1      20.943447   17.968059   26.732570 N.4        1 MOL1        -0.5969
      27    H18     21.961721   18.075226   26.797112 H          1 MOL1         0.3603
      28    H19     20.765145   17.066172   26.278841 H          1 MOL1         0.3603
      29    H20     20.589504   17.898346   27.692408 H          1 MOL1         0.3603
@<TRIPOS>BOND
    1     1     2    1
    2     1     3    1
    3     1     4    1
    4     1     5    1
    5     5     6    1
    6     5     7    1
    7     5     8    1
    8     8     9    1
    9     8    10    1
   10     8    11    1
   11    11    12    1
   12    11    13    1
   13    11    14    1
   14    14    15    1
   15    14    16    1
   16    14    17    1
   17    17    18    1
   18    17    19    1
   19    17    20    1
   20    20    21    1
   21    20    22    1
   22    20    23    1
   23    23    24    1
   24    23    25    1
   25    23    26    1
   26    26    27    1
   27    26    28    1
   28    26    29    1
@<TRIPOS>SUBSTRUCTURE
       1 MOL1            1 RESIDUE      1      MOL     
@<SCITEGIC>MOL_PROPERTY
VM2 Rank
SciTegic.value.IntegerValue
453

@<SCITEGIC>MOL_PROPERTY
Conf_Id
SciTegic.value.IntegerValue
2575

@<SCITEGIC>MOL_PROPERTY
Probability
SciTegic.value.DoubleValue
0.00

@<SCITEGIC>MOL_PROPERTY
Sum Probability
SciTegic.value.DoubleValue
100.00

@<SCITEGIC>MOL_PROPERTY
Delta G
SciTegic.value.DoubleValue
7.130

@<SCITEGIC>MOL_PROPERTY
G
SciTegic.value.DoubleValue
65.278

@<SCITEGIC>MOL_PROPERTY
E
SciTegic.value.DoubleValue
26.851

@<SCITEGIC>MOL_PROPERTY
-TS
SciTegic.value.DoubleValue
38.427

@<SCITEGIC>MOL_PROPERTY
U+W
SciTegic.value.DoubleValue
2.706

@<SCITEGIC>MOL_PROPERTY
U
SciTegic.value.DoubleValue
55.584

@<SCITEGIC>MOL_PROPERTY
W
SciTegic.value.DoubleValue
-52.878

@<SCITEGIC>MOL_PROPERTY
W(PB)
SciTegic.value.DoubleValue
-55.246

@<SCITEGIC>MOL_PROPERTY
W(SA)
SciTegic.value.DoubleValue
2.368

@<SCITEGIC>MOL_PROPERTY
Valence
SciTegic.value.DoubleValue
8.543

@<SCITEGIC>MOL_PROPERTY
Coulomb
SciTegic.value.DoubleValue
46.640

@<SCITEGIC>MOL_PROPERTY
VdW
SciTegic.value.DoubleValue
0.401

@<SCITEGIC>MOL_PROPERTY
VdW6
SciTegic.value.DoubleValue
-11.498

@<SCITEGIC>MOL_PROPERTY
VdW12
SciTegic.value.DoubleValue
11.899

@<SCITEGIC>MOL_PROPERTY
Bond
SciTegic.value.DoubleValue
0.349

@<SCITEGIC>MOL_PROPERTY
Angle
SciTegic.value.DoubleValue
2.078

@<SCITEGIC>MOL_PROPERTY
Pdih
SciTegic.value.DoubleValue
6.116

@<SCITEGIC>MOL_PROPERTY
Idih
SciTegic.value.DoubleValue
0.000

@<SCITEGIC>MOL_PROPERTY
Tether
SciTegic.value.DoubleValue
0.000

@<TRIPOS>MOLECULE
guest-3_vm2.mol2 : vm2 ligand conformer 454
          29          28           1
SMALL
USER_CHARGES
 
@<TRIPOS>ATOM
       1    C1      20.919598   17.476035   21.618737 C.3        1 MOL1        -0.2427
       2    H1      20.905719   16.385424   21.742560 H          1 MOL1         0.0958
       3    H2      21.093547   17.692353   20.556588 H          1 MOL1         0.0958
       4    H3      21.769366   17.869903   22.191336 H          1 MOL1         0.0958
       5    C2      19.591343   18.096372   22.100146 C.3        1 MOL1        -0.1412
       6    H4      19.427596   17.826924   23.149254 H          1 MOL1         0.0947
       7    H5      18.758739   17.656075   21.533943 H          1 MOL1         0.0947
       8    C3      19.580441   19.633520   21.921288 C.3        1 MOL1        -0.1437
       9    H6      20.466463   20.088527   22.383292 H          1 MOL1         0.0947
      10    H7      19.660968   19.848732   20.846784 H          1 MOL1         0.0947
      11    C4      18.292504   20.306307   22.460449 C.3        1 MOL1        -0.1437
      12    H8      17.440815   19.617022   22.379248 H          1 MOL1         0.0947
      13    H9      18.051148   21.147507   21.795988 H          1 MOL1         0.0947
      14    C5      18.383889   20.873379   23.903441 C.3        1 MOL1        -0.1437
      15    H10     19.175994   21.632581   23.960080 H          1 MOL1         0.0947
      16    H11     17.447519   21.414292   24.098501 H          1 MOL1         0.0947
      17    C6      18.565091   19.823443   25.029660 C.3        1 MOL1        -0.1437
      18    H12     18.071490   18.884949   24.747432 H          1 MOL1         0.0947
      19    H13     18.036064   20.182760   25.923313 H          1 MOL1         0.0947
      20    C7      20.046549   19.586048   25.419763 C.3        1 MOL1        -0.1477
      21    H14     20.632666   19.245318   24.559513 H          1 MOL1         0.0947
      22    H15     20.491325   20.538798   25.736145 H          1 MOL1         0.0947
      23    C8      20.200885   18.574477   26.571206 C.3        1 MOL1         0.0145
      24    H16     19.611744   18.903105   27.431592 H          1 MOL1         0.0921
      25    H17     21.250357   18.527148   26.874297 H          1 MOL1         0.0921
      26    N1      19.763700   17.168419   26.210310 N.4        1 MOL1        -0.5969
      27    H18     20.303461   16.792523   25.424024 H          1 MOL1         0.3603
      28    H19     18.774041   17.135650   25.946609 H          1 MOL1         0.3603
      29    H20     19.886673   16.520124   26.995979 H          1 MOL1         0.3603
@<TRIPOS>BOND
    1     1     2    1
    2     1     3    1
    3     1     4    1
    4     1     5    1
    5     5     6    1
    6     5     7    1
    7     5     8    1
    8     8     9    1
    9     8    10    1
   10     8    11    1
   11    11    12    1
   12    11    13    1
   13    11    14    1
   14    14    15    1
   15    14    16    1
   16    14    17    1
   17    17    18    1
   18    17    19    1
   19    17    20    1
   20    20    21    1
   21    20    22    1
   22    20    23    1
   23    23    24    1
   24    23    25    1
   25    23    26    1
   26    26    27    1
   27    26    28    1
   28    26    29    1
@<TRIPOS>SUBSTRUCTURE
       1 MOL1            1 RESIDUE      1      MOL     
@<SCITEGIC>MOL_PROPERTY
VM2 Rank
SciTegic.value.IntegerValue
454

@<SCITEGIC>MOL_PROPERTY
Conf_Id
SciTegic.value.IntegerValue
1605

@<SCITEGIC>MOL_PROPERTY
Probability
SciTegic.value.DoubleValue
0.00

@<SCITEGIC>MOL_PROPERTY
Sum Probability
SciTegic.value.DoubleValue
100.00

@<SCITEGIC>MOL_PROPERTY
Delta G
SciTegic.value.DoubleValue
7.163

@<SCITEGIC>MOL_PROPERTY
G
SciTegic.value.DoubleValue
65.311

@<SCITEGIC>MOL_PROPERTY
E
SciTegic.value.DoubleValue
26.981

@<SCITEGIC>MOL_PROPERTY
-TS
SciTegic.value.DoubleValue
38.329

@<SCITEGIC>MOL_PROPERTY
U+W
SciTegic.value.DoubleValue
2.837

@<SCITEGIC>MOL_PROPERTY
U
SciTegic.value.DoubleValue
55.689

@<SCITEGIC>MOL_PROPERTY
W
SciTegic.value.DoubleValue
-52.852

@<SCITEGIC>MOL_PROPERTY
W(PB)
SciTegic.value.DoubleValue
-55.193

@<SCITEGIC>MOL_PROPERTY
W(SA)
SciTegic.value.DoubleValue
2.341

@<SCITEGIC>MOL_PROPERTY
Valence
SciTegic.value.DoubleValue
8.281

@<SCITEGIC>MOL_PROPERTY
Coulomb
SciTegic.value.DoubleValue
47.124

@<SCITEGIC>MOL_PROPERTY
VdW
SciTegic.value.DoubleValue
0.284

@<SCITEGIC>MOL_PROPERTY
VdW6
SciTegic.value.DoubleValue
-11.007

@<SCITEGIC>MOL_PROPERTY
VdW12
SciTegic.value.DoubleValue
11.291

@<SCITEGIC>MOL_PROPERTY
Bond
SciTegic.value.DoubleValue
0.312

@<SCITEGIC>MOL_PROPERTY
Angle
SciTegic.value.DoubleValue
2.003

@<SCITEGIC>MOL_PROPERTY
Pdih
SciTegic.value.DoubleValue
5.965

@<SCITEGIC>MOL_PROPERTY
Idih
SciTegic.value.DoubleValue
0.000

@<SCITEGIC>MOL_PROPERTY
Tether
SciTegic.value.DoubleValue
0.000

@<TRIPOS>MOLECULE
guest-3_vm2.mol2 : vm2 ligand conformer 455
          29          28           1
SMALL
USER_CHARGES
 
@<TRIPOS>ATOM
       1    C1      21.259411   19.386964   20.876250 C.3        1 MOL1        -0.2427
       2    H1      21.224477   18.649593   20.063676 H          1 MOL1         0.0958
       3    H2      21.655025   20.324322   20.464134 H          1 MOL1         0.0958
       4    H3      21.966834   19.026928   21.634552 H          1 MOL1         0.0958
       5    C2      19.858764   19.607728   21.485076 C.3        1 MOL1        -0.1412
       6    H4      19.184974   20.000995   20.711089 H          1 MOL1         0.0947
       7    H5      19.918822   20.379053   22.262257 H          1 MOL1         0.0947
       8    C3      19.272848   18.295828   22.059971 C.3        1 MOL1        -0.1437
       9    H6      19.149236   17.587565   21.229047 H          1 MOL1         0.0947
      10    H7      19.979466   17.821094   22.753423 H          1 MOL1         0.0947
      11    C4      17.898202   18.491387   22.747773 C.3        1 MOL1        -0.1437
      12    H8      17.275585   17.618251   22.508263 H          1 MOL1         0.0947
      13    H9      17.372776   19.352131   22.311695 H          1 MOL1         0.0947
      14    C5      17.935945   18.618933   24.294600 C.3        1 MOL1        -0.1437
      15    H10     16.893045   18.644431   24.639581 H          1 MOL1         0.0947
      16    H11     18.360783   17.707264   24.732915 H          1 MOL1         0.0947
      17    C6      18.643256   19.884994   24.850019 C.3        1 MOL1        -0.1437
      18    H12     18.136956   20.186863   25.776437 H          1 MOL1         0.0947
      19    H13     18.493253   20.723784   24.157383 H          1 MOL1         0.0947
      20    C7      20.157283   19.719252   25.154871 C.3        1 MOL1        -0.1477
      21    H14     20.707624   19.482592   24.238376 H          1 MOL1         0.0947
      22    H15     20.557284   20.680340   25.503966 H          1 MOL1         0.0947
      23    C8      20.476916   18.637870   26.207359 C.3        1 MOL1         0.0145
      24    H16     21.559083   18.585180   26.354300 H          1 MOL1         0.0921
      25    H17     20.136485   17.661762   25.853406 H          1 MOL1         0.0921
      26    N1      19.841375   18.895044   27.559083 N.4        1 MOL1        -0.5969
      27    H18     20.144878   19.789417   27.957883 H          1 MOL1         0.3603
      28    H19     20.082137   18.165374   28.238756 H          1 MOL1         0.3603
      29    H20     18.818919   18.922245   27.494948 H          1 MOL1         0.3603
@<TRIPOS>BOND
    1     1     2    1
    2     1     3    1
    3     1     4    1
    4     1     5    1
    5     5     6    1
    6     5     7    1
    7     5     8    1
    8     8     9    1
    9     8    10    1
   10     8    11    1
   11    11    12    1
   12    11    13    1
   13    11    14    1
   14    14    15    1
   15    14    16    1
   16    14    17    1
   17    17    18    1
   18    17    19    1
   19    17    20    1
   20    20    21    1
   21    20    22    1
   22    20    23    1
   23    23    24    1
   24    23    25    1
   25    23    26    1
   26    26    27    1
   27    26    28    1
   28    26    29    1
@<TRIPOS>SUBSTRUCTURE
       1 MOL1            1 RESIDUE      1      MOL     
@<SCITEGIC>MOL_PROPERTY
VM2 Rank
SciTegic.value.IntegerValue
455

@<SCITEGIC>MOL_PROPERTY
Conf_Id
SciTegic.value.IntegerValue
1327

@<SCITEGIC>MOL_PROPERTY
Probability
SciTegic.value.DoubleValue
0.00

@<SCITEGIC>MOL_PROPERTY
Sum Probability
SciTegic.value.DoubleValue
100.00

@<SCITEGIC>MOL_PROPERTY
Delta G
SciTegic.value.DoubleValue
7.197

@<SCITEGIC>MOL_PROPERTY
G
SciTegic.value.DoubleValue
65.345

@<SCITEGIC>MOL_PROPERTY
E
SciTegic.value.DoubleValue
27.083

@<SCITEGIC>MOL_PROPERTY
-TS
SciTegic.value.DoubleValue
38.261

@<SCITEGIC>MOL_PROPERTY
U+W
SciTegic.value.DoubleValue
2.939

@<SCITEGIC>MOL_PROPERTY
U
SciTegic.value.DoubleValue
55.320

@<SCITEGIC>MOL_PROPERTY
W
SciTegic.value.DoubleValue
-52.381

@<SCITEGIC>MOL_PROPERTY
W(PB)
SciTegic.value.DoubleValue
-54.749

@<SCITEGIC>MOL_PROPERTY
W(SA)
SciTegic.value.DoubleValue
2.368

@<SCITEGIC>MOL_PROPERTY
Valence
SciTegic.value.DoubleValue
8.750

@<SCITEGIC>MOL_PROPERTY
Coulomb
SciTegic.value.DoubleValue
45.964

@<SCITEGIC>MOL_PROPERTY
VdW
SciTegic.value.DoubleValue
0.605

@<SCITEGIC>MOL_PROPERTY
VdW6
SciTegic.value.DoubleValue
-11.305

@<SCITEGIC>MOL_PROPERTY
VdW12
SciTegic.value.DoubleValue
11.911

@<SCITEGIC>MOL_PROPERTY
Bond
SciTegic.value.DoubleValue
0.354

@<SCITEGIC>MOL_PROPERTY
Angle
SciTegic.value.DoubleValue
2.319

@<SCITEGIC>MOL_PROPERTY
Pdih
SciTegic.value.DoubleValue
6.077

@<SCITEGIC>MOL_PROPERTY
Idih
SciTegic.value.DoubleValue
0.000

@<SCITEGIC>MOL_PROPERTY
Tether
SciTegic.value.DoubleValue
0.000

@<TRIPOS>MOLECULE
guest-3_vm2.mol2 : vm2 ligand conformer 456
          29          28           1
SMALL
USER_CHARGES
 
@<TRIPOS>ATOM
       1    C1      21.629502   19.467959   21.663361 C.3        1 MOL1        -0.2427
       2    H1      21.642588   19.232488   20.591170 H          1 MOL1         0.0958
       3    H2      22.306388   20.315836   21.830360 H          1 MOL1         0.0958
       4    H3      22.030768   18.603421   22.208033 H          1 MOL1         0.0958
       5    C2      20.201496   19.808539   22.138376 C.3        1 MOL1        -0.1412
       6    H4      19.842830   20.697967   21.601760 H          1 MOL1         0.0947
       7    H5      20.230074   20.079093   23.199520 H          1 MOL1         0.0947
       8    C3      19.223884   18.633003   21.898956 C.3        1 MOL1        -0.1437
       9    H6      19.165411   18.458096   20.815745 H          1 MOL1         0.0947
      10    H7      19.616147   17.702516   22.330043 H          1 MOL1         0.0947
      11    C4      17.793171   18.905195   22.429143 C.3        1 MOL1        -0.1437
      12    H8      17.083815   18.433150   21.735338 H          1 MOL1         0.0947
      13    H9      17.570241   19.980201   22.387345 H          1 MOL1         0.0947
      14    C5      17.485092   18.351441   23.847095 C.3        1 MOL1        -0.1437
      15    H10     16.414983   18.517104   24.033770 H          1 MOL1         0.0947
      16    H11     17.617979   17.260967   23.862418 H          1 MOL1         0.0947
      17    C6      18.273311   19.004713   25.011363 C.3        1 MOL1        -0.1437
      18    H12     17.623719   19.025679   25.897468 H          1 MOL1         0.0947
      19    H13     18.488178   20.054162   24.773551 H          1 MOL1         0.0947
      20    C7      19.565577   18.236432   25.389573 C.3        1 MOL1        -0.1477
      21    H14     19.303399   17.205456   25.661614 H          1 MOL1         0.0947
      22    H15     20.247183   18.163697   24.535301 H          1 MOL1         0.0947
      23    C8      20.308380   18.875990   26.577901 C.3        1 MOL1         0.0145
      24    H16     21.147085   18.237182   26.867713 H          1 MOL1         0.0921
      25    H17     19.632107   18.959974   27.432856 H          1 MOL1         0.0921
      26    N1      20.863587   20.254727   26.279233 N.4        1 MOL1        -0.5969
      27    H18     20.121286   20.916168   26.031197 H          1 MOL1         0.3603
      28    H19     21.530359   20.235605   25.500816 H          1 MOL1         0.3603
      29    H20     21.357704   20.647467   27.088114 H          1 MOL1         0.3603
@<TRIPOS>BOND
    1     1     2    1
    2     1     3    1
    3     1     4    1
    4     1     5    1
    5     5     6    1
    6     5     7    1
    7     5     8    1
    8     8     9    1
    9     8    10    1
   10     8    11    1
   11    11    12    1
   12    11    13    1
   13    11    14    1
   14    14    15    1
   15    14    16    1
   16    14    17    1
   17    17    18    1
   18    17    19    1
   19    17    20    1
   20    20    21    1
   21    20    22    1
   22    20    23    1
   23    23    24    1
   24    23    25    1
   25    23    26    1
   26    26    27    1
   27    26    28    1
   28    26    29    1
@<TRIPOS>SUBSTRUCTURE
       1 MOL1            1 RESIDUE      1      MOL     
@<SCITEGIC>MOL_PROPERTY
VM2 Rank
SciTegic.value.IntegerValue
456

@<SCITEGIC>MOL_PROPERTY
Conf_Id
SciTegic.value.IntegerValue
952

@<SCITEGIC>MOL_PROPERTY
Probability
SciTegic.value.DoubleValue
0.00

@<SCITEGIC>MOL_PROPERTY
Sum Probability
SciTegic.value.DoubleValue
100.00

@<SCITEGIC>MOL_PROPERTY
Delta G
SciTegic.value.DoubleValue
7.216

@<SCITEGIC>MOL_PROPERTY
G
SciTegic.value.DoubleValue
65.364

@<SCITEGIC>MOL_PROPERTY
E
SciTegic.value.DoubleValue
27.035

@<SCITEGIC>MOL_PROPERTY
-TS
SciTegic.value.DoubleValue
38.329

@<SCITEGIC>MOL_PROPERTY
U+W
SciTegic.value.DoubleValue
2.891

@<SCITEGIC>MOL_PROPERTY
U
SciTegic.value.DoubleValue
55.689

@<SCITEGIC>MOL_PROPERTY
W
SciTegic.value.DoubleValue
-52.798

@<SCITEGIC>MOL_PROPERTY
W(PB)
SciTegic.value.DoubleValue
-55.154

@<SCITEGIC>MOL_PROPERTY
W(SA)
SciTegic.value.DoubleValue
2.356

@<SCITEGIC>MOL_PROPERTY
Valence
SciTegic.value.DoubleValue
8.280

@<SCITEGIC>MOL_PROPERTY
Coulomb
SciTegic.value.DoubleValue
47.124

@<SCITEGIC>MOL_PROPERTY
VdW
SciTegic.value.DoubleValue
0.284

@<SCITEGIC>MOL_PROPERTY
VdW6
SciTegic.value.DoubleValue
-11.007

@<SCITEGIC>MOL_PROPERTY
VdW12
SciTegic.value.DoubleValue
11.292

@<SCITEGIC>MOL_PROPERTY
Bond
SciTegic.value.DoubleValue
0.312

@<SCITEGIC>MOL_PROPERTY
Angle
SciTegic.value.DoubleValue
2.003

@<SCITEGIC>MOL_PROPERTY
Pdih
SciTegic.value.DoubleValue
5.965

@<SCITEGIC>MOL_PROPERTY
Idih
SciTegic.value.DoubleValue
0.000

@<SCITEGIC>MOL_PROPERTY
Tether
SciTegic.value.DoubleValue
0.000

@<TRIPOS>MOLECULE
guest-3_vm2.mol2 : vm2 ligand conformer 457
          29          28           1
SMALL
USER_CHARGES
 
@<TRIPOS>ATOM
       1    C1      20.462489   19.162650   20.341510 C.3        1 MOL1        -0.2427
       2    H1      20.926298   18.192453   20.120984 H          1 MOL1         0.0958
       3    H2      20.526099   19.776016   19.433427 H          1 MOL1         0.0958
       4    H3      21.061176   19.653878   21.116384 H          1 MOL1         0.0958
       5    C2      18.987571   18.983697   20.770801 C.3        1 MOL1        -0.1412
       6    H4      18.448486   18.509794   19.938541 H          1 MOL1         0.0947
       7    H5      18.511419   19.962678   20.920455 H          1 MOL1         0.0947
       8    C3      18.817095   18.102146   22.034833 C.3        1 MOL1        -0.1437
       9    H6      17.897736   17.511963   21.917247 H          1 MOL1         0.0947
      10    H7      19.632490   17.368612   22.099531 H          1 MOL1         0.0947
      11    C4      18.699300   18.886104   23.367414 C.3        1 MOL1        -0.1437
      12    H8      18.497573   18.161104   24.162840 H          1 MOL1         0.0947
      13    H9      17.819465   19.542621   23.324467 H          1 MOL1         0.0947
      14    C5      19.949576   19.728963   23.721817 C.3        1 MOL1        -0.1437
      15    H10     20.858309   19.116461   23.645557 H          1 MOL1         0.0947
      16    H11     20.048023   20.524774   22.972347 H          1 MOL1         0.0947
      17    C6      19.878915   20.404728   25.116175 C.3        1 MOL1        -0.1437
      18    H12     18.846710   20.699142   25.348097 H          1 MOL1         0.0947
      19    H13     20.445646   21.344635   25.063124 H          1 MOL1         0.0947
      20    C7      20.486201   19.567498   26.273155 C.3        1 MOL1        -0.1477
      21    H14     21.534048   19.336845   26.039584 H          1 MOL1         0.0947
      22    H15     20.508307   20.180274   27.184101 H          1 MOL1         0.0947
      23    C8      19.749202   18.250816   26.582640 C.3        1 MOL1         0.0145
      24    H16     20.272730   17.723378   27.384615 H          1 MOL1         0.0921
      25    H17     19.751654   17.608041   25.699228 H          1 MOL1         0.0921
      26    N1      18.313651   18.451398   27.026656 N.4        1 MOL1        -0.5969
      27    H18     18.256983   19.016456   27.880309 H          1 MOL1         0.3603
      28    H19     17.847596   17.559458   27.225739 H          1 MOL1         0.3603
      29    H20     17.761143   18.930518   26.309010 H          1 MOL1         0.3603
@<TRIPOS>BOND
    1     1     2    1
    2     1     3    1
    3     1     4    1
    4     1     5    1
    5     5     6    1
    6     5     7    1
    7     5     8    1
    8     8     9    1
    9     8    10    1
   10     8    11    1
   11    11    12    1
   12    11    13    1
   13    11    14    1
   14    14    15    1
   15    14    16    1
   16    14    17    1
   17    17    18    1
   18    17    19    1
   19    17    20    1
   20    20    21    1
   21    20    22    1
   22    20    23    1
   23    23    24    1
   24    23    25    1
   25    23    26    1
   26    26    27    1
   27    26    28    1
   28    26    29    1
@<TRIPOS>SUBSTRUCTURE
       1 MOL1            1 RESIDUE      1      MOL     
@<SCITEGIC>MOL_PROPERTY
VM2 Rank
SciTegic.value.IntegerValue
457

@<SCITEGIC>MOL_PROPERTY
Conf_Id
SciTegic.value.IntegerValue
1344

@<SCITEGIC>MOL_PROPERTY
Probability
SciTegic.value.DoubleValue
0.00

@<SCITEGIC>MOL_PROPERTY
Sum Probability
SciTegic.value.DoubleValue
100.00

@<SCITEGIC>MOL_PROPERTY
Delta G
SciTegic.value.DoubleValue
7.269

@<SCITEGIC>MOL_PROPERTY
G
SciTegic.value.DoubleValue
65.417

@<SCITEGIC>MOL_PROPERTY
E
SciTegic.value.DoubleValue
27.305

@<SCITEGIC>MOL_PROPERTY
-TS
SciTegic.value.DoubleValue
38.111

@<SCITEGIC>MOL_PROPERTY
U+W
SciTegic.value.DoubleValue
3.161

@<SCITEGIC>MOL_PROPERTY
U
SciTegic.value.DoubleValue
55.584

@<SCITEGIC>MOL_PROPERTY
W
SciTegic.value.DoubleValue
-52.423

@<SCITEGIC>MOL_PROPERTY
W(PB)
SciTegic.value.DoubleValue
-54.819

@<SCITEGIC>MOL_PROPERTY
W(SA)
SciTegic.value.DoubleValue
2.396

@<SCITEGIC>MOL_PROPERTY
Valence
SciTegic.value.DoubleValue
8.406

@<SCITEGIC>MOL_PROPERTY
Coulomb
SciTegic.value.DoubleValue
46.427

@<SCITEGIC>MOL_PROPERTY
VdW
SciTegic.value.DoubleValue
0.751

@<SCITEGIC>MOL_PROPERTY
VdW6
SciTegic.value.DoubleValue
-10.877

@<SCITEGIC>MOL_PROPERTY
VdW12
SciTegic.value.DoubleValue
11.628

@<SCITEGIC>MOL_PROPERTY
Bond
SciTegic.value.DoubleValue
0.338

@<SCITEGIC>MOL_PROPERTY
Angle
SciTegic.value.DoubleValue
2.150

@<SCITEGIC>MOL_PROPERTY
Pdih
SciTegic.value.DoubleValue
5.919

@<SCITEGIC>MOL_PROPERTY
Idih
SciTegic.value.DoubleValue
0.000

@<SCITEGIC>MOL_PROPERTY
Tether
SciTegic.value.DoubleValue
0.000

@<TRIPOS>MOLECULE
guest-3_vm2.mol2 : vm2 ligand conformer 458
          29          28           1
SMALL
USER_CHARGES
 
@<TRIPOS>ATOM
       1    C1      19.909713   18.818375   20.229429 C.3        1 MOL1        -0.2427
       2    H1      19.125628   19.585520   20.246990 H          1 MOL1         0.0958
       3    H2      20.628226   19.100085   19.448905 H          1 MOL1         0.0958
       4    H3      19.453214   17.863707   19.937617 H          1 MOL1         0.0958
       5    C2      20.616904   18.701253   21.598395 C.3        1 MOL1        -0.1412
       6    H4      21.033727   19.675996   21.882563 H          1 MOL1         0.0947
       7    H5      21.479575   18.028999   21.491168 H          1 MOL1         0.0947
       8    C3      19.705497   18.150083   22.725870 C.3        1 MOL1        -0.1437
       9    H6      19.414200   17.123349   22.465311 H          1 MOL1         0.0947
      10    H7      20.302061   18.065210   23.640886 H          1 MOL1         0.0947
      11    C4      18.413630   18.968511   23.005184 C.3        1 MOL1        -0.1437
      12    H8      17.775562   18.421249   23.711534 H          1 MOL1         0.0947
      13    H9      17.825195   19.019071   22.080070 H          1 MOL1         0.0947
      14    C5      18.642808   20.412347   23.528088 C.3        1 MOL1        -0.1437
      15    H10     19.575337   20.830211   23.130713 H          1 MOL1         0.0947
      16    H11     17.845984   21.046265   23.115279 H          1 MOL1         0.0947
      17    C6      18.608168   20.582443   25.070803 C.3        1 MOL1        -0.1437
      18    H12     17.621157   20.294661   25.458774 H          1 MOL1         0.0947
      19    H13     18.706506   21.655836   25.284244 H          1 MOL1         0.0947
      20    C7      19.719678   19.838063   25.850293 C.3        1 MOL1        -0.1477
      21    H14     20.653096   19.840472   25.272382 H          1 MOL1         0.0947
      22    H15     19.928311   20.391057   26.775817 H          1 MOL1         0.0947
      23    C8      19.320295   18.400395   26.234434 C.3        1 MOL1         0.0145
      24    H16     19.087246   17.822092   25.338239 H          1 MOL1         0.0921
      25    H17     18.427866   18.424885   26.865532 H          1 MOL1         0.0921
      26    N1      20.407308   17.666530   26.992505 N.4        1 MOL1        -0.5969
      27    H18     21.269686   17.587119   26.443852 H          1 MOL1         0.3603
      28    H19     20.121096   16.713239   27.241243 H          1 MOL1         0.3603
      29    H20     20.649226   18.143077   27.867611 H          1 MOL1         0.3603
@<TRIPOS>BOND
    1     1     2    1
    2     1     3    1
    3     1     4    1
    4     1     5    1
    5     5     6    1
    6     5     7    1
    7     5     8    1
    8     8     9    1
    9     8    10    1
   10     8    11    1
   11    11    12    1
   12    11    13    1
   13    11    14    1
   14    14    15    1
   15    14    16    1
   16    14    17    1
   17    17    18    1
   18    17    19    1
   19    17    20    1
   20    20    21    1
   21    20    22    1
   22    20    23    1
   23    23    24    1
   24    23    25    1
   25    23    26    1
   26    26    27    1
   27    26    28    1
   28    26    29    1
@<TRIPOS>SUBSTRUCTURE
       1 MOL1            1 RESIDUE      1      MOL     
@<SCITEGIC>MOL_PROPERTY
VM2 Rank
SciTegic.value.IntegerValue
458

@<SCITEGIC>MOL_PROPERTY
Conf_Id
SciTegic.value.IntegerValue
1365

@<SCITEGIC>MOL_PROPERTY
Probability
SciTegic.value.DoubleValue
0.00

@<SCITEGIC>MOL_PROPERTY
Sum Probability
SciTegic.value.DoubleValue
100.00

@<SCITEGIC>MOL_PROPERTY
Delta G
SciTegic.value.DoubleValue
7.319

@<SCITEGIC>MOL_PROPERTY
G
SciTegic.value.DoubleValue
65.467

@<SCITEGIC>MOL_PROPERTY
E
SciTegic.value.DoubleValue
27.292

@<SCITEGIC>MOL_PROPERTY
-TS
SciTegic.value.DoubleValue
38.175

@<SCITEGIC>MOL_PROPERTY
U+W
SciTegic.value.DoubleValue
3.147

@<SCITEGIC>MOL_PROPERTY
U
SciTegic.value.DoubleValue
56.055

@<SCITEGIC>MOL_PROPERTY
W
SciTegic.value.DoubleValue
-52.908

@<SCITEGIC>MOL_PROPERTY
W(PB)
SciTegic.value.DoubleValue
-55.294

@<SCITEGIC>MOL_PROPERTY
W(SA)
SciTegic.value.DoubleValue
2.387

@<SCITEGIC>MOL_PROPERTY
Valence
SciTegic.value.DoubleValue
8.794

@<SCITEGIC>MOL_PROPERTY
Coulomb
SciTegic.value.DoubleValue
46.637

@<SCITEGIC>MOL_PROPERTY
VdW
SciTegic.value.DoubleValue
0.624

@<SCITEGIC>MOL_PROPERTY
VdW6
SciTegic.value.DoubleValue
-11.455

@<SCITEGIC>MOL_PROPERTY
VdW12
SciTegic.value.DoubleValue
12.079

@<SCITEGIC>MOL_PROPERTY
Bond
SciTegic.value.DoubleValue
0.377

@<SCITEGIC>MOL_PROPERTY
Angle
SciTegic.value.DoubleValue
2.632

@<SCITEGIC>MOL_PROPERTY
Pdih
SciTegic.value.DoubleValue
5.785

@<SCITEGIC>MOL_PROPERTY
Idih
SciTegic.value.DoubleValue
0.000

@<SCITEGIC>MOL_PROPERTY
Tether
SciTegic.value.DoubleValue
0.000

@<TRIPOS>MOLECULE
guest-3_vm2.mol2 : vm2 ligand conformer 459
          29          28           1
SMALL
USER_CHARGES
 
@<TRIPOS>ATOM
       1    C1      20.617029   18.936251   19.844540 C.3        1 MOL1        -0.2427
       2    H1      21.567161   18.479836   20.151397 H          1 MOL1         0.0958
       3    H2      20.238104   18.376754   18.979432 H          1 MOL1         0.0958
       4    H3      20.821106   19.964223   19.517658 H          1 MOL1         0.0958
       5    C2      19.592907   18.913714   20.998896 C.3        1 MOL1        -0.1412
       6    H4      19.384618   17.870208   21.270504 H          1 MOL1         0.0947
       7    H5      18.644779   19.348785   20.653259 H          1 MOL1         0.0947
       8    C3      20.106732   19.693675   22.231759 C.3        1 MOL1        -0.1437
       9    H6      21.030551   19.228911   22.602043 H          1 MOL1         0.0947
      10    H7      20.376959   20.712806   21.922184 H          1 MOL1         0.0947
      11    C4      19.070751   19.786761   23.378620 C.3        1 MOL1        -0.1437
      12    H8      18.161583   20.279972   23.007641 H          1 MOL1         0.0947
      13    H9      19.466824   20.449727   24.156845 H          1 MOL1         0.0947
      14    C5      18.692726   18.409460   23.982693 C.3        1 MOL1        -0.1437
      15    H10     18.093326   17.862589   23.242452 H          1 MOL1         0.0947
      16    H11     19.585405   17.794209   24.156534 H          1 MOL1         0.0947
      17    C6      17.860667   18.525092   25.285483 C.3        1 MOL1        -0.1437
      18    H12     17.121381   17.712132   25.289837 H          1 MOL1         0.0947
      19    H13     17.274633   19.454610   25.279318 H          1 MOL1         0.0947
      20    C7      18.673413   18.419042   26.603801 C.3        1 MOL1        -0.1477
      21    H14     17.962268   18.453966   27.439779 H          1 MOL1         0.0947
      22    H15     19.162536   17.437983   26.668343 H          1 MOL1         0.0947
      23    C8      19.713502   19.535444   26.826610 C.3        1 MOL1         0.0145
      24    H16     19.958066   19.589506   27.890900 H          1 MOL1         0.0921
      25    H17     19.294535   20.498937   26.524574 H          1 MOL1         0.0921
      26    N1      21.016273   19.318561   26.082598 N.4        1 MOL1        -0.5969
      27    H18     21.481641   18.454040   26.378626 H          1 MOL1         0.3603
      28    H19     21.678405   20.086132   26.241599 H          1 MOL1         0.3603
      29    H20     20.857550   19.250951   25.071879 H          1 MOL1         0.3603
@<TRIPOS>BOND
    1     1     2    1
    2     1     3    1
    3     1     4    1
    4     1     5    1
    5     5     6    1
    6     5     7    1
    7     5     8    1
    8     8     9    1
    9     8    10    1
   10     8    11    1
   11    11    12    1
   12    11    13    1
   13    11    14    1
   14    14    15    1
   15    14    16    1
   16    14    17    1
   17    17    18    1
   18    17    19    1
   19    17    20    1
   20    20    21    1
   21    20    22    1
   22    20    23    1
   23    23    24    1
   24    23    25    1
   25    23    26    1
   26    26    27    1
   27    26    28    1
   28    26    29    1
@<TRIPOS>SUBSTRUCTURE
       1 MOL1            1 RESIDUE      1      MOL     
@<SCITEGIC>MOL_PROPERTY
VM2 Rank
SciTegic.value.IntegerValue
459

@<SCITEGIC>MOL_PROPERTY
Conf_Id
SciTegic.value.IntegerValue
318

@<SCITEGIC>MOL_PROPERTY
Probability
SciTegic.value.DoubleValue
0.00

@<SCITEGIC>MOL_PROPERTY
Sum Probability
SciTegic.value.DoubleValue
100.00

@<SCITEGIC>MOL_PROPERTY
Delta G
SciTegic.value.DoubleValue
7.469

@<SCITEGIC>MOL_PROPERTY
G
SciTegic.value.DoubleValue
65.617

@<SCITEGIC>MOL_PROPERTY
E
SciTegic.value.DoubleValue
27.471

@<SCITEGIC>MOL_PROPERTY
-TS
SciTegic.value.DoubleValue
38.146

@<SCITEGIC>MOL_PROPERTY
U+W
SciTegic.value.DoubleValue
3.327

@<SCITEGIC>MOL_PROPERTY
U
SciTegic.value.DoubleValue
54.962

@<SCITEGIC>MOL_PROPERTY
W
SciTegic.value.DoubleValue
-51.635

@<SCITEGIC>MOL_PROPERTY
W(PB)
SciTegic.value.DoubleValue
-54.074

@<SCITEGIC>MOL_PROPERTY
W(SA)
SciTegic.value.DoubleValue
2.439

@<SCITEGIC>MOL_PROPERTY
Valence
SciTegic.value.DoubleValue
7.165

@<SCITEGIC>MOL_PROPERTY
Coulomb
SciTegic.value.DoubleValue
47.155

@<SCITEGIC>MOL_PROPERTY
VdW
SciTegic.value.DoubleValue
0.641

@<SCITEGIC>MOL_PROPERTY
VdW6
SciTegic.value.DoubleValue
-10.821

@<SCITEGIC>MOL_PROPERTY
VdW12
SciTegic.value.DoubleValue
11.462

@<SCITEGIC>MOL_PROPERTY
Bond
SciTegic.value.DoubleValue
0.290

@<SCITEGIC>MOL_PROPERTY
Angle
SciTegic.value.DoubleValue
1.664

@<SCITEGIC>MOL_PROPERTY
Pdih
SciTegic.value.DoubleValue
5.210

@<SCITEGIC>MOL_PROPERTY
Idih
SciTegic.value.DoubleValue
0.000

@<SCITEGIC>MOL_PROPERTY
Tether
SciTegic.value.DoubleValue
0.000

@<TRIPOS>MOLECULE
guest-3_vm2.mol2 : vm2 ligand conformer 460
          29          28           1
SMALL
USER_CHARGES
 
@<TRIPOS>ATOM
       1    C1      21.025846   20.021007   21.092115 C.3        1 MOL1        -0.2427
       2    H1      21.666649   19.639036   21.896347 H          1 MOL1         0.0958
       3    H2      21.658337   20.163446   20.206357 H          1 MOL1         0.0958
       4    H3      20.643975   21.004974   21.393773 H          1 MOL1         0.0958
       5    C2      19.867058   19.047706   20.777885 C.3        1 MOL1        -0.1412
       6    H4      20.273693   18.062243   20.511064 H          1 MOL1         0.0947
       7    H5      19.331706   19.410149   19.889192 H          1 MOL1         0.0947
       8    C3      18.856001   18.900613   21.940411 C.3        1 MOL1        -0.1437
       9    H6      18.438340   19.886888   22.180062 H          1 MOL1         0.0947
      10    H7      18.014508   18.285516   21.593209 H          1 MOL1         0.0947
      11    C4      19.468494   18.251953   23.207859 C.3        1 MOL1        -0.1437
      12    H8      20.267662   18.891612   23.597347 H          1 MOL1         0.0947
      13    H9      19.938074   17.300440   22.922818 H          1 MOL1         0.0947
      14    C5      18.416897   17.972758   24.313742 C.3        1 MOL1        -0.1437
      15    H10     17.558034   17.466053   23.852213 H          1 MOL1         0.0947
      16    H11     18.815301   17.253996   25.041936 H          1 MOL1         0.0947
      17    C6      17.911166   19.239755   25.054416 C.3        1 MOL1        -0.1437
      18    H12     16.847096   19.093801   25.286189 H          1 MOL1         0.0947
      19    H13     17.948538   20.116148   24.395204 H          1 MOL1         0.0947
      20    C7      18.635376   19.561881   26.388633 C.3        1 MOL1        -0.1477
      21    H14     18.143994   20.437567   26.833061 H          1 MOL1         0.0947
      22    H15     18.491870   18.742748   27.105780 H          1 MOL1         0.0947
      23    C8      20.137192   19.884637   26.256197 C.3        1 MOL1         0.0145
      24    H16     20.454546   20.471801   27.122204 H          1 MOL1         0.0921
      25    H17     20.311125   20.482310   25.357449 H          1 MOL1         0.0921
      26    N1      21.025972   18.657691   26.203744 N.4        1 MOL1        -0.5969
      27    H18     20.778307   18.052036   25.415024 H          1 MOL1         0.3603
      28    H19     20.945156   18.095393   27.057441 H          1 MOL1         0.3603
      29    H20     22.015764   18.907987   26.102000 H          1 MOL1         0.3603
@<TRIPOS>BOND
    1     1     2    1
    2     1     3    1
    3     1     4    1
    4     1     5    1
    5     5     6    1
    6     5     7    1
    7     5     8    1
    8     8     9    1
    9     8    10    1
   10     8    11    1
   11    11    12    1
   12    11    13    1
   13    11    14    1
   14    14    15    1
   15    14    16    1
   16    14    17    1
   17    17    18    1
   18    17    19    1
   19    17    20    1
   20    20    21    1
   21    20    22    1
   22    20    23    1
   23    23    24    1
   24    23    25    1
   25    23    26    1
   26    26    27    1
   27    26    28    1
   28    26    29    1
@<TRIPOS>SUBSTRUCTURE
       1 MOL1            1 RESIDUE      1      MOL     
@<SCITEGIC>MOL_PROPERTY
VM2 Rank
SciTegic.value.IntegerValue
460

@<SCITEGIC>MOL_PROPERTY
Conf_Id
SciTegic.value.IntegerValue
991

@<SCITEGIC>MOL_PROPERTY
Probability
SciTegic.value.DoubleValue
0.00

@<SCITEGIC>MOL_PROPERTY
Sum Probability
SciTegic.value.DoubleValue
100.00

@<SCITEGIC>MOL_PROPERTY
Delta G
SciTegic.value.DoubleValue
7.521

@<SCITEGIC>MOL_PROPERTY
G
SciTegic.value.DoubleValue
65.669

@<SCITEGIC>MOL_PROPERTY
E
SciTegic.value.DoubleValue
27.575

@<SCITEGIC>MOL_PROPERTY
-TS
SciTegic.value.DoubleValue
38.094

@<SCITEGIC>MOL_PROPERTY
U+W
SciTegic.value.DoubleValue
3.431

@<SCITEGIC>MOL_PROPERTY
U
SciTegic.value.DoubleValue
55.776

@<SCITEGIC>MOL_PROPERTY
W
SciTegic.value.DoubleValue
-52.345

@<SCITEGIC>MOL_PROPERTY
W(PB)
SciTegic.value.DoubleValue
-54.721

@<SCITEGIC>MOL_PROPERTY
W(SA)
SciTegic.value.DoubleValue
2.376

@<SCITEGIC>MOL_PROPERTY
Valence
SciTegic.value.DoubleValue
7.842

@<SCITEGIC>MOL_PROPERTY
Coulomb
SciTegic.value.DoubleValue
47.177

@<SCITEGIC>MOL_PROPERTY
VdW
SciTegic.value.DoubleValue
0.757

@<SCITEGIC>MOL_PROPERTY
VdW6
SciTegic.value.DoubleValue
-11.138

@<SCITEGIC>MOL_PROPERTY
VdW12
SciTegic.value.DoubleValue
11.895

@<SCITEGIC>MOL_PROPERTY
Bond
SciTegic.value.DoubleValue
0.338

@<SCITEGIC>MOL_PROPERTY
Angle
SciTegic.value.DoubleValue
1.836

@<SCITEGIC>MOL_PROPERTY
Pdih
SciTegic.value.DoubleValue
5.668

@<SCITEGIC>MOL_PROPERTY
Idih
SciTegic.value.DoubleValue
0.000

@<SCITEGIC>MOL_PROPERTY
Tether
SciTegic.value.DoubleValue
0.000

@<TRIPOS>MOLECULE
guest-3_vm2.mol2 : vm2 ligand conformer 461
          29          28           1
SMALL
USER_CHARGES
 
@<TRIPOS>ATOM
       1    C1      19.799447   17.836873   20.284116 C.3        1 MOL1        -0.2427
       2    H1      20.262263   17.136530   20.990307 H          1 MOL1         0.0958
       3    H2      19.331843   17.242030   19.488866 H          1 MOL1         0.0958
       4    H3      20.593755   18.441864   19.827954 H          1 MOL1         0.0958
       5    C2      18.748312   18.732263   20.978351 C.3        1 MOL1        -0.1412
       6    H4      17.983554   18.103049   21.454732 H          1 MOL1         0.0947
       7    H5      18.226543   19.323409   20.212813 H          1 MOL1         0.0947
       8    C3      19.355312   19.699509   22.023213 C.3        1 MOL1        -0.1437
       9    H6      20.102838   20.340649   21.536190 H          1 MOL1         0.0947
      10    H7      18.559438   20.369000   22.373607 H          1 MOL1         0.0947
      11    C4      19.999235   18.974195   23.232147 C.3        1 MOL1        -0.1437
      12    H8      20.844007   18.369470   22.877308 H          1 MOL1         0.0947
      13    H9      19.272015   18.276473   23.664109 H          1 MOL1         0.0947
      14    C5      20.524567   19.954971   24.312926 C.3        1 MOL1        -0.1437
      15    H10     21.258736   19.451991   24.956086 H          1 MOL1         0.0947
      16    H11     21.085454   20.754436   23.809137 H          1 MOL1         0.0947
      17    C6      19.415506   20.595515   25.190050 C.3        1 MOL1        -0.1437
      18    H12     18.474380   20.673563   24.630972 H          1 MOL1         0.0947
      19    H13     19.712761   21.630320   25.409347 H          1 MOL1         0.0947
      20    C7      19.155481   19.890120   26.547685 C.3        1 MOL1        -0.1477
      21    H14     20.061668   19.913387   27.167490 H          1 MOL1         0.0947
      22    H15     18.405445   20.478657   27.092545 H          1 MOL1         0.0947
      23    C8      18.629857   18.444417   26.442424 C.3        1 MOL1         0.0145
      24    H16     17.906989   18.370561   25.625617 H          1 MOL1         0.0921
      25    H17     18.120054   18.180537   27.372967 H          1 MOL1         0.0921
      26    N1      19.716283   17.410137   26.224089 N.4        1 MOL1        -0.5969
      27    H18     20.244271   17.600814   25.366673 H          1 MOL1         0.3603
      28    H19     19.330379   16.462770   26.144752 H          1 MOL1         0.3603
      29    H20     20.387272   17.396770   26.999388 H          1 MOL1         0.3603
@<TRIPOS>BOND
    1     1     2    1
    2     1     3    1
    3     1     4    1
    4     1     5    1
    5     5     6    1
    6     5     7    1
    7     5     8    1
    8     8     9    1
    9     8    10    1
   10     8    11    1
   11    11    12    1
   12    11    13    1
   13    11    14    1
   14    14    15    1
   15    14    16    1
   16    14    17    1
   17    17    18    1
   18    17    19    1
   19    17    20    1
   20    20    21    1
   21    20    22    1
   22    20    23    1
   23    23    24    1
   24    23    25    1
   25    23    26    1
   26    26    27    1
   27    26    28    1
   28    26    29    1
@<TRIPOS>SUBSTRUCTURE
       1 MOL1            1 RESIDUE      1      MOL     
@<SCITEGIC>MOL_PROPERTY
VM2 Rank
SciTegic.value.IntegerValue
461

@<SCITEGIC>MOL_PROPERTY
Conf_Id
SciTegic.value.IntegerValue
804

@<SCITEGIC>MOL_PROPERTY
Probability
SciTegic.value.DoubleValue
0.00

@<SCITEGIC>MOL_PROPERTY
Sum Probability
SciTegic.value.DoubleValue
100.00

@<SCITEGIC>MOL_PROPERTY
Delta G
SciTegic.value.DoubleValue
7.598

@<SCITEGIC>MOL_PROPERTY
G
SciTegic.value.DoubleValue
65.746

@<SCITEGIC>MOL_PROPERTY
E
SciTegic.value.DoubleValue
27.618

@<SCITEGIC>MOL_PROPERTY
-TS
SciTegic.value.DoubleValue
38.129

@<SCITEGIC>MOL_PROPERTY
U+W
SciTegic.value.DoubleValue
3.473

@<SCITEGIC>MOL_PROPERTY
U
SciTegic.value.DoubleValue
55.775

@<SCITEGIC>MOL_PROPERTY
W
SciTegic.value.DoubleValue
-52.302

@<SCITEGIC>MOL_PROPERTY
W(PB)
SciTegic.value.DoubleValue
-54.712

@<SCITEGIC>MOL_PROPERTY
W(SA)
SciTegic.value.DoubleValue
2.410

@<SCITEGIC>MOL_PROPERTY
Valence
SciTegic.value.DoubleValue
7.940

@<SCITEGIC>MOL_PROPERTY
Coulomb
SciTegic.value.DoubleValue
46.996

@<SCITEGIC>MOL_PROPERTY
VdW
SciTegic.value.DoubleValue
0.839

@<SCITEGIC>MOL_PROPERTY
VdW6
SciTegic.value.DoubleValue
-11.015

@<SCITEGIC>MOL_PROPERTY
VdW12
SciTegic.value.DoubleValue
11.854

@<SCITEGIC>MOL_PROPERTY
Bond
SciTegic.value.DoubleValue
0.334

@<SCITEGIC>MOL_PROPERTY
Angle
SciTegic.value.DoubleValue
1.815

@<SCITEGIC>MOL_PROPERTY
Pdih
SciTegic.value.DoubleValue
5.790

@<SCITEGIC>MOL_PROPERTY
Idih
SciTegic.value.DoubleValue
0.000

@<SCITEGIC>MOL_PROPERTY
Tether
SciTegic.value.DoubleValue
0.000

@<TRIPOS>MOLECULE
guest-3_vm2.mol2 : vm2 ligand conformer 462
          29          28           1
SMALL
USER_CHARGES
 
@<TRIPOS>ATOM
       1    C1      20.551991   19.950559   20.331593 C.3        1 MOL1        -0.2427
       2    H1      20.576477   20.738042   19.567272 H          1 MOL1         0.0958
       3    H2      21.342984   20.172562   21.058524 H          1 MOL1         0.0958
       4    H3      20.792215   18.998577   19.840628 H          1 MOL1         0.0958
       5    C2      19.161761   19.893472   21.004329 C.3        1 MOL1        -0.1412
       6    H4      18.394871   19.795603   20.223276 H          1 MOL1         0.0947
       7    H5      18.959456   20.844758   21.516023 H          1 MOL1         0.0947
       8    C3      19.006583   18.719710   22.001302 C.3        1 MOL1        -0.1437
       9    H6      17.961838   18.690107   22.336026 H          1 MOL1         0.0947
      10    H7      19.187996   17.770477   21.478721 H          1 MOL1         0.0947
      11    C4      19.946717   18.826629   23.228879 C.3        1 MOL1        -0.1437
      12    H8      19.817681   19.809096   23.698309 H          1 MOL1         0.0947
      13    H9      20.988520   18.775205   22.886466 H          1 MOL1         0.0947
      14    C5      19.719009   17.692680   24.262459 C.3        1 MOL1        -0.1437
      15    H10     19.655758   16.739369   23.719559 H          1 MOL1         0.0947
      16    H11     20.596698   17.592785   24.914632 H          1 MOL1         0.0947
      17    C6      18.442406   17.862744   25.129071 C.3        1 MOL1        -0.1437
      18    H12     18.015993   16.865166   25.303098 H          1 MOL1         0.0947
      19    H13     17.671550   18.418941   24.580616 H          1 MOL1         0.0947
      20    C7      18.667356   18.519475   26.517046 C.3        1 MOL1        -0.1477
      21    H14     17.706542   18.516191   27.048674 H          1 MOL1         0.0947
      22    H15     19.346223   17.904474   27.122674 H          1 MOL1         0.0947
      23    C8      19.174830   19.974893   26.476421 C.3        1 MOL1         0.0145
      24    H16     18.933312   20.464481   27.423739 H          1 MOL1         0.0921
      25    H17     18.672760   20.521036   25.673415 H          1 MOL1         0.0921
      26    N1      20.673347   20.097838   26.283900 N.4        1 MOL1        -0.5969
      27    H18     21.190901   19.653634   27.049611 H          1 MOL1         0.3603
      28    H19     20.973894   21.078180   26.247519 H          1 MOL1         0.3603
      29    H20     20.974178   19.650554   25.412274 H          1 MOL1         0.3603
@<TRIPOS>BOND
    1     1     2    1
    2     1     3    1
    3     1     4    1
    4     1     5    1
    5     5     6    1
    6     5     7    1
    7     5     8    1
    8     8     9    1
    9     8    10    1
   10     8    11    1
   11    11    12    1
   12    11    13    1
   13    11    14    1
   14    14    15    1
   15    14    16    1
   16    14    17    1
   17    17    18    1
   18    17    19    1
   19    17    20    1
   20    20    21    1
   21    20    22    1
   22    20    23    1
   23    23    24    1
   24    23    25    1
   25    23    26    1
   26    26    27    1
   27    26    28    1
   28    26    29    1
@<TRIPOS>SUBSTRUCTURE
       1 MOL1            1 RESIDUE      1      MOL     
@<SCITEGIC>MOL_PROPERTY
VM2 Rank
SciTegic.value.IntegerValue
462

@<SCITEGIC>MOL_PROPERTY
Conf_Id
SciTegic.value.IntegerValue
809

@<SCITEGIC>MOL_PROPERTY
Probability
SciTegic.value.DoubleValue
0.00

@<SCITEGIC>MOL_PROPERTY
Sum Probability
SciTegic.value.DoubleValue
100.00

@<SCITEGIC>MOL_PROPERTY
Delta G
SciTegic.value.DoubleValue
7.635

@<SCITEGIC>MOL_PROPERTY
G
SciTegic.value.DoubleValue
65.783

@<SCITEGIC>MOL_PROPERTY
E
SciTegic.value.DoubleValue
27.654

@<SCITEGIC>MOL_PROPERTY
-TS
SciTegic.value.DoubleValue
38.129

@<SCITEGIC>MOL_PROPERTY
U+W
SciTegic.value.DoubleValue
3.510

@<SCITEGIC>MOL_PROPERTY
U
SciTegic.value.DoubleValue
55.775

@<SCITEGIC>MOL_PROPERTY
W
SciTegic.value.DoubleValue
-52.265

@<SCITEGIC>MOL_PROPERTY
W(PB)
SciTegic.value.DoubleValue
-54.678

@<SCITEGIC>MOL_PROPERTY
W(SA)
SciTegic.value.DoubleValue
2.413

@<SCITEGIC>MOL_PROPERTY
Valence
SciTegic.value.DoubleValue
7.939

@<SCITEGIC>MOL_PROPERTY
Coulomb
SciTegic.value.DoubleValue
46.996

@<SCITEGIC>MOL_PROPERTY
VdW
SciTegic.value.DoubleValue
0.840

@<SCITEGIC>MOL_PROPERTY
VdW6
SciTegic.value.DoubleValue
-11.015

@<SCITEGIC>MOL_PROPERTY
VdW12
SciTegic.value.DoubleValue
11.855

@<SCITEGIC>MOL_PROPERTY
Bond
SciTegic.value.DoubleValue
0.334

@<SCITEGIC>MOL_PROPERTY
Angle
SciTegic.value.DoubleValue
1.815

@<SCITEGIC>MOL_PROPERTY
Pdih
SciTegic.value.DoubleValue
5.790

@<SCITEGIC>MOL_PROPERTY
Idih
SciTegic.value.DoubleValue
0.000

@<SCITEGIC>MOL_PROPERTY
Tether
SciTegic.value.DoubleValue
0.000

@<TRIPOS>MOLECULE
guest-3_vm2.mol2 : vm2 ligand conformer 463
          29          28           1
SMALL
USER_CHARGES
 
@<TRIPOS>ATOM
       1    C1      21.068262   19.049600   21.422115 C.3        1 MOL1        -0.2427
       2    H1      21.487374   18.842185   22.414478 H          1 MOL1         0.0958
       3    H2      21.847784   18.839814   20.678374 H          1 MOL1         0.0958
       4    H3      20.834972   20.118541   21.353398 H          1 MOL1         0.0958
       5    C2      19.818624   18.185579   21.148225 C.3        1 MOL1        -0.1412
       6    H4      20.138061   17.143177   21.010301 H          1 MOL1         0.0947
       7    H5      19.367381   18.492511   20.194412 H          1 MOL1         0.0947
       8    C3      18.744595   18.220997   22.265866 C.3        1 MOL1        -0.1437
       9    H6      17.944203   17.531920   21.963014 H          1 MOL1         0.0947
      10    H7      19.145722   17.799275   23.193818 H          1 MOL1         0.0947
      11    C4      18.096287   19.609069   22.518927 C.3        1 MOL1        -0.1437
      12    H8      17.066231   19.447960   22.865745 H          1 MOL1         0.0947
      13    H9      18.001538   20.144633   21.564447 H          1 MOL1         0.0947
      14    C5      18.805362   20.524020   23.555091 C.3        1 MOL1        -0.1437
      15    H10     19.812814   20.795266   23.220750 H          1 MOL1         0.0947
      16    H11     18.250182   21.471686   23.586089 H          1 MOL1         0.0947
      17    C6      18.849911   19.950313   24.996012 C.3        1 MOL1        -0.1437
      18    H12     18.087610   19.168797   25.112452 H          1 MOL1         0.0947
      19    H13     18.573833   20.748730   25.698810 H          1 MOL1         0.0947
      20    C7      20.248551   19.416639   25.396394 C.3        1 MOL1        -0.1477
      21    H14     20.571228   18.618777   24.717854 H          1 MOL1         0.0947
      22    H15     20.985115   20.224841   25.295900 H          1 MOL1         0.0947
      23    C8      20.292076   18.899447   26.846824 C.3        1 MOL1         0.0145
      24    H16     19.966804   19.689209   27.529350 H          1 MOL1         0.0921
      25    H17     21.319176   18.627127   27.104544 H          1 MOL1         0.0921
      26    N1      19.420332   17.682334   27.085545 N.4        1 MOL1        -0.5969
      27    H18     18.433377   17.879768   26.893013 H          1 MOL1         0.3603
      28    H19     19.478171   17.357922   28.057128 H          1 MOL1         0.3603
      29    H20     19.694953   16.894738   26.489481 H          1 MOL1         0.3603
@<TRIPOS>BOND
    1     1     2    1
    2     1     3    1
    3     1     4    1
    4     1     5    1
    5     5     6    1
    6     5     7    1
    7     5     8    1
    8     8     9    1
    9     8    10    1
   10     8    11    1
   11    11    12    1
   12    11    13    1
   13    11    14    1
   14    14    15    1
   15    14    16    1
   16    14    17    1
   17    17    18    1
   18    17    19    1
   19    17    20    1
   20    20    21    1
   21    20    22    1
   22    20    23    1
   23    23    24    1
   24    23    25    1
   25    23    26    1
   26    26    27    1
   27    26    28    1
   28    26    29    1
@<TRIPOS>SUBSTRUCTURE
       1 MOL1            1 RESIDUE      1      MOL     
@<SCITEGIC>MOL_PROPERTY
VM2 Rank
SciTegic.value.IntegerValue
463

@<SCITEGIC>MOL_PROPERTY
Conf_Id
SciTegic.value.IntegerValue
314

@<SCITEGIC>MOL_PROPERTY
Probability
SciTegic.value.DoubleValue
0.00

@<SCITEGIC>MOL_PROPERTY
Sum Probability
SciTegic.value.DoubleValue
100.00

@<SCITEGIC>MOL_PROPERTY
Delta G
SciTegic.value.DoubleValue
7.686

@<SCITEGIC>MOL_PROPERTY
G
SciTegic.value.DoubleValue
65.834

@<SCITEGIC>MOL_PROPERTY
E
SciTegic.value.DoubleValue
27.734

@<SCITEGIC>MOL_PROPERTY
-TS
SciTegic.value.DoubleValue
38.101

@<SCITEGIC>MOL_PROPERTY
U+W
SciTegic.value.DoubleValue
3.589

@<SCITEGIC>MOL_PROPERTY
U
SciTegic.value.DoubleValue
56.283

@<SCITEGIC>MOL_PROPERTY
W
SciTegic.value.DoubleValue
-52.693

@<SCITEGIC>MOL_PROPERTY
W(PB)
SciTegic.value.DoubleValue
-55.050

@<SCITEGIC>MOL_PROPERTY
W(SA)
SciTegic.value.DoubleValue
2.357

@<SCITEGIC>MOL_PROPERTY
Valence
SciTegic.value.DoubleValue
9.282

@<SCITEGIC>MOL_PROPERTY
Coulomb
SciTegic.value.DoubleValue
46.298

@<SCITEGIC>MOL_PROPERTY
VdW
SciTegic.value.DoubleValue
0.702

@<SCITEGIC>MOL_PROPERTY
VdW6
SciTegic.value.DoubleValue
-10.956

@<SCITEGIC>MOL_PROPERTY
VdW12
SciTegic.value.DoubleValue
11.659

@<SCITEGIC>MOL_PROPERTY
Bond
SciTegic.value.DoubleValue
0.368

@<SCITEGIC>MOL_PROPERTY
Angle
SciTegic.value.DoubleValue
2.493

@<SCITEGIC>MOL_PROPERTY
Pdih
SciTegic.value.DoubleValue
6.421

@<SCITEGIC>MOL_PROPERTY
Idih
SciTegic.value.DoubleValue
0.000

@<SCITEGIC>MOL_PROPERTY
Tether
SciTegic.value.DoubleValue
0.000

@<TRIPOS>MOLECULE
guest-3_vm2.mol2 : vm2 ligand conformer 464
          29          28           1
SMALL
USER_CHARGES
 
@<TRIPOS>ATOM
       1    C1      21.293139   18.573822   21.587549 C.3        1 MOL1        -0.2427
       2    H1      21.808490   17.902591   20.888448 H          1 MOL1         0.0958
       3    H2      21.965260   19.415872   21.797983 H          1 MOL1         0.0958
       4    H3      21.136821   18.024423   22.522644 H          1 MOL1         0.0958
       5    C2      19.960949   19.069727   20.979343 C.3        1 MOL1        -0.1412
       6    H4      19.328391   18.214584   20.703460 H          1 MOL1         0.0947
       7    H5      20.188260   19.591164   20.038961 H          1 MOL1         0.0947
       8    C3      19.189084   20.038969   21.912170 C.3        1 MOL1        -0.1437
       9    H6      19.872835   20.486849   22.641557 H          1 MOL1         0.0947
      10    H7      18.831175   20.880270   21.302764 H          1 MOL1         0.0947
      11    C4      17.948239   19.414311   22.608510 C.3        1 MOL1        -0.1437
      12    H8      17.263796   19.069792   21.820999 H          1 MOL1         0.0947
      13    H9      17.398973   20.197375   23.148837 H          1 MOL1         0.0947
      14    C5      18.221516   18.222681   23.565901 C.3        1 MOL1        -0.1437
      15    H10     17.333020   17.576433   23.552818 H          1 MOL1         0.0947
      16    H11     19.034409   17.593820   23.186497 H          1 MOL1         0.0947
      17    C6      18.482017   18.603979   25.046584 C.3        1 MOL1        -0.1437
      18    H12     18.586712   17.672167   25.617432 H          1 MOL1         0.0947
      19    H13     17.596488   19.111600   25.453305 H          1 MOL1         0.0947
      20    C7      19.728502   19.491532   25.277987 C.3        1 MOL1        -0.1477
      21    H14     20.602505   19.060571   24.772865 H          1 MOL1         0.0947
      22    H15     19.555624   20.480510   24.837713 H          1 MOL1         0.0947
      23    C8      20.045180   19.695095   26.772144 C.3        1 MOL1         0.0145
      24    H16     19.164657   20.091715   27.284739 H          1 MOL1         0.0921
      25    H17     20.855564   20.421973   26.874336 H          1 MOL1         0.0921
      26    N1      20.475373   18.427883   27.484813 N.4        1 MOL1        -0.5969
      27    H18     19.743812   17.710803   27.458998 H          1 MOL1         0.3603
      28    H19     20.691252   18.601500   28.472638 H          1 MOL1         0.3603
      29    H20     21.315304   18.019849   27.061502 H          1 MOL1         0.3603
@<TRIPOS>BOND
    1     1     2    1
    2     1     3    1
    3     1     4    1
    4     1     5    1
    5     5     6    1
    6     5     7    1
    7     5     8    1
    8     8     9    1
    9     8    10    1
   10     8    11    1
   11    11    12    1
   12    11    13    1
   13    11    14    1
   14    14    15    1
   15    14    16    1
   16    14    17    1
   17    17    18    1
   18    17    19    1
   19    17    20    1
   20    20    21    1
   21    20    22    1
   22    20    23    1
   23    23    24    1
   24    23    25    1
   25    23    26    1
   26    26    27    1
   27    26    28    1
   28    26    29    1
@<TRIPOS>SUBSTRUCTURE
       1 MOL1            1 RESIDUE      1      MOL     
@<SCITEGIC>MOL_PROPERTY
VM2 Rank
SciTegic.value.IntegerValue
464

@<SCITEGIC>MOL_PROPERTY
Conf_Id
SciTegic.value.IntegerValue
556

@<SCITEGIC>MOL_PROPERTY
Probability
SciTegic.value.DoubleValue
0.00

@<SCITEGIC>MOL_PROPERTY
Sum Probability
SciTegic.value.DoubleValue
100.00

@<SCITEGIC>MOL_PROPERTY
Delta G
SciTegic.value.DoubleValue
7.717

@<SCITEGIC>MOL_PROPERTY
G
SciTegic.value.DoubleValue
65.865

@<SCITEGIC>MOL_PROPERTY
E
SciTegic.value.DoubleValue
27.810

@<SCITEGIC>MOL_PROPERTY
-TS
SciTegic.value.DoubleValue
38.055

@<SCITEGIC>MOL_PROPERTY
U+W
SciTegic.value.DoubleValue
3.665

@<SCITEGIC>MOL_PROPERTY
U
SciTegic.value.DoubleValue
56.009

@<SCITEGIC>MOL_PROPERTY
W
SciTegic.value.DoubleValue
-52.344

@<SCITEGIC>MOL_PROPERTY
W(PB)
SciTegic.value.DoubleValue
-54.711

@<SCITEGIC>MOL_PROPERTY
W(SA)
SciTegic.value.DoubleValue
2.367

@<SCITEGIC>MOL_PROPERTY
Valence
SciTegic.value.DoubleValue
9.385

@<SCITEGIC>MOL_PROPERTY
Coulomb
SciTegic.value.DoubleValue
45.773

@<SCITEGIC>MOL_PROPERTY
VdW
SciTegic.value.DoubleValue
0.851

@<SCITEGIC>MOL_PROPERTY
VdW6
SciTegic.value.DoubleValue
-10.858

@<SCITEGIC>MOL_PROPERTY
VdW12
SciTegic.value.DoubleValue
11.708

@<SCITEGIC>MOL_PROPERTY
Bond
SciTegic.value.DoubleValue
0.370

@<SCITEGIC>MOL_PROPERTY
Angle
SciTegic.value.DoubleValue
2.540

@<SCITEGIC>MOL_PROPERTY
Pdih
SciTegic.value.DoubleValue
6.476

@<SCITEGIC>MOL_PROPERTY
Idih
SciTegic.value.DoubleValue
0.000

@<SCITEGIC>MOL_PROPERTY
Tether
SciTegic.value.DoubleValue
0.000

@<TRIPOS>MOLECULE
guest-3_vm2.mol2 : vm2 ligand conformer 465
          29          28           1
SMALL
USER_CHARGES
 
@<TRIPOS>ATOM
       1    C1      21.298924   18.980016   21.792049 C.3        1 MOL1        -0.2427
       2    H1      22.073797   18.614304   21.105981 H          1 MOL1         0.0958
       3    H2      21.690417   19.879167   22.284741 H          1 MOL1         0.0958
       4    H3      21.146849   18.208401   22.553004 H          1 MOL1         0.0958
       5    C2      20.000426   19.293885   21.015705 C.3        1 MOL1        -0.1412
       6    H4      19.635909   18.390105   20.508154 H          1 MOL1         0.0947
       7    H5      20.254171   20.004405   20.216532 H          1 MOL1         0.0947
       8    C3      18.872265   19.918146   21.879115 C.3        1 MOL1        -0.1437
       9    H6      19.283204   20.568528   22.659587 H          1 MOL1         0.0947
      10    H7      18.300630   20.591029   21.225052 H          1 MOL1         0.0947
      11    C4      17.856642   18.902417   22.466639 C.3        1 MOL1        -0.1437
      12    H8      17.479187   18.277566   21.645591 H          1 MOL1         0.0947
      13    H9      16.981587   19.457291   22.831900 H          1 MOL1         0.0947
      14    C5      18.353728   17.970704   23.603684 C.3        1 MOL1        -0.1437
      15    H10     17.566062   17.221208   23.762512 H          1 MOL1         0.0947
      16    H11     19.230875   17.393457   23.290131 H          1 MOL1         0.0947
      17    C6      18.599345   18.671520   24.966654 C.3        1 MOL1        -0.1437
      18    H12     18.321309   17.965777   25.760595 H          1 MOL1         0.0947
      19    H13     17.923742   19.530939   25.076107 H          1 MOL1         0.0947
      20    C7      20.065579   19.112590   25.198863 C.3        1 MOL1        -0.1477
      21    H14     20.734816   18.245398   25.124503 H          1 MOL1         0.0947
      22    H15     20.375586   19.814525   24.419104 H          1 MOL1         0.0947
      23    C8      20.269304   19.800160   26.562615 C.3        1 MOL1         0.0145
      24    H16     19.593417   20.655279   26.648211 H          1 MOL1         0.0921
      25    H17     21.296303   20.168815   26.632558 H          1 MOL1         0.0921
      26    N1      20.027786   18.888561   27.749677 N.4        1 MOL1        -0.5969
      27    H18     19.066350   18.534254   27.766104 H          1 MOL1         0.3603
      28    H19     20.184757   19.373378   28.640089 H          1 MOL1         0.3603
      29    H20     20.651109   18.074610   27.737353 H          1 MOL1         0.3603
@<TRIPOS>BOND
    1     1     2    1
    2     1     3    1
    3     1     4    1
    4     1     5    1
    5     5     6    1
    6     5     7    1
    7     5     8    1
    8     8     9    1
    9     8    10    1
   10     8    11    1
   11    11    12    1
   12    11    13    1
   13    11    14    1
   14    14    15    1
   15    14    16    1
   16    14    17    1
   17    17    18    1
   18    17    19    1
   19    17    20    1
   20    20    21    1
   21    20    22    1
   22    20    23    1
   23    23    24    1
   24    23    25    1
   25    23    26    1
   26    26    27    1
   27    26    28    1
   28    26    29    1
@<TRIPOS>SUBSTRUCTURE
       1 MOL1            1 RESIDUE      1      MOL     
@<SCITEGIC>MOL_PROPERTY
VM2 Rank
SciTegic.value.IntegerValue
465

@<SCITEGIC>MOL_PROPERTY
Conf_Id
SciTegic.value.IntegerValue
540

@<SCITEGIC>MOL_PROPERTY
Probability
SciTegic.value.DoubleValue
0.00

@<SCITEGIC>MOL_PROPERTY
Sum Probability
SciTegic.value.DoubleValue
100.00

@<SCITEGIC>MOL_PROPERTY
Delta G
SciTegic.value.DoubleValue
7.825

@<SCITEGIC>MOL_PROPERTY
G
SciTegic.value.DoubleValue
65.973

@<SCITEGIC>MOL_PROPERTY
E
SciTegic.value.DoubleValue
27.739

@<SCITEGIC>MOL_PROPERTY
-TS
SciTegic.value.DoubleValue
38.234

@<SCITEGIC>MOL_PROPERTY
U+W
SciTegic.value.DoubleValue
3.595

@<SCITEGIC>MOL_PROPERTY
U
SciTegic.value.DoubleValue
55.967

@<SCITEGIC>MOL_PROPERTY
W
SciTegic.value.DoubleValue
-52.373

@<SCITEGIC>MOL_PROPERTY
W(PB)
SciTegic.value.DoubleValue
-54.702

@<SCITEGIC>MOL_PROPERTY
W(SA)
SciTegic.value.DoubleValue
2.329

@<SCITEGIC>MOL_PROPERTY
Valence
SciTegic.value.DoubleValue
9.671

@<SCITEGIC>MOL_PROPERTY
Coulomb
SciTegic.value.DoubleValue
45.821

@<SCITEGIC>MOL_PROPERTY
VdW
SciTegic.value.DoubleValue
0.475

@<SCITEGIC>MOL_PROPERTY
VdW6
SciTegic.value.DoubleValue
-11.065

@<SCITEGIC>MOL_PROPERTY
VdW12
SciTegic.value.DoubleValue
11.540

@<SCITEGIC>MOL_PROPERTY
Bond
SciTegic.value.DoubleValue
0.362

@<SCITEGIC>MOL_PROPERTY
Angle
SciTegic.value.DoubleValue
3.136

@<SCITEGIC>MOL_PROPERTY
Pdih
SciTegic.value.DoubleValue
6.173

@<SCITEGIC>MOL_PROPERTY
Idih
SciTegic.value.DoubleValue
0.000

@<SCITEGIC>MOL_PROPERTY
Tether
SciTegic.value.DoubleValue
0.000

@<TRIPOS>MOLECULE
guest-3_vm2.mol2 : vm2 ligand conformer 466
          29          28           1
SMALL
USER_CHARGES
 
@<TRIPOS>ATOM
       1    C1      20.674598   19.674914   20.689036 C.3        1 MOL1        -0.2427
       2    H1      21.441137   20.101042   21.349191 H          1 MOL1         0.0958
       3    H2      21.102761   19.601295   19.680992 H          1 MOL1         0.0958
       4    H3      19.833800   20.377767   20.639504 H          1 MOL1         0.0958
       5    C2      20.222847   18.283523   21.187449 C.3        1 MOL1        -0.1412
       6    H4      21.068737   17.586722   21.105706 H          1 MOL1         0.0947
       7    H5      19.436728   17.891191   20.527293 H          1 MOL1         0.0947
       8    C3      19.723769   18.289568   22.652229 C.3        1 MOL1        -0.1437
       9    H6      19.535353   17.250955   22.955905 H          1 MOL1         0.0947
      10    H7      20.526227   18.664234   23.295927 H          1 MOL1         0.0947
      11    C4      18.430078   19.118667   22.854060 C.3        1 MOL1        -0.1437
      12    H8      17.684214   18.761760   22.130468 H          1 MOL1         0.0947
      13    H9      18.604919   20.174841   22.611346 H          1 MOL1         0.0947
      14    C5      17.816030   19.003521   24.274643 C.3        1 MOL1        -0.1437
      15    H10     16.724221   19.058428   24.162691 H          1 MOL1         0.0947
      16    H11     18.002434   18.013865   24.706295 H          1 MOL1         0.0947
      17    C6      18.219419   20.136293   25.257027 C.3        1 MOL1        -0.1437
      18    H12     17.599943   20.053452   26.160766 H          1 MOL1         0.0947
      19    H13     17.944955   21.098399   24.802882 H          1 MOL1         0.0947
      20    C7      19.707982   20.207118   25.686868 C.3        1 MOL1        -0.1477
      21    H14     20.371783   20.264792   24.817204 H          1 MOL1         0.0947
      22    H15     19.849150   21.156342   26.220503 H          1 MOL1         0.0947
      23    C8      20.149506   19.082105   26.646902 C.3        1 MOL1         0.0145
      24    H16     19.391473   18.944532   27.422560 H          1 MOL1         0.0921
      25    H17     21.082106   19.376733   27.135639 H          1 MOL1         0.0921
      26    N1      20.399770   17.742290   25.986786 N.4        1 MOL1        -0.5969
      27    H18     19.565629   17.403555   25.499464 H          1 MOL1         0.3603
      28    H19     20.664691   17.026073   26.672113 H          1 MOL1         0.3603
      29    H20     21.157861   17.795104   25.299289 H          1 MOL1         0.3603
@<TRIPOS>BOND
    1     1     2    1
    2     1     3    1
    3     1     4    1
    4     1     5    1
    5     5     6    1
    6     5     7    1
    7     5     8    1
    8     8     9    1
    9     8    10    1
   10     8    11    1
   11    11    12    1
   12    11    13    1
   13    11    14    1
   14    14    15    1
   15    14    16    1
   16    14    17    1
   17    17    18    1
   18    17    19    1
   19    17    20    1
   20    20    21    1
   21    20    22    1
   22    20    23    1
   23    23    24    1
   24    23    25    1
   25    23    26    1
   26    26    27    1
   27    26    28    1
   28    26    29    1
@<TRIPOS>SUBSTRUCTURE
       1 MOL1            1 RESIDUE      1      MOL     
@<SCITEGIC>MOL_PROPERTY
VM2 Rank
SciTegic.value.IntegerValue
466

@<SCITEGIC>MOL_PROPERTY
Conf_Id
SciTegic.value.IntegerValue
262

@<SCITEGIC>MOL_PROPERTY
Probability
SciTegic.value.DoubleValue
0.00

@<SCITEGIC>MOL_PROPERTY
Sum Probability
SciTegic.value.DoubleValue
100.00

@<SCITEGIC>MOL_PROPERTY
Delta G
SciTegic.value.DoubleValue
8.127

@<SCITEGIC>MOL_PROPERTY
G
SciTegic.value.DoubleValue
66.275

@<SCITEGIC>MOL_PROPERTY
E
SciTegic.value.DoubleValue
28.285

@<SCITEGIC>MOL_PROPERTY
-TS
SciTegic.value.DoubleValue
37.990

@<SCITEGIC>MOL_PROPERTY
U+W
SciTegic.value.DoubleValue
4.140

@<SCITEGIC>MOL_PROPERTY
U
SciTegic.value.DoubleValue
56.628

@<SCITEGIC>MOL_PROPERTY
W
SciTegic.value.DoubleValue
-52.488

@<SCITEGIC>MOL_PROPERTY
W(PB)
SciTegic.value.DoubleValue
-54.837

@<SCITEGIC>MOL_PROPERTY
W(SA)
SciTegic.value.DoubleValue
2.349

@<SCITEGIC>MOL_PROPERTY
Valence
SciTegic.value.DoubleValue
8.172

@<SCITEGIC>MOL_PROPERTY
Coulomb
SciTegic.value.DoubleValue
48.207

@<SCITEGIC>MOL_PROPERTY
VdW
SciTegic.value.DoubleValue
0.250

@<SCITEGIC>MOL_PROPERTY
VdW6
SciTegic.value.DoubleValue
-11.355

@<SCITEGIC>MOL_PROPERTY
VdW12
SciTegic.value.DoubleValue
11.605

@<SCITEGIC>MOL_PROPERTY
Bond
SciTegic.value.DoubleValue
0.346

@<SCITEGIC>MOL_PROPERTY
Angle
SciTegic.value.DoubleValue
2.767

@<SCITEGIC>MOL_PROPERTY
Pdih
SciTegic.value.DoubleValue
5.058

@<SCITEGIC>MOL_PROPERTY
Idih
SciTegic.value.DoubleValue
0.000

@<SCITEGIC>MOL_PROPERTY
Tether
SciTegic.value.DoubleValue
0.000

@<TRIPOS>MOLECULE
guest-3_vm2.mol2 : vm2 ligand conformer 467
          29          28           1
SMALL
USER_CHARGES
 
@<TRIPOS>ATOM
       1    C1      20.483722   17.984727   20.278711 C.3        1 MOL1        -0.2427
       2    H1      19.644934   17.513395   19.749978 H          1 MOL1         0.0958
       3    H2      20.755727   18.901638   19.739656 H          1 MOL1         0.0958
       4    H3      21.339783   17.299203   20.230890 H          1 MOL1         0.0958
       5    C2      20.113364   18.292889   21.744709 C.3        1 MOL1        -0.1412
       6    H4      20.988503   18.725397   22.246858 H          1 MOL1         0.0947
       7    H5      19.875688   17.352289   22.260028 H          1 MOL1         0.0947
       8    C3      18.907732   19.258381   21.833849 C.3        1 MOL1        -0.1437
       9    H6      19.149832   20.203839   21.328978 H          1 MOL1         0.0947
      10    H7      18.064106   18.822510   21.280865 H          1 MOL1         0.0947
      11    C4      18.446794   19.547653   23.283025 C.3        1 MOL1        -0.1437
      12    H8      18.225616   18.603833   23.794662 H          1 MOL1         0.0947
      13    H9      17.491324   20.088503   23.237490 H          1 MOL1         0.0947
      14    C5      19.454445   20.405768   24.091989 C.3        1 MOL1        -0.1437
      15    H10     20.460721   19.970017   24.084070 H          1 MOL1         0.0947
      16    H11     19.549413   21.377142   23.587057 H          1 MOL1         0.0947
      17    C6      19.001402   20.656891   25.553212 C.3        1 MOL1        -0.1437
      18    H12     17.904616   20.642363   25.618097 H          1 MOL1         0.0947
      19    H13     19.297927   21.678025   25.830378 H          1 MOL1         0.0947
      20    C7      19.606188   19.695515   26.611157 C.3        1 MOL1        -0.1477
      21    H14     20.698131   19.807442   26.643330 H          1 MOL1         0.0947
      22    H15     19.244159   20.012579   27.598185 H          1 MOL1         0.0947
      23    C8      19.239798   18.208598   26.432402 C.3        1 MOL1         0.0145
      24    H16     18.189456   18.116881   26.143444 H          1 MOL1         0.0921
      25    H17     19.377690   17.688766   27.384358 H          1 MOL1         0.0921
      26    N1      20.090555   17.487579   25.405945 N.4        1 MOL1        -0.5969
      27    H18     20.013437   17.933937   24.485924 H          1 MOL1         0.3603
      28    H19     19.810131   16.505947   25.301594 H          1 MOL1         0.3603
      29    H20     21.082046   17.490594   25.668386 H          1 MOL1         0.3603
@<TRIPOS>BOND
    1     1     2    1
    2     1     3    1
    3     1     4    1
    4     1     5    1
    5     5     6    1
    6     5     7    1
    7     5     8    1
    8     8     9    1
    9     8    10    1
   10     8    11    1
   11    11    12    1
   12    11    13    1
   13    11    14    1
   14    14    15    1
   15    14    16    1
   16    14    17    1
   17    17    18    1
   18    17    19    1
   19    17    20    1
   20    20    21    1
   21    20    22    1
   22    20    23    1
   23    23    24    1
   24    23    25    1
   25    23    26    1
   26    26    27    1
   27    26    28    1
   28    26    29    1
@<TRIPOS>SUBSTRUCTURE
       1 MOL1            1 RESIDUE      1      MOL     
@<SCITEGIC>MOL_PROPERTY
VM2 Rank
SciTegic.value.IntegerValue
467

@<SCITEGIC>MOL_PROPERTY
Conf_Id
SciTegic.value.IntegerValue
997

@<SCITEGIC>MOL_PROPERTY
Probability
SciTegic.value.DoubleValue
0.00

@<SCITEGIC>MOL_PROPERTY
Sum Probability
SciTegic.value.DoubleValue
100.00

@<SCITEGIC>MOL_PROPERTY
Delta G
SciTegic.value.DoubleValue
8.415

@<SCITEGIC>MOL_PROPERTY
G
SciTegic.value.DoubleValue
66.563

@<SCITEGIC>MOL_PROPERTY
E
SciTegic.value.DoubleValue
28.296

@<SCITEGIC>MOL_PROPERTY
-TS
SciTegic.value.DoubleValue
38.266

@<SCITEGIC>MOL_PROPERTY
U+W
SciTegic.value.DoubleValue
4.152

@<SCITEGIC>MOL_PROPERTY
U
SciTegic.value.DoubleValue
55.609

@<SCITEGIC>MOL_PROPERTY
W
SciTegic.value.DoubleValue
-51.457

@<SCITEGIC>MOL_PROPERTY
W(PB)
SciTegic.value.DoubleValue
-53.817

@<SCITEGIC>MOL_PROPERTY
W(SA)
SciTegic.value.DoubleValue
2.360

@<SCITEGIC>MOL_PROPERTY
Valence
SciTegic.value.DoubleValue
7.220

@<SCITEGIC>MOL_PROPERTY
Coulomb
SciTegic.value.DoubleValue
48.045

@<SCITEGIC>MOL_PROPERTY
VdW
SciTegic.value.DoubleValue
0.344

@<SCITEGIC>MOL_PROPERTY
VdW6
SciTegic.value.DoubleValue
-11.198

@<SCITEGIC>MOL_PROPERTY
VdW12
SciTegic.value.DoubleValue
11.542

@<SCITEGIC>MOL_PROPERTY
Bond
SciTegic.value.DoubleValue
0.291

@<SCITEGIC>MOL_PROPERTY
Angle
SciTegic.value.DoubleValue
1.803

@<SCITEGIC>MOL_PROPERTY
Pdih
SciTegic.value.DoubleValue
5.125

@<SCITEGIC>MOL_PROPERTY
Idih
SciTegic.value.DoubleValue
0.000

@<SCITEGIC>MOL_PROPERTY
Tether
SciTegic.value.DoubleValue
0.000

@<TRIPOS>MOLECULE
guest-3_vm2.mol2 : vm2 ligand conformer 468
          29          28           1
SMALL
USER_CHARGES
 
@<TRIPOS>ATOM
       1    C1      20.136951   19.242462   20.396069 C.3        1 MOL1        -0.2427
       2    H1      20.123661   20.282134   20.745637 H          1 MOL1         0.0958
       3    H2      21.063484   18.768592   20.745172 H          1 MOL1         0.0958
       4    H3      20.163392   19.265070   19.298974 H          1 MOL1         0.0958
       5    C2      18.895529   18.468299   20.890451 C.3        1 MOL1        -0.1412
       6    H4      18.870085   17.488519   20.393380 H          1 MOL1         0.0947
       7    H5      17.985168   18.995118   20.572020 H          1 MOL1         0.0947
       8    C3      18.859058   18.244249   22.423378 C.3        1 MOL1        -0.1437
       9    H6      17.972040   17.635931   22.647490 H          1 MOL1         0.0947
      10    H7      19.720446   17.635464   22.724785 H          1 MOL1         0.0947
      11    C4      18.776298   19.549812   23.261302 C.3        1 MOL1        -0.1437
      12    H8      18.087636   19.391511   24.097363 H          1 MOL1         0.0947
      13    H9      18.308376   20.337699   22.655380 H          1 MOL1         0.0947
      14    C5      20.140296   20.065163   23.797470 C.3        1 MOL1        -0.1437
      15    H10     20.842785   20.141645   22.958810 H          1 MOL1         0.0947
      16    H11     20.018853   21.091713   24.169200 H          1 MOL1         0.0947
      17    C6      20.797139   19.195765   24.905422 C.3        1 MOL1        -0.1437
      18    H12     21.884756   19.335683   24.836436 H          1 MOL1         0.0947
      19    H13     20.632395   18.127540   24.721000 H          1 MOL1         0.0947
      20    C7      20.380877   19.563902   26.354544 C.3        1 MOL1        -0.1477
      21    H14     20.995084   18.986090   27.057878 H          1 MOL1         0.0947
      22    H15     20.618952   20.619110   26.543072 H          1 MOL1         0.0947
      23    C8      18.896399   19.325118   26.689287 C.3        1 MOL1         0.0145
      24    H16     18.267953   19.953079   26.053721 H          1 MOL1         0.0921
      25    H17     18.710160   19.606256   27.729334 H          1 MOL1         0.0921
      26    N1      18.461454   17.883230   26.517077 N.4        1 MOL1        -0.5969
      27    H18     18.996620   17.251618   27.121983 H          1 MOL1         0.3603
      28    H19     18.594406   17.565905   25.551723 H          1 MOL1         0.3603
      29    H20     17.470461   17.753385   26.748381 H          1 MOL1         0.3603
@<TRIPOS>BOND
    1     1     2    1
    2     1     3    1
    3     1     4    1
    4     1     5    1
    5     5     6    1
    6     5     7    1
    7     5     8    1
    8     8     9    1
    9     8    10    1
   10     8    11    1
   11    11    12    1
   12    11    13    1
   13    11    14    1
   14    14    15    1
   15    14    16    1
   16    14    17    1
   17    17    18    1
   18    17    19    1
   19    17    20    1
   20    20    21    1
   21    20    22    1
   22    20    23    1
   23    23    24    1
   24    23    25    1
   25    23    26    1
   26    26    27    1
   27    26    28    1
   28    26    29    1
@<TRIPOS>SUBSTRUCTURE
       1 MOL1            1 RESIDUE      1      MOL     
@<SCITEGIC>MOL_PROPERTY
VM2 Rank
SciTegic.value.IntegerValue
468

@<SCITEGIC>MOL_PROPERTY
Conf_Id
SciTegic.value.IntegerValue
651

@<SCITEGIC>MOL_PROPERTY
Probability
SciTegic.value.DoubleValue
0.00

@<SCITEGIC>MOL_PROPERTY
Sum Probability
SciTegic.value.DoubleValue
100.00

@<SCITEGIC>MOL_PROPERTY
Delta G
SciTegic.value.DoubleValue
8.546

@<SCITEGIC>MOL_PROPERTY
G
SciTegic.value.DoubleValue
66.694

@<SCITEGIC>MOL_PROPERTY
E
SciTegic.value.DoubleValue
28.467

@<SCITEGIC>MOL_PROPERTY
-TS
SciTegic.value.DoubleValue
38.227

@<SCITEGIC>MOL_PROPERTY
U+W
SciTegic.value.DoubleValue
4.322

@<SCITEGIC>MOL_PROPERTY
U
SciTegic.value.DoubleValue
56.716

@<SCITEGIC>MOL_PROPERTY
W
SciTegic.value.DoubleValue
-52.394

@<SCITEGIC>MOL_PROPERTY
W(PB)
SciTegic.value.DoubleValue
-54.778

@<SCITEGIC>MOL_PROPERTY
W(SA)
SciTegic.value.DoubleValue
2.384

@<SCITEGIC>MOL_PROPERTY
Valence
SciTegic.value.DoubleValue
9.142

@<SCITEGIC>MOL_PROPERTY
Coulomb
SciTegic.value.DoubleValue
46.790

@<SCITEGIC>MOL_PROPERTY
VdW
SciTegic.value.DoubleValue
0.784

@<SCITEGIC>MOL_PROPERTY
VdW6
SciTegic.value.DoubleValue
-11.643

@<SCITEGIC>MOL_PROPERTY
VdW12
SciTegic.value.DoubleValue
12.426

@<SCITEGIC>MOL_PROPERTY
Bond
SciTegic.value.DoubleValue
0.409

@<SCITEGIC>MOL_PROPERTY
Angle
SciTegic.value.DoubleValue
2.394

@<SCITEGIC>MOL_PROPERTY
Pdih
SciTegic.value.DoubleValue
6.340

@<SCITEGIC>MOL_PROPERTY
Idih
SciTegic.value.DoubleValue
0.000

@<SCITEGIC>MOL_PROPERTY
Tether
SciTegic.value.DoubleValue
0.000

@<TRIPOS>MOLECULE
guest-3_vm2.mol2 : vm2 ligand conformer 469
          29          28           1
SMALL
USER_CHARGES
 
@<TRIPOS>ATOM
       1    C1      21.234201   18.253040   22.298247 C.3        1 MOL1        -0.2427
       2    H1      20.920988   18.048869   23.326948 H          1 MOL1         0.0958
       3    H2      21.188142   17.310616   21.737302 H          1 MOL1         0.0958
       4    H3      22.282327   18.577927   22.323117 H          1 MOL1         0.0958
       5    C2      20.346371   19.330723   21.637441 C.3        1 MOL1        -0.1412
       6    H4      20.722069   19.516960   20.621703 H          1 MOL1         0.0947
       7    H5      20.443202   20.285099   22.170062 H          1 MOL1         0.0947
       8    C3      18.857766   18.917071   21.543626 C.3        1 MOL1        -0.1437
       9    H6      18.322398   19.661160   20.937998 H          1 MOL1         0.0947
      10    H7      18.788995   17.974351   20.983593 H          1 MOL1         0.0947
      11    C4      18.116778   18.747782   22.897519 C.3        1 MOL1        -0.1437
      12    H8      18.577197   17.954847   23.494090 H          1 MOL1         0.0947
      13    H9      17.106833   18.381416   22.667634 H          1 MOL1         0.0947
      14    C5      17.965817   20.058480   23.715607 C.3        1 MOL1        -0.1437
      15    H10     17.961509   20.913452   23.025723 H          1 MOL1         0.0947
      16    H11     16.973427   20.067468   24.186936 H          1 MOL1         0.0947
      17    C6      19.031381   20.302181   24.818845 C.3        1 MOL1        -0.1437
      18    H12     18.928282   21.348035   25.139480 H          1 MOL1         0.0947
      19    H13     20.045681   20.222422   24.412624 H          1 MOL1         0.0947
      20    C7      18.865484   19.411464   26.080853 C.3        1 MOL1        -0.1477
      21    H14     19.137710   19.997777   26.968629 H          1 MOL1         0.0947
      22    H15     17.808862   19.144961   26.214660 H          1 MOL1         0.0947
      23    C8      19.717636   18.126453   26.079539 C.3        1 MOL1         0.0145
      24    H16     19.523903   17.540779   25.179568 H          1 MOL1         0.0921
      25    H17     19.445953   17.515195   26.944429 H          1 MOL1         0.0921
      26    N1      21.208567   18.390806   26.163322 N.4        1 MOL1        -0.5969
      27    H18     21.454324   18.899248   27.019224 H          1 MOL1         0.3603
      28    H19     21.540365   18.951669   25.372743 H          1 MOL1         0.3603
      29    H20     21.750075   17.519414   26.167904 H          1 MOL1         0.3603
@<TRIPOS>BOND
    1     1     2    1
    2     1     3    1
    3     1     4    1
    4     1     5    1
    5     5     6    1
    6     5     7    1
    7     5     8    1
    8     8     9    1
    9     8    10    1
   10     8    11    1
   11    11    12    1
   12    11    13    1
   13    11    14    1
   14    14    15    1
   15    14    16    1
   16    14    17    1
   17    17    18    1
   18    17    19    1
   19    17    20    1
   20    20    21    1
   21    20    22    1
   22    20    23    1
   23    23    24    1
   24    23    25    1
   25    23    26    1
   26    26    27    1
   27    26    28    1
   28    26    29    1
@<TRIPOS>SUBSTRUCTURE
       1 MOL1            1 RESIDUE      1      MOL     
@<SCITEGIC>MOL_PROPERTY
VM2 Rank
SciTegic.value.IntegerValue
469

@<SCITEGIC>MOL_PROPERTY
Conf_Id
SciTegic.value.IntegerValue
296

@<SCITEGIC>MOL_PROPERTY
Probability
SciTegic.value.DoubleValue
0.00

@<SCITEGIC>MOL_PROPERTY
Sum Probability
SciTegic.value.DoubleValue
100.00

@<SCITEGIC>MOL_PROPERTY
Delta G
SciTegic.value.DoubleValue
9.092

@<SCITEGIC>MOL_PROPERTY
G
SciTegic.value.DoubleValue
67.240

@<SCITEGIC>MOL_PROPERTY
E
SciTegic.value.DoubleValue
28.935

@<SCITEGIC>MOL_PROPERTY
-TS
SciTegic.value.DoubleValue
38.306

@<SCITEGIC>MOL_PROPERTY
U+W
SciTegic.value.DoubleValue
4.790

@<SCITEGIC>MOL_PROPERTY
U
SciTegic.value.DoubleValue
57.570

@<SCITEGIC>MOL_PROPERTY
W
SciTegic.value.DoubleValue
-52.780

@<SCITEGIC>MOL_PROPERTY
W(PB)
SciTegic.value.DoubleValue
-55.080

@<SCITEGIC>MOL_PROPERTY
W(SA)
SciTegic.value.DoubleValue
2.299

@<SCITEGIC>MOL_PROPERTY
Valence
SciTegic.value.DoubleValue
9.916

@<SCITEGIC>MOL_PROPERTY
Coulomb
SciTegic.value.DoubleValue
47.457

@<SCITEGIC>MOL_PROPERTY
VdW
SciTegic.value.DoubleValue
0.197

@<SCITEGIC>MOL_PROPERTY
VdW6
SciTegic.value.DoubleValue
-12.159

@<SCITEGIC>MOL_PROPERTY
VdW12
SciTegic.value.DoubleValue
12.355

@<SCITEGIC>MOL_PROPERTY
Bond
SciTegic.value.DoubleValue
0.395

@<SCITEGIC>MOL_PROPERTY
Angle
SciTegic.value.DoubleValue
2.715

@<SCITEGIC>MOL_PROPERTY
Pdih
SciTegic.value.DoubleValue
6.807

@<SCITEGIC>MOL_PROPERTY
Idih
SciTegic.value.DoubleValue
0.000

@<SCITEGIC>MOL_PROPERTY
Tether
SciTegic.value.DoubleValue
0.000

@<TRIPOS>MOLECULE
guest-3_vm2.mol2 : vm2 ligand conformer 470
          29          28           1
SMALL
USER_CHARGES
 
@<TRIPOS>ATOM
       1    C1      19.768027   20.676890   21.439548 C.3        1 MOL1        -0.2427
       2    H1      19.099152   21.383716   20.931827 H          1 MOL1         0.0958
       3    H2      19.780601   20.938274   22.504214 H          1 MOL1         0.0958
       4    H3      20.779536   20.827649   21.040773 H          1 MOL1         0.0958
       5    C2      19.294876   19.223181   21.209293 C.3        1 MOL1        -0.1412
       6    H4      19.243556   19.041351   20.126770 H          1 MOL1         0.0947
       7    H5      18.271067   19.092327   21.582967 H          1 MOL1         0.0947
       8    C3      20.236377   18.168187   21.840201 C.3        1 MOL1        -0.1437
       9    H6      19.926445   17.169415   21.503313 H          1 MOL1         0.0947
      10    H7      21.248297   18.315433   21.438372 H          1 MOL1         0.0947
      11    C4      20.309250   18.175200   23.390690 C.3        1 MOL1        -0.1437
      12    H8      20.656844   19.152929   23.744885 H          1 MOL1         0.0947
      13    H9      21.087920   17.456650   23.681162 H          1 MOL1         0.0947
      14    C5      18.986292   17.760587   24.093014 C.3        1 MOL1        -0.1437
      15    H10     18.424084   17.096215   23.422413 H          1 MOL1         0.0947
      16    H11     19.208756   17.147276   24.976468 H          1 MOL1         0.0947
      17    C6      18.073272   18.943300   24.513284 C.3        1 MOL1        -0.1437
      18    H12     17.029719   18.610675   24.426639 H          1 MOL1         0.0947
      19    H13     18.172869   19.779146   23.811209 H          1 MOL1         0.0947
      20    C7      18.276393   19.456605   25.963758 C.3        1 MOL1        -0.1477
      21    H14     17.518808   20.228125   26.155089 H          1 MOL1         0.0947
      22    H15     18.072349   18.652435   26.683145 H          1 MOL1         0.0947
      23    C8      19.658137   20.077414   26.250481 C.3        1 MOL1         0.0145
      24    H16     19.585930   20.721293   27.131193 H          1 MOL1         0.0921
      25    H17     19.971489   20.693245   25.403356 H          1 MOL1         0.0921
      26    N1      20.741376   19.056636   26.534731 N.4        1 MOL1        -0.5969
      27    H18     20.853074   18.408040   25.749177 H          1 MOL1         0.3603
      28    H19     20.524166   18.496026   27.365409 H          1 MOL1         0.3603
      29    H20     21.650870   19.501329   26.701405 H          1 MOL1         0.3603
@<TRIPOS>BOND
    1     1     2    1
    2     1     3    1
    3     1     4    1
    4     1     5    1
    5     5     6    1
    6     5     7    1
    7     5     8    1
    8     8     9    1
    9     8    10    1
   10     8    11    1
   11    11    12    1
   12    11    13    1
   13    11    14    1
   14    14    15    1
   15    14    16    1
   16    14    17    1
   17    17    18    1
   18    17    19    1
   19    17    20    1
   20    20    21    1
   21    20    22    1
   22    20    23    1
   23    23    24    1
   24    23    25    1
   25    23    26    1
   26    26    27    1
   27    26    28    1
   28    26    29    1
@<TRIPOS>SUBSTRUCTURE
       1 MOL1            1 RESIDUE      1      MOL     
@<SCITEGIC>MOL_PROPERTY
VM2 Rank
SciTegic.value.IntegerValue
470

@<SCITEGIC>MOL_PROPERTY
Conf_Id
SciTegic.value.IntegerValue
1307

@<SCITEGIC>MOL_PROPERTY
Probability
SciTegic.value.DoubleValue
0.00

@<SCITEGIC>MOL_PROPERTY
Sum Probability
SciTegic.value.DoubleValue
100.00

@<SCITEGIC>MOL_PROPERTY
Delta G
SciTegic.value.DoubleValue
9.969

@<SCITEGIC>MOL_PROPERTY
G
SciTegic.value.DoubleValue
68.117

@<SCITEGIC>MOL_PROPERTY
E
SciTegic.value.DoubleValue
29.277

@<SCITEGIC>MOL_PROPERTY
-TS
SciTegic.value.DoubleValue
38.841

@<SCITEGIC>MOL_PROPERTY
U+W
SciTegic.value.DoubleValue
5.132

@<SCITEGIC>MOL_PROPERTY
U
SciTegic.value.DoubleValue
57.506

@<SCITEGIC>MOL_PROPERTY
W
SciTegic.value.DoubleValue
-52.374

@<SCITEGIC>MOL_PROPERTY
W(PB)
SciTegic.value.DoubleValue
-54.698

@<SCITEGIC>MOL_PROPERTY
W(SA)
SciTegic.value.DoubleValue
2.324

@<SCITEGIC>MOL_PROPERTY
Valence
SciTegic.value.DoubleValue
9.827

@<SCITEGIC>MOL_PROPERTY
Coulomb
SciTegic.value.DoubleValue
47.299

@<SCITEGIC>MOL_PROPERTY
VdW
SciTegic.value.DoubleValue
0.380

@<SCITEGIC>MOL_PROPERTY
VdW6
SciTegic.value.DoubleValue
-12.658

@<SCITEGIC>MOL_PROPERTY
VdW12
SciTegic.value.DoubleValue
13.038

@<SCITEGIC>MOL_PROPERTY
Bond
SciTegic.value.DoubleValue
0.384

@<SCITEGIC>MOL_PROPERTY
Angle
SciTegic.value.DoubleValue
2.465

@<SCITEGIC>MOL_PROPERTY
Pdih
SciTegic.value.DoubleValue
6.977

@<SCITEGIC>MOL_PROPERTY
Idih
SciTegic.value.DoubleValue
0.000

@<SCITEGIC>MOL_PROPERTY
Tether
SciTegic.value.DoubleValue
0.000

