VeraChem MOL file


 29 28  0  0  0  0  0  0  0  0999 V2000     
   19.9950   18.9913   18.8122 C   0  0  0  0  0  0  0  0  0  0  0  0
   20.8995   19.6136   18.8050 H   0  0  0  0  0  0  0  0  0  0  0  0
   20.3037   17.9387   18.7677 H   0  0  0  0  0  0  0  0  0  0  0  0
   19.4251   19.2143   17.9009 H   0  0  0  0  0  0  0  0  0  0  0  0
   19.1426   19.2665   20.0690 C   0  0  0  0  0  0  0  0  0  0  0  0
   18.2298   18.6555   20.0314 H   0  0  0  0  0  0  0  0  0  0  0  0
   18.8210   20.3175   20.0684 H   0  0  0  0  0  0  0  0  0  0  0  0
   19.9220   18.9604   21.3669 C   0  0  0  0  0  0  0  0  0  0  0  0
   20.2433   17.9096   21.3620 H   0  0  0  0  0  0  0  0  0  0  0  0
   20.8346   19.5716   21.3990 H   0  0  0  0  0  0  0  0  0  0  0  0
   19.0717   19.2348   22.6277 C   0  0  0  0  0  0  0  0  0  0  0  0
   18.1592   18.6235   22.5948 H   0  0  0  0  0  0  0  0  0  0  0  0
   18.7506   20.2857   22.6319 H   0  0  0  0  0  0  0  0  0  0  0  0
   19.8518   18.9283   23.9260 C   0  0  0  0  0  0  0  0  0  0  0  0
   20.1729   17.8774   23.9214 H   0  0  0  0  0  0  0  0  0  0  0  0
   20.7643   19.5395   23.9585 H   0  0  0  0  0  0  0  0  0  0  0  0
   19.0013   19.2028   25.1867 C   0  0  0  0  0  0  0  0  0  0  0  0
   18.0885   18.5916   25.1547 H   0  0  0  0  0  0  0  0  0  0  0  0
   18.6800   20.2538   25.1918 H   0  0  0  0  0  0  0  0  0  0  0  0
   19.7802   18.8965   26.4847 C   0  0  0  0  0  0  0  0  0  0  0  0
   20.0986   17.8455   26.4858 H   0  0  0  0  0  0  0  0  0  0  0  0
   20.6908   19.5094   26.5230 H   0  0  0  0  0  0  0  0  0  0  0  0
   18.9245   19.1732   27.7332 C   0  0  0  0  0  0  0  0  0  0  0  0
   18.0245   18.5529   27.7076 H   0  0  0  0  0  0  0  0  0  0  0  0
   18.6190   20.2230   27.7450 H   0  0  0  0  0  0  0  0  0  0  0  0
   19.6549   18.8842   29.0286 N   0  3  0  0  0  0  0  0  0  0  0  0
   19.9464   17.9031   29.0920 H   0  0  0  0  0  0  0  0  0  0  0  0
   19.0674   19.0749   29.8479 H   0  0  0  0  0  0  0  0  0  0  0  0
   20.4996   19.4572   29.1268 H   0  0  0  0  0  0  0  0  0  0  0  0
  1  2  1  0  0  0  0
  1  3  1  0  0  0  0
  1  4  1  0  0  0  0
  1  5  1  0  0  0  0
  5  6  1  0  0  0  0
  5  7  1  0  0  0  0
  5  8  1  0  0  0  0
  8  9  1  0  0  0  0
  8 10  1  0  0  0  0
  8 11  1  0  0  0  0
 11 12  1  0  0  0  0
 11 13  1  0  0  0  0
 11 14  1  0  0  0  0
 14 15  1  0  0  0  0
 14 16  1  0  0  0  0
 14 17  1  0  0  0  0
 17 18  1  0  0  0  0
 17 19  1  0  0  0  0
 17 20  1  0  0  0  0
 20 21  1  0  0  0  0
 20 22  1  0  0  0  0
 20 23  1  0  0  0  0
 23 24  1  0  0  0  0
 23 25  1  0  0  0  0
 23 26  1  0  0  0  0
 26 27  1  0  0  0  0
 26 28  1  0  0  0  0
 26 29  1  0  0  0  0
M  END
> <VM2 Rank>
1

> <Conf_Id>
1411

> <Probability>
5.37

> <Sum Probability>
5.37

> <Delta G>
0.000

> <G>
58.148

> <E>
20.963

> <-TS>
37.185

> <U+W>
-3.181

> <U>
47.674

> <W>
-50.848

> <W(PB)>
-53.430

> <W(SA)>
2.581

> <Valence>
2.587

> <Coulomb>
44.357

> <VdW>
0.730

> <VdW6>
-6.901

> <VdW12>
7.631

> <Bond>
0.145

> <Angle>
0.402

> <Pdih>
2.040

> <Idih>
0.000

> <Tether>
0.000

$$$$
VeraChem MOL file


 29 28  0  0  0  0  0  0  0  0999 V2000     
   19.8619   19.1639   18.8955 C   0  0  0  0  0  0  0  0  0  0  0  0
   20.9428   19.3558   18.8888 H   0  0  0  0  0  0  0  0  0  0  0  0
   19.7040   18.0907   18.7269 H   0  0  0  0  0  0  0  0  0  0  0  0
   19.4179   19.7067   18.0509 H   0  0  0  0  0  0  0  0  0  0  0  0
   19.2268   19.6153   20.2277 C   0  0  0  0  0  0  0  0  0  0  0  0
   18.1420   19.4423   20.1915 H   0  0  0  0  0  0  0  0  0  0  0  0
   19.3713   20.6976   20.3523 H   0  0  0  0  0  0  0  0  0  0  0  0
   19.8345   18.8657   21.4338 C   0  0  0  0  0  0  0  0  0  0  0  0
   19.6894   17.7843   21.3038 H   0  0  0  0  0  0  0  0  0  0  0  0
   20.9190   19.0396   21.4645 H   0  0  0  0  0  0  0  0  0  0  0  0
   19.2011   19.3152   22.7698 C   0  0  0  0  0  0  0  0  0  0  0  0
   18.1165   19.1413   22.7383 H   0  0  0  0  0  0  0  0  0  0  0  0
   19.3463   20.3967   22.8989 H   0  0  0  0  0  0  0  0  0  0  0  0
   19.8093   18.5648   23.9761 C   0  0  0  0  0  0  0  0  0  0  0  0
   19.6644   17.4834   23.8459 H   0  0  0  0  0  0  0  0  0  0  0  0
   20.8938   18.7390   24.0076 H   0  0  0  0  0  0  0  0  0  0  0  0
   19.1756   19.0139   25.3121 C   0  0  0  0  0  0  0  0  0  0  0  0
   18.0914   18.8369   25.2817 H   0  0  0  0  0  0  0  0  0  0  0  0
   19.3190   20.0958   25.4346 H   0  0  0  0  0  0  0  0  0  0  0  0
   19.7864   18.2623   26.5184 C   0  0  0  0  0  0  0  0  0  0  0  0
   19.6713   17.1805   26.3689 H   0  0  0  0  0  0  0  0  0  0  0  0
   20.8655   18.4577   26.5765 H   0  0  0  0  0  0  0  0  0  0  0  0
   19.1219   18.6432   27.8553 C   0  0  0  0  0  0  0  0  0  0  0  0
   19.5347   18.0227   28.6554 H   0  0  0  0  0  0  0  0  0  0  0  0
   18.0463   18.4557   27.7985 H   0  0  0  0  0  0  0  0  0  0  0  0
   19.3267   20.0935   28.2464 N   0  3  0  0  0  0  0  0  0  0  0  0
   20.3210   20.3261   28.3384 H   0  0  0  0  0  0  0  0  0  0  0  0
   18.8831   20.3117   29.1455 H   0  0  0  0  0  0  0  0  0  0  0  0
   18.9285   20.7334   27.5519 H   0  0  0  0  0  0  0  0  0  0  0  0
  1  2  1  0  0  0  0
  1  3  1  0  0  0  0
  1  4  1  0  0  0  0
  1  5  1  0  0  0  0
  5  6  1  0  0  0  0
  5  7  1  0  0  0  0
  5  8  1  0  0  0  0
  8  9  1  0  0  0  0
  8 10  1  0  0  0  0
  8 11  1  0  0  0  0
 11 12  1  0  0  0  0
 11 13  1  0  0  0  0
 11 14  1  0  0  0  0
 14 15  1  0  0  0  0
 14 16  1  0  0  0  0
 14 17  1  0  0  0  0
 17 18  1  0  0  0  0
 17 19  1  0  0  0  0
 17 20  1  0  0  0  0
 20 21  1  0  0  0  0
 20 22  1  0  0  0  0
 20 23  1  0  0  0  0
 23 24  1  0  0  0  0
 23 25  1  0  0  0  0
 23 26  1  0  0  0  0
 26 27  1  0  0  0  0
 26 28  1  0  0  0  0
 26 29  1  0  0  0  0
M  END
> <VM2 Rank>
2

> <Conf_Id>
1570

> <Probability>
3.61

> <Sum Probability>
8.98

> <Delta G>
0.237

> <G>
58.385

> <E>
21.097

> <-TS>
37.288

> <U+W>
-3.048

> <U>
48.292

> <W>
-51.340

> <W(PB)>
-53.879

> <W(SA)>
2.539

> <Valence>
2.685

> <Coulomb>
44.768

> <VdW>
0.839

> <VdW6>
-7.428

> <VdW12>
8.268

> <Bond>
0.165

> <Angle>
0.440

> <Pdih>
2.080

> <Idih>
0.000

> <Tether>
0.000

$$$$
VeraChem MOL file


 29 28  0  0  0  0  0  0  0  0999 V2000     
   19.7817   18.9386   18.8904 C   0  0  0  0  0  0  0  0  0  0  0  0
   19.1067   18.8319   18.0314 H   0  0  0  0  0  0  0  0  0  0  0  0
   20.3391   19.8763   18.7667 H   0  0  0  0  0  0  0  0  0  0  0  0
   20.4989   18.1079   18.8609 H   0  0  0  0  0  0  0  0  0  0  0  0
   18.9855   18.9371   20.2125 C   0  0  0  0  0  0  0  0  0  0  0  0
   18.4126   18.0025   20.2921 H   0  0  0  0  0  0  0  0  0  0  0  0
   18.2541   19.7573   20.1986 H   0  0  0  0  0  0  0  0  0  0  0  0
   19.9129   19.0863   21.4387 C   0  0  0  0  0  0  0  0  0  0  0  0
   20.6437   18.2657   21.4472 H   0  0  0  0  0  0  0  0  0  0  0  0
   20.4850   20.0206   21.3538 H   0  0  0  0  0  0  0  0  0  0  0  0
   19.1192   19.0851   22.7647 C   0  0  0  0  0  0  0  0  0  0  0  0
   18.5473   18.1506   22.8487 H   0  0  0  0  0  0  0  0  0  0  0  0
   18.3884   19.9056   22.7553 H   0  0  0  0  0  0  0  0  0  0  0  0
   20.0475   19.2345   23.9911 C   0  0  0  0  0  0  0  0  0  0  0  0
   20.7781   18.4137   24.0003 H   0  0  0  0  0  0  0  0  0  0  0  0
   20.6197   20.1687   23.9059 H   0  0  0  0  0  0  0  0  0  0  0  0
   19.2538   19.2337   25.3170 C   0  0  0  0  0  0  0  0  0  0  0  0
   18.6804   18.3004   25.3946 H   0  0  0  0  0  0  0  0  0  0  0  0
   18.5252   20.0564   25.3089 H   0  0  0  0  0  0  0  0  0  0  0  0
   20.1849   19.3826   26.5434 C   0  0  0  0  0  0  0  0  0  0  0  0
   20.8976   18.5478   26.5785 H   0  0  0  0  0  0  0  0  0  0  0  0
   20.7806   20.2992   26.4385 H   0  0  0  0  0  0  0  0  0  0  0  0
   19.4104   19.4541   27.8734 C   0  0  0  0  0  0  0  0  0  0  0  0
   18.6954   20.2806   27.8392 H   0  0  0  0  0  0  0  0  0  0  0  0
   20.1109   19.6425   28.6915 H   0  0  0  0  0  0  0  0  0  0  0  0
   18.6481   18.1860   28.2039 N   0  3  0  0  0  0  0  0  0  0  0  0
   17.9452   17.9693   27.4903 H   0  0  0  0  0  0  0  0  0  0  0  0
   18.1538   18.2615   29.0998 H   0  0  0  0  0  0  0  0  0  0  0  0
   19.2711   17.3746   28.2725 H   0  0  0  0  0  0  0  0  0  0  0  0
  1  2  1  0  0  0  0
  1  3  1  0  0  0  0
  1  4  1  0  0  0  0
  1  5  1  0  0  0  0
  5  6  1  0  0  0  0
  5  7  1  0  0  0  0
  5  8  1  0  0  0  0
  8  9  1  0  0  0  0
  8 10  1  0  0  0  0
  8 11  1  0  0  0  0
 11 12  1  0  0  0  0
 11 13  1  0  0  0  0
 11 14  1  0  0  0  0
 14 15  1  0  0  0  0
 14 16  1  0  0  0  0
 14 17  1  0  0  0  0
 17 18  1  0  0  0  0
 17 19  1  0  0  0  0
 17 20  1  0  0  0  0
 20 21  1  0  0  0  0
 20 22  1  0  0  0  0
 20 23  1  0  0  0  0
 23 24  1  0  0  0  0
 23 25  1  0  0  0  0
 23 26  1  0  0  0  0
 26 27  1  0  0  0  0
 26 28  1  0  0  0  0
 26 29  1  0  0  0  0
M  END
> <VM2 Rank>
3

> <Conf_Id>
2521

> <Probability>
3.41

> <Sum Probability>
12.39

> <Delta G>
0.271

> <G>
58.419

> <E>
21.131

> <-TS>
37.288

> <U+W>
-3.014

> <U>
48.292

> <W>
-51.306

> <W(PB)>
-53.856

> <W(SA)>
2.551

> <Valence>
2.685

> <Coulomb>
44.768

> <VdW>
0.839

> <VdW6>
-7.428

> <VdW12>
8.268

> <Bond>
0.165

> <Angle>
0.440

> <Pdih>
2.080

> <Idih>
0.000

> <Tether>
0.000

$$$$
VeraChem MOL file


 29 28  0  0  0  0  0  0  0  0999 V2000     
   20.2025   18.4714   19.1139 C   0  0  0  0  0  0  0  0  0  0  0  0
   20.3376   17.3931   19.2691 H   0  0  0  0  0  0  0  0  0  0  0  0
   19.7628   18.6163   18.1186 H   0  0  0  0  0  0  0  0  0  0  0  0
   21.1933   18.9442   19.1168 H   0  0  0  0  0  0  0  0  0  0  0  0
   19.2949   19.0792   20.2042 C   0  0  0  0  0  0  0  0  0  0  0  0
   18.3019   18.6109   20.1547 H   0  0  0  0  0  0  0  0  0  0  0  0
   19.1509   20.1501   20.0035 H   0  0  0  0  0  0  0  0  0  0  0  0
   19.8914   18.8889   21.6163 C   0  0  0  0  0  0  0  0  0  0  0  0
   20.0358   17.8172   21.8114 H   0  0  0  0  0  0  0  0  0  0  0  0
   20.8847   19.3567   21.6603 H   0  0  0  0  0  0  0  0  0  0  0  0
   18.9853   19.4961   22.7109 C   0  0  0  0  0  0  0  0  0  0  0  0
   17.9922   19.0278   22.6663 H   0  0  0  0  0  0  0  0  0  0  0  0
   18.8409   20.5675   22.5143 H   0  0  0  0  0  0  0  0  0  0  0  0
   19.5825   19.3058   24.1234 C   0  0  0  0  0  0  0  0  0  0  0  0
   19.7299   18.2338   24.3109 H   0  0  0  0  0  0  0  0  0  0  0  0
   20.5742   19.7767   24.1680 H   0  0  0  0  0  0  0  0  0  0  0  0
   18.6725   19.9134   25.2176 C   0  0  0  0  0  0  0  0  0  0  0  0
   17.6899   19.4216   25.1981 H   0  0  0  0  0  0  0  0  0  0  0  0
   18.4938   20.9737   24.9910 H   0  0  0  0  0  0  0  0  0  0  0  0
   19.2754   19.8047   26.6378 C   0  0  0  0  0  0  0  0  0  0  0  0
   20.2464   20.3169   26.6667 H   0  0  0  0  0  0  0  0  0  0  0  0
   18.6205   20.3319   27.3442 H   0  0  0  0  0  0  0  0  0  0  0  0
   19.4454   18.3460   27.1018 C   0  0  0  0  0  0  0  0  0  0  0  0
   20.1311   17.8215   26.4314 H   0  0  0  0  0  0  0  0  0  0  0  0
   18.4786   17.8361   27.0743 H   0  0  0  0  0  0  0  0  0  0  0  0
   19.9942   18.2325   28.5092 N   0  3  0  0  0  0  0  0  0  0  0  0
   20.9170   18.6712   28.5957 H   0  0  0  0  0  0  0  0  0  0  0  0
   20.0998   17.2541   28.7993 H   0  0  0  0  0  0  0  0  0  0  0  0
   19.3801   18.6830   29.1959 H   0  0  0  0  0  0  0  0  0  0  0  0
  1  2  1  0  0  0  0
  1  3  1  0  0  0  0
  1  4  1  0  0  0  0
  1  5  1  0  0  0  0
  5  6  1  0  0  0  0
  5  7  1  0  0  0  0
  5  8  1  0  0  0  0
  8  9  1  0  0  0  0
  8 10  1  0  0  0  0
  8 11  1  0  0  0  0
 11 12  1  0  0  0  0
 11 13  1  0  0  0  0
 11 14  1  0  0  0  0
 14 15  1  0  0  0  0
 14 16  1  0  0  0  0
 14 17  1  0  0  0  0
 17 18  1  0  0  0  0
 17 19  1  0  0  0  0
 17 20  1  0  0  0  0
 20 21  1  0  0  0  0
 20 22  1  0  0  0  0
 20 23  1  0  0  0  0
 23 24  1  0  0  0  0
 23 25  1  0  0  0  0
 23 26  1  0  0  0  0
 26 27  1  0  0  0  0
 26 28  1  0  0  0  0
 26 29  1  0  0  0  0
M  END
> <VM2 Rank>
4

> <Conf_Id>
228

> <Probability>
2.30

> <Sum Probability>
14.70

> <Delta G>
0.505

> <G>
58.653

> <E>
21.369

> <-TS>
37.284

> <U+W>
-2.775

> <U>
48.481

> <W>
-51.256

> <W(PB)>
-53.824

> <W(SA)>
2.568

> <Valence>
2.887

> <Coulomb>
44.809

> <VdW>
0.785

> <VdW6>
-7.506

> <VdW12>
8.292

> <Bond>
0.167

> <Angle>
0.525

> <Pdih>
2.195

> <Idih>
0.000

> <Tether>
0.000

$$$$
VeraChem MOL file


 29 28  0  0  0  0  0  0  0  0999 V2000     
   20.4799   19.2506   19.1312 C   0  0  0  0  0  0  0  0  0  0  0  0
   21.2636   19.9940   19.3270 H   0  0  0  0  0  0  0  0  0  0  0  0
   20.9493   18.2586   19.1015 H   0  0  0  0  0  0  0  0  0  0  0  0
   20.0616   19.4555   18.1372 H   0  0  0  0  0  0  0  0  0  0  0  0
   19.3772   19.3102   20.2093 C   0  0  0  0  0  0  0  0  0  0  0  0
   18.5920   18.5799   19.9685 H   0  0  0  0  0  0  0  0  0  0  0  0
   18.9039   20.3020   20.1923 H   0  0  0  0  0  0  0  0  0  0  0  0
   19.9399   19.0251   21.6193 C   0  0  0  0  0  0  0  0  0  0  0  0
   20.4139   18.0338   21.6309 H   0  0  0  0  0  0  0  0  0  0  0  0
   20.7259   19.7560   21.8546 H   0  0  0  0  0  0  0  0  0  0  0  0
   18.8385   19.0840   22.7017 C   0  0  0  0  0  0  0  0  0  0  0  0
   18.0527   18.3533   22.4649 H   0  0  0  0  0  0  0  0  0  0  0  0
   18.3651   20.0755   22.6896 H   0  0  0  0  0  0  0  0  0  0  0  0
   19.4017   18.7983   24.1121 C   0  0  0  0  0  0  0  0  0  0  0  0
   19.8725   17.8055   24.1241 H   0  0  0  0  0  0  0  0  0  0  0  0
   20.1904   19.5278   24.3397 H   0  0  0  0  0  0  0  0  0  0  0  0
   18.2971   18.8593   25.1940 C   0  0  0  0  0  0  0  0  0  0  0  0
   17.4920   18.1603   24.9281 H   0  0  0  0  0  0  0  0  0  0  0  0
   17.8465   19.8615   25.2080 H   0  0  0  0  0  0  0  0  0  0  0  0
   18.8130   18.5062   26.6088 C   0  0  0  0  0  0  0  0  0  0  0  0
   17.9623   18.4840   27.3029 H   0  0  0  0  0  0  0  0  0  0  0  0
   19.2413   17.4950   26.6037 H   0  0  0  0  0  0  0  0  0  0  0  0
   19.8598   19.5095   27.1278 C   0  0  0  0  0  0  0  0  0  0  0  0
   19.4333   20.5162   27.1341 H   0  0  0  0  0  0  0  0  0  0  0  0
   20.7322   19.5086   26.4692 H   0  0  0  0  0  0  0  0  0  0  0  0
   20.3368   19.1949   28.5308 N   0  3  0  0  0  0  0  0  0  0  0  0
   21.0329   19.8740   28.8579 H   0  0  0  0  0  0  0  0  0  0  0  0
   20.7734   18.2687   28.5870 H   0  0  0  0  0  0  0  0  0  0  0  0
   19.5666   19.2071   29.2076 H   0  0  0  0  0  0  0  0  0  0  0  0
  1  2  1  0  0  0  0
  1  3  1  0  0  0  0
  1  4  1  0  0  0  0
  1  5  1  0  0  0  0
  5  6  1  0  0  0  0
  5  7  1  0  0  0  0
  5  8  1  0  0  0  0
  8  9  1  0  0  0  0
  8 10  1  0  0  0  0
  8 11  1  0  0  0  0
 11 12  1  0  0  0  0
 11 13  1  0  0  0  0
 11 14  1  0  0  0  0
 14 15  1  0  0  0  0
 14 16  1  0  0  0  0
 14 17  1  0  0  0  0
 17 18  1  0  0  0  0
 17 19  1  0  0  0  0
 17 20  1  0  0  0  0
 20 21  1  0  0  0  0
 20 22  1  0  0  0  0
 20 23  1  0  0  0  0
 23 24  1  0  0  0  0
 23 25  1  0  0  0  0
 23 26  1  0  0  0  0
 26 27  1  0  0  0  0
 26 28  1  0  0  0  0
 26 29  1  0  0  0  0
M  END
> <VM2 Rank>
5

> <Conf_Id>
1293

> <Probability>
2.27

> <Sum Probability>
16.97

> <Delta G>
0.513

> <G>
58.661

> <E>
21.378

> <-TS>
37.284

> <U+W>
-2.767

> <U>
48.481

> <W>
-51.248

> <W(PB)>
-53.780

> <W(SA)>
2.532

> <Valence>
2.887

> <Coulomb>
44.808

> <VdW>
0.785

> <VdW6>
-7.506

> <VdW12>
8.291

> <Bond>
0.167

> <Angle>
0.525

> <Pdih>
2.195

> <Idih>
0.000

> <Tether>
0.000

$$$$
VeraChem MOL file


 29 28  0  0  0  0  0  0  0  0999 V2000     
   19.6450   20.1991   19.5767 C   0  0  0  0  0  0  0  0  0  0  0  0
   20.7239   20.3977   19.6175 H   0  0  0  0  0  0  0  0  0  0  0  0
   19.3014   20.4192   18.5576 H   0  0  0  0  0  0  0  0  0  0  0  0
   19.1401   20.8997   20.2532 H   0  0  0  0  0  0  0  0  0  0  0  0
   19.3360   18.7306   19.9461 C   0  0  0  0  0  0  0  0  0  0  0  0
   19.7601   18.0744   19.1733 H   0  0  0  0  0  0  0  0  0  0  0  0
   18.2496   18.5655   19.9274 H   0  0  0  0  0  0  0  0  0  0  0  0
   19.9057   18.3096   21.3222 C   0  0  0  0  0  0  0  0  0  0  0  0
   19.7391   17.2314   21.4533 H   0  0  0  0  0  0  0  0  0  0  0  0
   20.9945   18.4573   21.3291 H   0  0  0  0  0  0  0  0  0  0  0  0
   19.2685   19.0675   22.5114 C   0  0  0  0  0  0  0  0  0  0  0  0
   18.1758   18.9605   22.4712 H   0  0  0  0  0  0  0  0  0  0  0  0
   19.4877   20.1403   22.4313 H   0  0  0  0  0  0  0  0  0  0  0  0
   19.7888   18.5447   23.8694 C   0  0  0  0  0  0  0  0  0  0  0  0
   19.5675   17.4722   23.9592 H   0  0  0  0  0  0  0  0  0  0  0  0
   20.8822   18.6483   23.9072 H   0  0  0  0  0  0  0  0  0  0  0  0
   19.1568   19.3032   25.0582 C   0  0  0  0  0  0  0  0  0  0  0  0
   18.0633   19.2002   25.0204 H   0  0  0  0  0  0  0  0  0  0  0  0
   19.3783   20.3759   24.9696 H   0  0  0  0  0  0  0  0  0  0  0  0
   19.6762   18.7811   26.4158 C   0  0  0  0  0  0  0  0  0  0  0  0
   19.4518   17.7102   26.5107 H   0  0  0  0  0  0  0  0  0  0  0  0
   20.7684   18.8870   26.4595 H   0  0  0  0  0  0  0  0  0  0  0  0
   19.0409   19.5431   27.5921 C   0  0  0  0  0  0  0  0  0  0  0  0
   17.9541   19.4267   27.5623 H   0  0  0  0  0  0  0  0  0  0  0  0
   19.2755   20.6079   27.5108 H   0  0  0  0  0  0  0  0  0  0  0  0
   19.5261   19.0591   28.9432 N   0  3  0  0  0  0  0  0  0  0  0  0
   20.5407   19.1670   29.0457 H   0  0  0  0  0  0  0  0  0  0  0  0
   19.3110   18.0678   29.0936 H   0  0  0  0  0  0  0  0  0  0  0  0
   19.0910   19.5795   29.7130 H   0  0  0  0  0  0  0  0  0  0  0  0
  1  2  1  0  0  0  0
  1  3  1  0  0  0  0
  1  4  1  0  0  0  0
  1  5  1  0  0  0  0
  5  6  1  0  0  0  0
  5  7  1  0  0  0  0
  5  8  1  0  0  0  0
  8  9  1  0  0  0  0
  8 10  1  0  0  0  0
  8 11  1  0  0  0  0
 11 12  1  0  0  0  0
 11 13  1  0  0  0  0
 11 14  1  0  0  0  0
 14 15  1  0  0  0  0
 14 16  1  0  0  0  0
 14 17  1  0  0  0  0
 17 18  1  0  0  0  0
 17 19  1  0  0  0  0
 17 20  1  0  0  0  0
 20 21  1  0  0  0  0
 20 22  1  0  0  0  0
 20 23  1  0  0  0  0
 23 24  1  0  0  0  0
 23 25  1  0  0  0  0
 23 26  1  0  0  0  0
 26 27  1  0  0  0  0
 26 28  1  0  0  0  0
 26 29  1  0  0  0  0
M  END
> <VM2 Rank>
6

> <Conf_Id>
1223

> <Probability>
1.83

> <Sum Probability>
18.80

> <Delta G>
0.642

> <G>
58.790

> <E>
21.495

> <-TS>
37.295

> <U+W>
-2.650

> <U>
48.301

> <W>
-50.950

> <W(PB)>
-53.515

> <W(SA)>
2.565

> <Valence>
3.090

> <Coulomb>
44.344

> <VdW>
0.866

> <VdW6>
-7.521

> <VdW12>
8.387

> <Bond>
0.180

> <Angle>
0.641

> <Pdih>
2.270

> <Idih>
0.000

> <Tether>
0.000

$$$$
VeraChem MOL file


 29 28  0  0  0  0  0  0  0  0999 V2000     
   18.9501   18.2473   19.5329 C   0  0  0  0  0  0  0  0  0  0  0  0
   18.1067   17.9967   20.1882 H   0  0  0  0  0  0  0  0  0  0  0  0
   18.5591   18.3345   18.5109 H   0  0  0  0  0  0  0  0  0  0  0  0
   19.6605   17.4105   19.5504 H   0  0  0  0  0  0  0  0  0  0  0  0
   19.6328   19.5648   19.9648 C   0  0  0  0  0  0  0  0  0  0  0  0
   18.8952   20.3795   19.9682 H   0  0  0  0  0  0  0  0  0  0  0  0
   20.3869   19.8358   19.2127 H   0  0  0  0  0  0  0  0  0  0  0  0
   20.3210   19.4762   21.3483 C   0  0  0  0  0  0  0  0  0  0  0  0
   21.0716   18.6739   21.3338 H   0  0  0  0  0  0  0  0  0  0  0  0
   20.8709   20.4109   21.5245 H   0  0  0  0  0  0  0  0  0  0  0  0
   19.3316   19.2444   22.5153 C   0  0  0  0  0  0  0  0  0  0  0  0
   18.8252   18.2784   22.3896 H   0  0  0  0  0  0  0  0  0  0  0  0
   18.5526   20.0190   22.4950 H   0  0  0  0  0  0  0  0  0  0  0  0
   20.0460   19.2666   23.8855 C   0  0  0  0  0  0  0  0  0  0  0  0
   20.8276   18.4945   23.9037 H   0  0  0  0  0  0  0  0  0  0  0  0
   20.5506   20.2333   24.0209 H   0  0  0  0  0  0  0  0  0  0  0  0
   19.0602   19.0314   25.0522 C   0  0  0  0  0  0  0  0  0  0  0  0
   18.5558   18.0643   24.9180 H   0  0  0  0  0  0  0  0  0  0  0  0
   18.2780   19.8032   25.0338 H   0  0  0  0  0  0  0  0  0  0  0  0
   19.7734   19.0541   26.4219 C   0  0  0  0  0  0  0  0  0  0  0  0
   20.5526   18.2806   26.4461 H   0  0  0  0  0  0  0  0  0  0  0  0
   20.2745   20.0212   26.5622 H   0  0  0  0  0  0  0  0  0  0  0  0
   18.7831   18.8190   27.5759 C   0  0  0  0  0  0  0  0  0  0  0  0
   18.2938   17.8494   27.4495 H   0  0  0  0  0  0  0  0  0  0  0  0
   18.0145   19.5965   27.5658 H   0  0  0  0  0  0  0  0  0  0  0  0
   19.4458   18.8342   28.9382 N   0  3  0  0  0  0  0  0  0  0  0  0
   18.7689   18.6757   29.6928 H   0  0  0  0  0  0  0  0  0  0  0  0
   19.9028   19.7318   29.1305 H   0  0  0  0  0  0  0  0  0  0  0  0
   20.1629   18.1060   29.0223 H   0  0  0  0  0  0  0  0  0  0  0  0
  1  2  1  0  0  0  0
  1  3  1  0  0  0  0
  1  4  1  0  0  0  0
  1  5  1  0  0  0  0
  5  6  1  0  0  0  0
  5  7  1  0  0  0  0
  5  8  1  0  0  0  0
  8  9  1  0  0  0  0
  8 10  1  0  0  0  0
  8 11  1  0  0  0  0
 11 12  1  0  0  0  0
 11 13  1  0  0  0  0
 11 14  1  0  0  0  0
 14 15  1  0  0  0  0
 14 16  1  0  0  0  0
 14 17  1  0  0  0  0
 17 18  1  0  0  0  0
 17 19  1  0  0  0  0
 17 20  1  0  0  0  0
 20 21  1  0  0  0  0
 20 22  1  0  0  0  0
 20 23  1  0  0  0  0
 23 24  1  0  0  0  0
 23 25  1  0  0  0  0
 23 26  1  0  0  0  0
 26 27  1  0  0  0  0
 26 28  1  0  0  0  0
 26 29  1  0  0  0  0
M  END
> <VM2 Rank>
7

> <Conf_Id>
1623

> <Probability>
1.83

> <Sum Probability>
20.62

> <Delta G>
0.643

> <G>
58.791

> <E>
21.496

> <-TS>
37.295

> <U+W>
-2.648

> <U>
48.301

> <W>
-50.949

> <W(PB)>
-53.521

> <W(SA)>
2.572

> <Valence>
3.090

> <Coulomb>
44.344

> <VdW>
0.866

> <VdW6>
-7.521

> <VdW12>
8.387

> <Bond>
0.180

> <Angle>
0.640

> <Pdih>
2.270

> <Idih>
0.000

> <Tether>
0.000

$$$$
VeraChem MOL file


 29 28  0  0  0  0  0  0  0  0999 V2000     
   20.2307   18.4037   19.2511 C   0  0  0  0  0  0  0  0  0  0  0  0
   21.2153   18.8887   19.2283 H   0  0  0  0  0  0  0  0  0  0  0  0
   20.3525   17.3757   18.8859 H   0  0  0  0  0  0  0  0  0  0  0  0
   19.5719   18.9340   18.5509 H   0  0  0  0  0  0  0  0  0  0  0  0
   19.6433   18.4090   20.6783 C   0  0  0  0  0  0  0  0  0  0  0  0
   20.3077   17.8360   21.3386 H   0  0  0  0  0  0  0  0  0  0  0  0
   18.6734   17.8923   20.6749 H   0  0  0  0  0  0  0  0  0  0  0  0
   19.4664   19.8485   21.2163 C   0  0  0  0  0  0  0  0  0  0  0  0
   20.4442   20.3468   21.2696 H   0  0  0  0  0  0  0  0  0  0  0  0
   18.8653   20.4255   20.5001 H   0  0  0  0  0  0  0  0  0  0  0  0
   18.7750   19.9127   22.6003 C   0  0  0  0  0  0  0  0  0  0  0  0
   17.7909   19.4275   22.5424 H   0  0  0  0  0  0  0  0  0  0  0  0
   18.5851   20.9670   22.8449 H   0  0  0  0  0  0  0  0  0  0  0  0
   19.6068   19.2736   23.7381 C   0  0  0  0  0  0  0  0  0  0  0  0
   19.7410   18.2009   23.5472 H   0  0  0  0  0  0  0  0  0  0  0  0
   20.6091   19.7232   23.7568 H   0  0  0  0  0  0  0  0  0  0  0  0
   18.9316   19.4606   25.1156 C   0  0  0  0  0  0  0  0  0  0  0  0
   17.9274   19.0147   25.0960 H   0  0  0  0  0  0  0  0  0  0  0  0
   18.7996   20.5326   25.3184 H   0  0  0  0  0  0  0  0  0  0  0  0
   19.7571   18.8202   26.2531 C   0  0  0  0  0  0  0  0  0  0  0  0
   19.8866   17.7473   26.0576 H   0  0  0  0  0  0  0  0  0  0  0  0
   20.7601   19.2667   26.2788 H   0  0  0  0  0  0  0  0  0  0  0  0
   19.0763   19.0126   27.6195 C   0  0  0  0  0  0  0  0  0  0  0  0
   18.0834   18.5550   27.6039 H   0  0  0  0  0  0  0  0  0  0  0  0
   18.9603   20.0800   27.8262 H   0  0  0  0  0  0  0  0  0  0  0  0
   19.8568   18.3971   28.7628 N   0  3  0  0  0  0  0  0  0  0  0  0
   19.3862   18.5363   29.6638 H   0  0  0  0  0  0  0  0  0  0  0  0
   20.7937   18.8050   28.8489 H   0  0  0  0  0  0  0  0  0  0  0  0
   19.9776   17.3859   28.6420 H   0  0  0  0  0  0  0  0  0  0  0  0
  1  2  1  0  0  0  0
  1  3  1  0  0  0  0
  1  4  1  0  0  0  0
  1  5  1  0  0  0  0
  5  6  1  0  0  0  0
  5  7  1  0  0  0  0
  5  8  1  0  0  0  0
  8  9  1  0  0  0  0
  8 10  1  0  0  0  0
  8 11  1  0  0  0  0
 11 12  1  0  0  0  0
 11 13  1  0  0  0  0
 11 14  1  0  0  0  0
 14 15  1  0  0  0  0
 14 16  1  0  0  0  0
 14 17  1  0  0  0  0
 17 18  1  0  0  0  0
 17 19  1  0  0  0  0
 17 20  1  0  0  0  0
 20 21  1  0  0  0  0
 20 22  1  0  0  0  0
 20 23  1  0  0  0  0
 23 24  1  0  0  0  0
 23 25  1  0  0  0  0
 23 26  1  0  0  0  0
 26 27  1  0  0  0  0
 26 28  1  0  0  0  0
 26 29  1  0  0  0  0
M  END
> <VM2 Rank>
8

> <Conf_Id>
1544

> <Probability>
1.74

> <Sum Probability>
22.36

> <Delta G>
0.672

> <G>
58.820

> <E>
21.536

> <-TS>
37.284

> <U+W>
-2.609

> <U>
48.495

> <W>
-51.103

> <W(PB)>
-53.638

> <W(SA)>
2.534

> <Valence>
3.129

> <Coulomb>
44.512

> <VdW>
0.854

> <VdW6>
-7.566

> <VdW12>
8.420

> <Bond>
0.184

> <Angle>
0.664

> <Pdih>
2.281

> <Idih>
0.000

> <Tether>
0.000

$$$$
VeraChem MOL file


 29 28  0  0  0  0  0  0  0  0999 V2000     
   20.5849   19.9824   19.5494 C   0  0  0  0  0  0  0  0  0  0  0  0
   20.3261   20.1981   18.5046 H   0  0  0  0  0  0  0  0  0  0  0  0
   20.8701   20.9283   20.0281 H   0  0  0  0  0  0  0  0  0  0  0  0
   21.4611   19.3209   19.5500 H   0  0  0  0  0  0  0  0  0  0  0  0
   19.3947   19.3269   20.2813 C   0  0  0  0  0  0  0  0  0  0  0  0
   19.1109   18.4023   19.7595 H   0  0  0  0  0  0  0  0  0  0  0  0
   18.5247   19.9969   20.2356 H   0  0  0  0  0  0  0  0  0  0  0  0
   19.7330   19.0120   21.7552 C   0  0  0  0  0  0  0  0  0  0  0  0
   20.6017   18.3406   21.7958 H   0  0  0  0  0  0  0  0  0  0  0  0
   20.0234   19.9416   22.2618 H   0  0  0  0  0  0  0  0  0  0  0  0
   18.5387   18.3585   22.4912 C   0  0  0  0  0  0  0  0  0  0  0  0
   18.2122   17.4739   21.9271 H   0  0  0  0  0  0  0  0  0  0  0  0
   17.6852   19.0504   22.5005 H   0  0  0  0  0  0  0  0  0  0  0  0
   18.8676   17.9212   23.9397 C   0  0  0  0  0  0  0  0  0  0  0  0
   18.0074   17.3657   24.3384 H   0  0  0  0  0  0  0  0  0  0  0  0
   19.7109   17.2170   23.9286 H   0  0  0  0  0  0  0  0  0  0  0  0
   19.1862   19.1035   24.8861 C   0  0  0  0  0  0  0  0  0  0  0  0
   18.3652   19.8331   24.8525 H   0  0  0  0  0  0  0  0  0  0  0  0
   20.0908   19.6243   24.5456 H   0  0  0  0  0  0  0  0  0  0  0  0
   19.3955   18.6318   26.3419 C   0  0  0  0  0  0  0  0  0  0  0  0
   18.4922   18.1192   26.6987 H   0  0  0  0  0  0  0  0  0  0  0  0
   20.2163   17.9032   26.3799 H   0  0  0  0  0  0  0  0  0  0  0  0
   19.7155   19.8123   27.2755 C   0  0  0  0  0  0  0  0  0  0  0  0
   18.8932   20.5327   27.2535 H   0  0  0  0  0  0  0  0  0  0  0  0
   20.6239   20.3161   26.9342 H   0  0  0  0  0  0  0  0  0  0  0  0
   19.9281   19.3893   28.7146 N   0  3  0  0  0  0  0  0  0  0  0  0
   19.0975   18.9316   29.1047 H   0  0  0  0  0  0  0  0  0  0  0  0
   20.1399   20.1903   29.3198 H   0  0  0  0  0  0  0  0  0  0  0  0
   20.7080   18.7301   28.8076 H   0  0  0  0  0  0  0  0  0  0  0  0
  1  2  1  0  0  0  0
  1  3  1  0  0  0  0
  1  4  1  0  0  0  0
  1  5  1  0  0  0  0
  5  6  1  0  0  0  0
  5  7  1  0  0  0  0
  5  8  1  0  0  0  0
  8  9  1  0  0  0  0
  8 10  1  0  0  0  0
  8 11  1  0  0  0  0
 11 12  1  0  0  0  0
 11 13  1  0  0  0  0
 11 14  1  0  0  0  0
 14 15  1  0  0  0  0
 14 16  1  0  0  0  0
 14 17  1  0  0  0  0
 17 18  1  0  0  0  0
 17 19  1  0  0  0  0
 17 20  1  0  0  0  0
 20 21  1  0  0  0  0
 20 22  1  0  0  0  0
 20 23  1  0  0  0  0
 23 24  1  0  0  0  0
 23 25  1  0  0  0  0
 23 26  1  0  0  0  0
 26 27  1  0  0  0  0
 26 28  1  0  0  0  0
 26 29  1  0  0  0  0
M  END
> <VM2 Rank>
9

> <Conf_Id>
2219

> <Probability>
1.74

> <Sum Probability>
24.10

> <Delta G>
0.674

> <G>
58.822

> <E>
21.537

> <-TS>
37.285

> <U+W>
-2.608

> <U>
48.554

> <W>
-51.162

> <W(PB)>
-53.697

> <W(SA)>
2.536

> <Valence>
3.127

> <Coulomb>
44.585

> <VdW>
0.842

> <VdW6>
-7.592

> <VdW12>
8.434

> <Bond>
0.185

> <Angle>
0.660

> <Pdih>
2.281

> <Idih>
0.000

> <Tether>
0.000

$$$$
VeraChem MOL file


 29 28  0  0  0  0  0  0  0  0999 V2000     
   19.8159   17.8220   19.5013 C   0  0  0  0  0  0  0  0  0  0  0  0
   20.9128   17.7806   19.5160 H   0  0  0  0  0  0  0  0  0  0  0  0
   19.4325   16.8906   19.9381 H   0  0  0  0  0  0  0  0  0  0  0  0
   19.4940   17.8599   18.4525 H   0  0  0  0  0  0  0  0  0  0  0  0
   19.2971   19.0524   20.2752 C   0  0  0  0  0  0  0  0  0  0  0  0
   18.2002   19.0852   20.2151 H   0  0  0  0  0  0  0  0  0  0  0  0
   19.6686   19.9682   19.7944 H   0  0  0  0  0  0  0  0  0  0  0  0
   19.7372   19.0243   21.7556 C   0  0  0  0  0  0  0  0  0  0  0  0
   19.3680   18.1011   22.2208 H   0  0  0  0  0  0  0  0  0  0  0  0
   20.8342   18.9937   21.8106 H   0  0  0  0  0  0  0  0  0  0  0  0
   19.2139   20.2555   22.5335 C   0  0  0  0  0  0  0  0  0  0  0  0
   18.1151   20.2584   22.5274 H   0  0  0  0  0  0  0  0  0  0  0  0
   19.5275   21.1689   22.0095 H   0  0  0  0  0  0  0  0  0  0  0  0
   19.7245   20.3291   23.9935 C   0  0  0  0  0  0  0  0  0  0  0  0
   20.8232   20.3424   23.9984 H   0  0  0  0  0  0  0  0  0  0  0  0
   19.4026   21.2865   24.4260 H   0  0  0  0  0  0  0  0  0  0  0  0
   19.2117   19.1747   24.8877 C   0  0  0  0  0  0  0  0  0  0  0  0
   19.5893   18.2138   24.5141 H   0  0  0  0  0  0  0  0  0  0  0  0
   18.1150   19.1292   24.8365 H   0  0  0  0  0  0  0  0  0  0  0  0
   19.6510   19.3502   26.3580 C   0  0  0  0  0  0  0  0  0  0  0  0
   20.7469   19.3951   26.4134 H   0  0  0  0  0  0  0  0  0  0  0  0
   19.2689   20.3033   26.7475 H   0  0  0  0  0  0  0  0  0  0  0  0
   19.1407   18.1967   27.2393 C   0  0  0  0  0  0  0  0  0  0  0  0
   19.5322   17.2467   26.8656 H   0  0  0  0  0  0  0  0  0  0  0  0
   18.0487   18.1585   27.2000 H   0  0  0  0  0  0  0  0  0  0  0  0
   19.5519   18.3331   28.6910 N   0  3  0  0  0  0  0  0  0  0  0  0
   20.5715   18.3479   28.7993 H   0  0  0  0  0  0  0  0  0  0  0  0
   19.2021   17.5549   29.2608 H   0  0  0  0  0  0  0  0  0  0  0  0
   19.1910   19.1964   29.1106 H   0  0  0  0  0  0  0  0  0  0  0  0
  1  2  1  0  0  0  0
  1  3  1  0  0  0  0
  1  4  1  0  0  0  0
  1  5  1  0  0  0  0
  5  6  1  0  0  0  0
  5  7  1  0  0  0  0
  5  8  1  0  0  0  0
  8  9  1  0  0  0  0
  8 10  1  0  0  0  0
  8 11  1  0  0  0  0
 11 12  1  0  0  0  0
 11 13  1  0  0  0  0
 11 14  1  0  0  0  0
 14 15  1  0  0  0  0
 14 16  1  0  0  0  0
 14 17  1  0  0  0  0
 17 18  1  0  0  0  0
 17 19  1  0  0  0  0
 17 20  1  0  0  0  0
 20 21  1  0  0  0  0
 20 22  1  0  0  0  0
 20 23  1  0  0  0  0
 23 24  1  0  0  0  0
 23 25  1  0  0  0  0
 23 26  1  0  0  0  0
 26 27  1  0  0  0  0
 26 28  1  0  0  0  0
 26 29  1  0  0  0  0
M  END
> <VM2 Rank>
10

> <Conf_Id>
1678

> <Probability>
1.73

> <Sum Probability>
25.83

> <Delta G>
0.675

> <G>
58.823

> <E>
21.538

> <-TS>
37.285

> <U+W>
-2.607

> <U>
48.554

> <W>
-51.161

> <W(PB)>
-53.730

> <W(SA)>
2.569

> <Valence>
3.127

> <Coulomb>
44.585

> <VdW>
0.842

> <VdW6>
-7.592

> <VdW12>
8.435

> <Bond>
0.185

> <Angle>
0.660

> <Pdih>
2.281

> <Idih>
0.000

> <Tether>
0.000

$$$$
VeraChem MOL file


 29 28  0  0  0  0  0  0  0  0999 V2000     
   20.5426   19.2798   19.2706 C   0  0  0  0  0  0  0  0  0  0  0  0
   20.9996   18.2831   19.2147 H   0  0  0  0  0  0  0  0  0  0  0  0
   19.7070   19.3133   18.5594 H   0  0  0  0  0  0  0  0  0  0  0  0
   21.2918   20.0130   18.9448 H   0  0  0  0  0  0  0  0  0  0  0  0
   20.0640   19.5903   20.7047 C   0  0  0  0  0  0  0  0  0  0  0  0
   19.6390   20.6032   20.7355 H   0  0  0  0  0  0  0  0  0  0  0  0
   20.9316   19.5878   21.3777 H   0  0  0  0  0  0  0  0  0  0  0  0
   19.0098   18.5664   21.1877 C   0  0  0  0  0  0  0  0  0  0  0  0
   18.1895   18.5280   20.4577 H   0  0  0  0  0  0  0  0  0  0  0  0
   19.4519   17.5607   21.2074 H   0  0  0  0  0  0  0  0  0  0  0  0
   18.4139   18.8988   22.5776 C   0  0  0  0  0  0  0  0  0  0  0  0
   17.5972   18.1929   22.7830 H   0  0  0  0  0  0  0  0  0  0  0  0
   17.9585   19.8984   22.5528 H   0  0  0  0  0  0  0  0  0  0  0  0
   19.4463   18.8230   23.7280 C   0  0  0  0  0  0  0  0  0  0  0  0
   19.9389   17.8410   23.7148 H   0  0  0  0  0  0  0  0  0  0  0  0
   20.2307   19.5763   23.5779 H   0  0  0  0  0  0  0  0  0  0  0  0
   18.7855   19.0501   25.1064 C   0  0  0  0  0  0  0  0  0  0  0  0
   18.0030   18.2956   25.2684 H   0  0  0  0  0  0  0  0  0  0  0  0
   18.2891   20.0306   25.1187 H   0  0  0  0  0  0  0  0  0  0  0  0
   19.8138   18.9794   26.2567 C   0  0  0  0  0  0  0  0  0  0  0  0
   20.3088   17.9991   26.2504 H   0  0  0  0  0  0  0  0  0  0  0  0
   20.5945   19.7361   26.1021 H   0  0  0  0  0  0  0  0  0  0  0  0
   19.1452   19.2061   27.6239 C   0  0  0  0  0  0  0  0  0  0  0  0
   18.3782   18.4448   27.7896 H   0  0  0  0  0  0  0  0  0  0  0  0
   18.6649   20.1882   27.6406 H   0  0  0  0  0  0  0  0  0  0  0  0
   20.1229   19.1442   28.7795 N   0  3  0  0  0  0  0  0  0  0  0  0
   20.5902   18.2331   28.8360 H   0  0  0  0  0  0  0  0  0  0  0  0
   19.6574   19.2977   29.6809 H   0  0  0  0  0  0  0  0  0  0  0  0
   20.8569   19.8555   28.6973 H   0  0  0  0  0  0  0  0  0  0  0  0
  1  2  1  0  0  0  0
  1  3  1  0  0  0  0
  1  4  1  0  0  0  0
  1  5  1  0  0  0  0
  5  6  1  0  0  0  0
  5  7  1  0  0  0  0
  5  8  1  0  0  0  0
  8  9  1  0  0  0  0
  8 10  1  0  0  0  0
  8 11  1  0  0  0  0
 11 12  1  0  0  0  0
 11 13  1  0  0  0  0
 11 14  1  0  0  0  0
 14 15  1  0  0  0  0
 14 16  1  0  0  0  0
 14 17  1  0  0  0  0
 17 18  1  0  0  0  0
 17 19  1  0  0  0  0
 17 20  1  0  0  0  0
 20 21  1  0  0  0  0
 20 22  1  0  0  0  0
 20 23  1  0  0  0  0
 23 24  1  0  0  0  0
 23 25  1  0  0  0  0
 23 26  1  0  0  0  0
 26 27  1  0  0  0  0
 26 28  1  0  0  0  0
 26 29  1  0  0  0  0
M  END
> <VM2 Rank>
11

> <Conf_Id>
1077

> <Probability>
1.65

> <Sum Probability>
27.48

> <Delta G>
0.703

> <G>
58.851

> <E>
21.568

> <-TS>
37.284

> <U+W>
-2.577

> <U>
48.495

> <W>
-51.072

> <W(PB)>
-53.644

> <W(SA)>
2.572

> <Valence>
3.129

> <Coulomb>
44.512

> <VdW>
0.854

> <VdW6>
-7.566

> <VdW12>
8.420

> <Bond>
0.184

> <Angle>
0.664

> <Pdih>
2.281

> <Idih>
0.000

> <Tether>
0.000

$$$$
VeraChem MOL file


 29 28  0  0  0  0  0  0  0  0999 V2000     
   19.8228   18.4685   19.1102 C   0  0  0  0  0  0  0  0  0  0  0  0
   20.9195   18.4231   19.0900 H   0  0  0  0  0  0  0  0  0  0  0  0
   19.4405   17.6798   18.4493 H   0  0  0  0  0  0  0  0  0  0  0  0
   19.5129   19.4362   18.6946 H   0  0  0  0  0  0  0  0  0  0  0  0
   19.2866   18.2840   20.5456 C   0  0  0  0  0  0  0  0  0  0  0  0
   19.5836   17.2949   20.9213 H   0  0  0  0  0  0  0  0  0  0  0  0
   18.1878   18.3003   20.5292 H   0  0  0  0  0  0  0  0  0  0  0  0
   19.8102   19.3824   21.4972 C   0  0  0  0  0  0  0  0  0  0  0  0
   20.9088   19.3636   21.5091 H   0  0  0  0  0  0  0  0  0  0  0  0
   19.5132   20.3691   21.1155 H   0  0  0  0  0  0  0  0  0  0  0  0
   19.2750   19.2014   22.9356 C   0  0  0  0  0  0  0  0  0  0  0  0
   19.5704   18.2108   23.3054 H   0  0  0  0  0  0  0  0  0  0  0  0
   18.1766   19.2243   22.9233 H   0  0  0  0  0  0  0  0  0  0  0  0
   19.8047   20.3009   23.8872 C   0  0  0  0  0  0  0  0  0  0  0  0
   20.9006   20.2454   23.9444 H   0  0  0  0  0  0  0  0  0  0  0  0
   19.5677   21.2860   23.4620 H   0  0  0  0  0  0  0  0  0  0  0  0
   19.2065   20.2264   25.3134 C   0  0  0  0  0  0  0  0  0  0  0  0
   18.1114   20.2991   25.2579 H   0  0  0  0  0  0  0  0  0  0  0  0
   19.5453   21.1053   25.8795 H   0  0  0  0  0  0  0  0  0  0  0  0
   19.6056   18.9476   26.0864 C   0  0  0  0  0  0  0  0  0  0  0  0
   19.2046   18.0597   25.5816 H   0  0  0  0  0  0  0  0  0  0  0  0
   20.6992   18.8485   26.0978 H   0  0  0  0  0  0  0  0  0  0  0  0
   19.0805   18.9810   27.5324 C   0  0  0  0  0  0  0  0  0  0  0  0
   17.9903   19.0631   27.5263 H   0  0  0  0  0  0  0  0  0  0  0  0
   19.4885   19.8520   28.0523 H   0  0  0  0  0  0  0  0  0  0  0  0
   19.4521   17.7459   28.3271 N   0  3  0  0  0  0  0  0  0  0  0  0
   19.0737   16.8916   27.9045 H   0  0  0  0  0  0  0  0  0  0  0  0
   19.0931   17.7887   29.2873 H   0  0  0  0  0  0  0  0  0  0  0  0
   20.4683   17.6258   28.3932 H   0  0  0  0  0  0  0  0  0  0  0  0
  1  2  1  0  0  0  0
  1  3  1  0  0  0  0
  1  4  1  0  0  0  0
  1  5  1  0  0  0  0
  5  6  1  0  0  0  0
  5  7  1  0  0  0  0
  5  8  1  0  0  0  0
  8  9  1  0  0  0  0
  8 10  1  0  0  0  0
  8 11  1  0  0  0  0
 11 12  1  0  0  0  0
 11 13  1  0  0  0  0
 11 14  1  0  0  0  0
 14 15  1  0  0  0  0
 14 16  1  0  0  0  0
 14 17  1  0  0  0  0
 17 18  1  0  0  0  0
 17 19  1  0  0  0  0
 17 20  1  0  0  0  0
 20 21  1  0  0  0  0
 20 22  1  0  0  0  0
 20 23  1  0  0  0  0
 23 24  1  0  0  0  0
 23 25  1  0  0  0  0
 23 26  1  0  0  0  0
 26 27  1  0  0  0  0
 26 28  1  0  0  0  0
 26 29  1  0  0  0  0
M  END
> <VM2 Rank>
12

> <Conf_Id>
2405

> <Probability>
1.64

> <Sum Probability>
29.12

> <Delta G>
0.709

> <G>
58.857

> <E>
21.572

> <-TS>
37.285

> <U+W>
-2.572

> <U>
48.759

> <W>
-51.331

> <W(PB)>
-53.903

> <W(SA)>
2.571

> <Valence>
3.125

> <Coulomb>
44.794

> <VdW>
0.839

> <VdW6>
-7.584

> <VdW12>
8.423

> <Bond>
0.184

> <Angle>
0.663

> <Pdih>
2.279

> <Idih>
0.000

> <Tether>
0.000

$$$$
VeraChem MOL file


 29 28  0  0  0  0  0  0  0  0999 V2000     
   20.1878   19.4930   19.1332 C   0  0  0  0  0  0  0  0  0  0  0  0
   21.0665   18.8359   19.0993 H   0  0  0  0  0  0  0  0  0  0  0  0
   19.3419   18.9565   18.6839 H   0  0  0  0  0  0  0  0  0  0  0  0
   20.3994   20.3713   18.5096 H   0  0  0  0  0  0  0  0  0  0  0  0
   19.8685   19.9177   20.5821 C   0  0  0  0  0  0  0  0  0  0  0  0
   19.0070   20.6001   20.5806 H   0  0  0  0  0  0  0  0  0  0  0  0
   20.7184   20.4807   20.9927 H   0  0  0  0  0  0  0  0  0  0  0  0
   19.5667   18.6989   21.4819 C   0  0  0  0  0  0  0  0  0  0  0  0
   18.7184   18.1380   21.0656 H   0  0  0  0  0  0  0  0  0  0  0  0
   20.4297   18.0188   21.4790 H   0  0  0  0  0  0  0  0  0  0  0  0
   19.2460   19.1201   22.9338 C   0  0  0  0  0  0  0  0  0  0  0  0
   18.3804   19.7969   22.9361 H   0  0  0  0  0  0  0  0  0  0  0  0
   20.0955   19.6857   23.3384 H   0  0  0  0  0  0  0  0  0  0  0  0
   18.9484   17.8966   23.8335 C   0  0  0  0  0  0  0  0  0  0  0  0
   18.1483   17.3006   23.3730 H   0  0  0  0  0  0  0  0  0  0  0  0
   19.8320   17.2449   23.8773 H   0  0  0  0  0  0  0  0  0  0  0  0
   18.5118   18.2756   25.2699 C   0  0  0  0  0  0  0  0  0  0  0  0
   18.2113   17.3587   25.7959 H   0  0  0  0  0  0  0  0  0  0  0  0
   17.6179   18.9133   25.2271 H   0  0  0  0  0  0  0  0  0  0  0  0
   19.6182   18.9830   26.0871 C   0  0  0  0  0  0  0  0  0  0  0  0
   20.5283   18.3685   26.0868 H   0  0  0  0  0  0  0  0  0  0  0  0
   19.8752   19.9438   25.6236 H   0  0  0  0  0  0  0  0  0  0  0  0
   19.1698   19.2314   27.5379 C   0  0  0  0  0  0  0  0  0  0  0  0
   18.9287   18.2787   28.0171 H   0  0  0  0  0  0  0  0  0  0  0  0
   18.2729   19.8568   27.5442 H   0  0  0  0  0  0  0  0  0  0  0  0
   20.2269   19.9215   28.3756 N   0  3  0  0  0  0  0  0  0  0  0  0
   21.0895   19.3699   28.4319 H   0  0  0  0  0  0  0  0  0  0  0  0
   19.9082   20.0770   29.3384 H   0  0  0  0  0  0  0  0  0  0  0  0
   20.4791   20.8387   27.9926 H   0  0  0  0  0  0  0  0  0  0  0  0
  1  2  1  0  0  0  0
  1  3  1  0  0  0  0
  1  4  1  0  0  0  0
  1  5  1  0  0  0  0
  5  6  1  0  0  0  0
  5  7  1  0  0  0  0
  5  8  1  0  0  0  0
  8  9  1  0  0  0  0
  8 10  1  0  0  0  0
  8 11  1  0  0  0  0
 11 12  1  0  0  0  0
 11 13  1  0  0  0  0
 11 14  1  0  0  0  0
 14 15  1  0  0  0  0
 14 16  1  0  0  0  0
 14 17  1  0  0  0  0
 17 18  1  0  0  0  0
 17 19  1  0  0  0  0
 17 20  1  0  0  0  0
 20 21  1  0  0  0  0
 20 22  1  0  0  0  0
 20 23  1  0  0  0  0
 23 24  1  0  0  0  0
 23 25  1  0  0  0  0
 23 26  1  0  0  0  0
 26 27  1  0  0  0  0
 26 28  1  0  0  0  0
 26 29  1  0  0  0  0
M  END
> <VM2 Rank>
13

> <Conf_Id>
1676

> <Probability>
1.50

> <Sum Probability>
30.62

> <Delta G>
0.759

> <G>
58.907

> <E>
21.622

> <-TS>
37.285

> <U+W>
-2.523

> <U>
48.759

> <W>
-51.282

> <W(PB)>
-53.848

> <W(SA)>
2.566

> <Valence>
3.125

> <Coulomb>
44.794

> <VdW>
0.839

> <VdW6>
-7.584

> <VdW12>
8.424

> <Bond>
0.184

> <Angle>
0.663

> <Pdih>
2.279

> <Idih>
0.000

> <Tether>
0.000

$$$$
VeraChem MOL file


 29 28  0  0  0  0  0  0  0  0999 V2000     
   20.4662   19.1104   19.2526 C   0  0  0  0  0  0  0  0  0  0  0  0
   21.5123   19.3468   19.4869 H   0  0  0  0  0  0  0  0  0  0  0  0
   20.3886   18.0277   19.0884 H   0  0  0  0  0  0  0  0  0  0  0  0
   20.2097   19.6133   18.3111 H   0  0  0  0  0  0  0  0  0  0  0  0
   19.5265   19.5679   20.3882 C   0  0  0  0  0  0  0  0  0  0  0  0
   18.4858   19.3491   20.1107 H   0  0  0  0  0  0  0  0  0  0  0  0
   19.6009   20.6581   20.5061 H   0  0  0  0  0  0  0  0  0  0  0  0
   19.8663   18.8743   21.7259 C   0  0  0  0  0  0  0  0  0  0  0  0
   19.7928   17.7849   21.6026 H   0  0  0  0  0  0  0  0  0  0  0  0
   20.9080   19.0939   21.9979 H   0  0  0  0  0  0  0  0  0  0  0  0
   18.9273   19.3298   22.8655 C   0  0  0  0  0  0  0  0  0  0  0  0
   17.8859   19.1104   22.5921 H   0  0  0  0  0  0  0  0  0  0  0  0
   19.0012   20.4192   22.9882 H   0  0  0  0  0  0  0  0  0  0  0  0
   19.2674   18.6353   24.2034 C   0  0  0  0  0  0  0  0  0  0  0  0
   19.1898   17.5462   24.0808 H   0  0  0  0  0  0  0  0  0  0  0  0
   20.3111   18.8526   24.4668 H   0  0  0  0  0  0  0  0  0  0  0  0
   18.3272   19.0945   25.3434 C   0  0  0  0  0  0  0  0  0  0  0  0
   17.2852   18.9136   25.0454 H   0  0  0  0  0  0  0  0  0  0  0  0
   18.4191   20.1795   25.4865 H   0  0  0  0  0  0  0  0  0  0  0  0
   18.5904   18.3619   26.6828 C   0  0  0  0  0  0  0  0  0  0  0  0
   17.8636   18.7030   27.4320 H   0  0  0  0  0  0  0  0  0  0  0  0
   18.4101   17.2870   26.5487 H   0  0  0  0  0  0  0  0  0  0  0  0
   20.0160   18.5588   27.2369 C   0  0  0  0  0  0  0  0  0  0  0  0
   20.7478   18.1798   26.5190 H   0  0  0  0  0  0  0  0  0  0  0  0
   20.1262   17.9918   28.1653 H   0  0  0  0  0  0  0  0  0  0  0  0
   20.3568   20.0051   27.5363 N   0  3  0  0  0  0  0  0  0  0  0  0
   20.3005   20.5871   26.6947 H   0  0  0  0  0  0  0  0  0  0  0  0
   21.3074   20.1036   27.9093 H   0  0  0  0  0  0  0  0  0  0  0  0
   19.7188   20.4102   28.2291 H   0  0  0  0  0  0  0  0  0  0  0  0
  1  2  1  0  0  0  0
  1  3  1  0  0  0  0
  1  4  1  0  0  0  0
  1  5  1  0  0  0  0
  5  6  1  0  0  0  0
  5  7  1  0  0  0  0
  5  8  1  0  0  0  0
  8  9  1  0  0  0  0
  8 10  1  0  0  0  0
  8 11  1  0  0  0  0
 11 12  1  0  0  0  0
 11 13  1  0  0  0  0
 11 14  1  0  0  0  0
 14 15  1  0  0  0  0
 14 16  1  0  0  0  0
 14 17  1  0  0  0  0
 17 18  1  0  0  0  0
 17 19  1  0  0  0  0
 17 20  1  0  0  0  0
 20 21  1  0  0  0  0
 20 22  1  0  0  0  0
 20 23  1  0  0  0  0
 23 24  1  0  0  0  0
 23 25  1  0  0  0  0
 23 26  1  0  0  0  0
 26 27  1  0  0  0  0
 26 28  1  0  0  0  0
 26 29  1  0  0  0  0
M  END
> <VM2 Rank>
14

> <Conf_Id>
937

> <Probability>
1.35

> <Sum Probability>
31.97

> <Delta G>
0.826

> <G>
58.974

> <E>
21.503

> <-TS>
37.470

> <U+W>
-2.641

> <U>
49.111

> <W>
-51.752

> <W(PB)>
-54.272

> <W(SA)>
2.520

> <Valence>
2.969

> <Coulomb>
45.351

> <VdW>
0.791

> <VdW6>
-8.245

> <VdW12>
9.036

> <Bond>
0.191

> <Angle>
0.634

> <Pdih>
2.143

> <Idih>
0.000

> <Tether>
0.000

$$$$
VeraChem MOL file


 29 28  0  0  0  0  0  0  0  0999 V2000     
   18.5241   18.7330   19.6667 C   0  0  0  0  0  0  0  0  0  0  0  0
   17.6963   18.7412   20.3865 H   0  0  0  0  0  0  0  0  0  0  0  0
   18.1204   19.0492   18.6962 H   0  0  0  0  0  0  0  0  0  0  0  0
   18.8795   17.6996   19.5621 H   0  0  0  0  0  0  0  0  0  0  0  0
   19.6694   19.6723   20.1078 C   0  0  0  0  0  0  0  0  0  0  0  0
   19.2823   20.6930   20.2344 H   0  0  0  0  0  0  0  0  0  0  0  0
   20.4150   19.7239   19.3022 H   0  0  0  0  0  0  0  0  0  0  0  0
   20.3740   19.2148   21.4077 C   0  0  0  0  0  0  0  0  0  0  0  0
   20.7766   18.2019   21.2697 H   0  0  0  0  0  0  0  0  0  0  0  0
   21.2383   19.8697   21.5847 H   0  0  0  0  0  0  0  0  0  0  0  0
   19.4538   19.2458   22.6515 C   0  0  0  0  0  0  0  0  0  0  0  0
   18.6218   18.5418   22.5184 H   0  0  0  0  0  0  0  0  0  0  0  0
   19.0124   20.2465   22.7562 H   0  0  0  0  0  0  0  0  0  0  0  0
   20.2222   18.8827   23.9422 C   0  0  0  0  0  0  0  0  0  0  0  0
   20.6670   17.8837   23.8346 H   0  0  0  0  0  0  0  0  0  0  0  0
   21.0531   19.5873   24.0855 H   0  0  0  0  0  0  0  0  0  0  0  0
   19.3042   18.9086   25.1851 C   0  0  0  0  0  0  0  0  0  0  0  0
   18.4750   18.2015   25.0435 H   0  0  0  0  0  0  0  0  0  0  0  0
   18.8584   19.9073   25.2844 H   0  0  0  0  0  0  0  0  0  0  0  0
   20.0755   18.5458   26.4760 C   0  0  0  0  0  0  0  0  0  0  0  0
   20.5481   17.5622   26.3529 H   0  0  0  0  0  0  0  0  0  0  0  0
   20.8881   19.2652   26.6438 H   0  0  0  0  0  0  0  0  0  0  0  0
   19.1662   18.4977   27.7189 C   0  0  0  0  0  0  0  0  0  0  0  0
   19.7467   18.1560   28.5802 H   0  0  0  0  0  0  0  0  0  0  0  0
   18.3522   17.7869   27.5524 H   0  0  0  0  0  0  0  0  0  0  0  0
   18.5547   19.8373   28.0791 N   0  3  0  0  0  0  0  0  0  0  0  0
   19.2725   20.5441   28.2701 H   0  0  0  0  0  0  0  0  0  0  0  0
   17.9655   19.7741   28.9166 H   0  0  0  0  0  0  0  0  0  0  0  0
   17.9650   20.2003   27.3236 H   0  0  0  0  0  0  0  0  0  0  0  0
  1  2  1  0  0  0  0
  1  3  1  0  0  0  0
  1  4  1  0  0  0  0
  1  5  1  0  0  0  0
  5  6  1  0  0  0  0
  5  7  1  0  0  0  0
  5  8  1  0  0  0  0
  8  9  1  0  0  0  0
  8 10  1  0  0  0  0
  8 11  1  0  0  0  0
 11 12  1  0  0  0  0
 11 13  1  0  0  0  0
 11 14  1  0  0  0  0
 14 15  1  0  0  0  0
 14 16  1  0  0  0  0
 14 17  1  0  0  0  0
 17 18  1  0  0  0  0
 17 19  1  0  0  0  0
 17 20  1  0  0  0  0
 20 21  1  0  0  0  0
 20 22  1  0  0  0  0
 20 23  1  0  0  0  0
 23 24  1  0  0  0  0
 23 25  1  0  0  0  0
 23 26  1  0  0  0  0
 26 27  1  0  0  0  0
 26 28  1  0  0  0  0
 26 29  1  0  0  0  0
M  END
> <VM2 Rank>
15

> <Conf_Id>
453

> <Probability>
1.26

> <Sum Probability>
33.23

> <Delta G>
0.866

> <G>
59.014

> <E>
21.615

> <-TS>
37.399

> <U+W>
-2.529

> <U>
48.927

> <W>
-51.456

> <W(PB)>
-53.985

> <W(SA)>
2.528

> <Valence>
3.189

> <Coulomb>
44.764

> <VdW>
0.974

> <VdW6>
-8.049

> <VdW12>
9.023

> <Bond>
0.200

> <Angle>
0.679

> <Pdih>
2.310

> <Idih>
0.000

> <Tether>
0.000

$$$$
VeraChem MOL file


 29 28  0  0  0  0  0  0  0  0999 V2000     
   20.2788   18.5838   19.2410 C   0  0  0  0  0  0  0  0  0  0  0  0
   20.9371   17.7307   19.4511 H   0  0  0  0  0  0  0  0  0  0  0  0
   19.7757   18.3936   18.2840 H   0  0  0  0  0  0  0  0  0  0  0  0
   20.9050   19.4775   19.1209 H   0  0  0  0  0  0  0  0  0  0  0  0
   19.2455   18.7783   20.3706 C   0  0  0  0  0  0  0  0  0  0  0  0
   18.6128   17.8827   20.4443 H   0  0  0  0  0  0  0  0  0  0  0  0
   18.5809   19.6160   20.1166 H   0  0  0  0  0  0  0  0  0  0  0  0
   19.9280   19.0479   21.7298 C   0  0  0  0  0  0  0  0  0  0  0  0
   20.5930   18.2091   21.9784 H   0  0  0  0  0  0  0  0  0  0  0  0
   20.5609   19.9427   21.6508 H   0  0  0  0  0  0  0  0  0  0  0  0
   18.8964   19.2433   22.8636 C   0  0  0  0  0  0  0  0  0  0  0  0
   18.2638   18.3483   22.9420 H   0  0  0  0  0  0  0  0  0  0  0  0
   18.2317   20.0818   22.6137 H   0  0  0  0  0  0  0  0  0  0  0  0
   19.5797   19.5131   24.2230 C   0  0  0  0  0  0  0  0  0  0  0  0
   20.2478   18.6752   24.4629 H   0  0  0  0  0  0  0  0  0  0  0  0
   20.2093   20.4103   24.1448 H   0  0  0  0  0  0  0  0  0  0  0  0
   18.5448   19.7063   25.3571 C   0  0  0  0  0  0  0  0  0  0  0  0
   17.9287   18.8025   25.4558 H   0  0  0  0  0  0  0  0  0  0  0  0
   17.8557   20.5164   25.0813 H   0  0  0  0  0  0  0  0  0  0  0  0
   19.1928   20.0541   26.7207 C   0  0  0  0  0  0  0  0  0  0  0  0
   19.7338   21.0055   26.6320 H   0  0  0  0  0  0  0  0  0  0  0  0
   18.4034   20.2192   27.4659 H   0  0  0  0  0  0  0  0  0  0  0  0
   20.1657   18.9791   27.2462 C   0  0  0  0  0  0  0  0  0  0  0  0
   20.5961   19.3116   28.1948 H   0  0  0  0  0  0  0  0  0  0  0  0
   20.9825   18.8390   26.5336 H   0  0  0  0  0  0  0  0  0  0  0  0
   19.5122   17.6322   27.4829 N   0  3  0  0  0  0  0  0  0  0  0  0
   18.7520   17.6938   28.1681 H   0  0  0  0  0  0  0  0  0  0  0  0
   20.1816   16.9407   27.8381 H   0  0  0  0  0  0  0  0  0  0  0  0
   19.1129   17.2505   26.6197 H   0  0  0  0  0  0  0  0  0  0  0  0
  1  2  1  0  0  0  0
  1  3  1  0  0  0  0
  1  4  1  0  0  0  0
  1  5  1  0  0  0  0
  5  6  1  0  0  0  0
  5  7  1  0  0  0  0
  5  8  1  0  0  0  0
  8  9  1  0  0  0  0
  8 10  1  0  0  0  0
  8 11  1  0  0  0  0
 11 12  1  0  0  0  0
 11 13  1  0  0  0  0
 11 14  1  0  0  0  0
 14 15  1  0  0  0  0
 14 16  1  0  0  0  0
 14 17  1  0  0  0  0
 17 18  1  0  0  0  0
 17 19  1  0  0  0  0
 17 20  1  0  0  0  0
 20 21  1  0  0  0  0
 20 22  1  0  0  0  0
 20 23  1  0  0  0  0
 23 24  1  0  0  0  0
 23 25  1  0  0  0  0
 23 26  1  0  0  0  0
 26 27  1  0  0  0  0
 26 28  1  0  0  0  0
 26 29  1  0  0  0  0
M  END
> <VM2 Rank>
16

> <Conf_Id>
197

> <Probability>
1.25

> <Sum Probability>
34.47

> <Delta G>
0.871

> <G>
59.019

> <E>
21.548

> <-TS>
37.471

> <U+W>
-2.597

> <U>
49.111

> <W>
-51.708

> <W(PB)>
-54.236

> <W(SA)>
2.528

> <Valence>
2.968

> <Coulomb>
45.352

> <VdW>
0.791

> <VdW6>
-8.246

> <VdW12>
9.037

> <Bond>
0.191

> <Angle>
0.634

> <Pdih>
2.143

> <Idih>
0.000

> <Tether>
0.000

$$$$
VeraChem MOL file


 29 28  0  0  0  0  0  0  0  0999 V2000     
   19.6429   17.7813   19.7999 C   0  0  0  0  0  0  0  0  0  0  0  0
   19.2922   17.4736   18.8062 H   0  0  0  0  0  0  0  0  0  0  0  0
   20.7247   17.6005   19.8451 H   0  0  0  0  0  0  0  0  0  0  0  0
   19.1543   17.1326   20.5373 H   0  0  0  0  0  0  0  0  0  0  0  0
   19.3176   19.2712   20.0505 C   0  0  0  0  0  0  0  0  0  0  0  0
   18.2290   19.4204   20.0301 H   0  0  0  0  0  0  0  0  0  0  0  0
   19.7251   19.8668   19.2216 H   0  0  0  0  0  0  0  0  0  0  0  0
   19.8951   19.8116   21.3808 C   0  0  0  0  0  0  0  0  0  0  0  0
   20.9858   19.6789   21.3880 H   0  0  0  0  0  0  0  0  0  0  0  0
   19.7151   20.8946   21.4246 H   0  0  0  0  0  0  0  0  0  0  0  0
   19.2801   19.1463   22.6353 C   0  0  0  0  0  0  0  0  0  0  0  0
   19.5132   18.0735   22.6415 H   0  0  0  0  0  0  0  0  0  0  0  0
   18.1857   19.2356   22.5985 H   0  0  0  0  0  0  0  0  0  0  0  0
   19.8066   19.7861   23.9398 C   0  0  0  0  0  0  0  0  0  0  0  0
   20.9015   19.6996   23.9744 H   0  0  0  0  0  0  0  0  0  0  0  0
   19.5720   20.8595   23.9428 H   0  0  0  0  0  0  0  0  0  0  0  0
   19.1964   19.1209   25.1941 C   0  0  0  0  0  0  0  0  0  0  0  0
   19.4302   18.0479   25.1843 H   0  0  0  0  0  0  0  0  0  0  0  0
   18.1016   19.2094   25.1604 H   0  0  0  0  0  0  0  0  0  0  0  0
   19.7250   19.7625   26.4987 C   0  0  0  0  0  0  0  0  0  0  0  0
   20.8160   19.6521   26.5575 H   0  0  0  0  0  0  0  0  0  0  0  0
   19.5195   20.8412   26.4826 H   0  0  0  0  0  0  0  0  0  0  0  0
   19.0784   19.1620   27.7618 C   0  0  0  0  0  0  0  0  0  0  0  0
   17.9914   19.2645   27.7033 H   0  0  0  0  0  0  0  0  0  0  0  0
   19.4259   19.7090   28.6424 H   0  0  0  0  0  0  0  0  0  0  0  0
   19.4019   17.6961   27.9740 N   0  3  0  0  0  0  0  0  0  0  0  0
   19.0692   17.1179   27.1960 H   0  0  0  0  0  0  0  0  0  0  0  0
   18.9670   17.3301   28.8282 H   0  0  0  0  0  0  0  0  0  0  0  0
   20.4113   17.5379   28.0599 H   0  0  0  0  0  0  0  0  0  0  0  0
  1  2  1  0  0  0  0
  1  3  1  0  0  0  0
  1  4  1  0  0  0  0
  1  5  1  0  0  0  0
  5  6  1  0  0  0  0
  5  7  1  0  0  0  0
  5  8  1  0  0  0  0
  8  9  1  0  0  0  0
  8 10  1  0  0  0  0
  8 11  1  0  0  0  0
 11 12  1  0  0  0  0
 11 13  1  0  0  0  0
 11 14  1  0  0  0  0
 14 15  1  0  0  0  0
 14 16  1  0  0  0  0
 14 17  1  0  0  0  0
 17 18  1  0  0  0  0
 17 19  1  0  0  0  0
 17 20  1  0  0  0  0
 20 21  1  0  0  0  0
 20 22  1  0  0  0  0
 20 23  1  0  0  0  0
 23 24  1  0  0  0  0
 23 25  1  0  0  0  0
 23 26  1  0  0  0  0
 26 27  1  0  0  0  0
 26 28  1  0  0  0  0
 26 29  1  0  0  0  0
M  END
> <VM2 Rank>
17

> <Conf_Id>
2245

> <Probability>
1.23

> <Sum Probability>
35.70

> <Delta G>
0.878

> <G>
59.026

> <E>
21.627

> <-TS>
37.399

> <U+W>
-2.517

> <U>
48.959

> <W>
-51.476

> <W(PB)>
-53.979

> <W(SA)>
2.503

> <Valence>
3.188

> <Coulomb>
44.796

> <VdW>
0.974

> <VdW6>
-8.050

> <VdW12>
9.023

> <Bond>
0.200

> <Angle>
0.679

> <Pdih>
2.310

> <Idih>
0.000

> <Tether>
0.000

$$$$
VeraChem MOL file


 29 28  0  0  0  0  0  0  0  0999 V2000     
   21.0553   19.6200   19.8689 C   0  0  0  0  0  0  0  0  0  0  0  0
   20.9869   19.9716   18.8313 H   0  0  0  0  0  0  0  0  0  0  0  0
   21.6403   20.3556   20.4362 H   0  0  0  0  0  0  0  0  0  0  0  0
   21.6075   18.6712   19.8677 H   0  0  0  0  0  0  0  0  0  0  0  0
   19.6482   19.4418   20.4776 C   0  0  0  0  0  0  0  0  0  0  0  0
   19.0761   18.7274   19.8691 H   0  0  0  0  0  0  0  0  0  0  0  0
   19.1086   20.3983   20.4350 H   0  0  0  0  0  0  0  0  0  0  0  0
   19.7158   18.9462   21.9390 C   0  0  0  0  0  0  0  0  0  0  0  0
   20.2539   17.9890   21.9762 H   0  0  0  0  0  0  0  0  0  0  0  0
   20.2973   19.6633   22.5329 H   0  0  0  0  0  0  0  0  0  0  0  0
   18.3054   18.7716   22.5516 C   0  0  0  0  0  0  0  0  0  0  0  0
   17.7123   18.1143   21.9008 H   0  0  0  0  0  0  0  0  0  0  0  0
   17.7857   19.7395   22.5680 H   0  0  0  0  0  0  0  0  0  0  0  0
   18.3187   18.1660   23.9767 C   0  0  0  0  0  0  0  0  0  0  0  0
   17.2810   17.9684   24.2792 H   0  0  0  0  0  0  0  0  0  0  0  0
   18.8251   17.1910   23.9572 H   0  0  0  0  0  0  0  0  0  0  0  0
   18.9861   19.0803   25.0321 C   0  0  0  0  0  0  0  0  0  0  0  0
   18.5117   20.0713   25.0115 H   0  0  0  0  0  0  0  0  0  0  0  0
   20.0437   19.2255   24.7794 H   0  0  0  0  0  0  0  0  0  0  0  0
   18.8741   18.4858   26.4559 C   0  0  0  0  0  0  0  0  0  0  0  0
   17.8167   18.3120   26.6958 H   0  0  0  0  0  0  0  0  0  0  0  0
   19.3694   17.5064   26.4947 H   0  0  0  0  0  0  0  0  0  0  0  0
   19.4726   19.4083   27.5352 C   0  0  0  0  0  0  0  0  0  0  0  0
   19.2880   18.9778   28.5232 H   0  0  0  0  0  0  0  0  0  0  0  0
   18.9873   20.3871   27.4934 H   0  0  0  0  0  0  0  0  0  0  0  0
   20.9678   19.6182   27.3979 N   0  3  0  0  0  0  0  0  0  0  0  0
   21.3364   20.2252   28.1383 H   0  0  0  0  0  0  0  0  0  0  0  0
   21.2087   20.0556   26.5030 H   0  0  0  0  0  0  0  0  0  0  0  0
   21.4826   18.7331   27.4518 H   0  0  0  0  0  0  0  0  0  0  0  0
  1  2  1  0  0  0  0
  1  3  1  0  0  0  0
  1  4  1  0  0  0  0
  1  5  1  0  0  0  0
  5  6  1  0  0  0  0
  5  7  1  0  0  0  0
  5  8  1  0  0  0  0
  8  9  1  0  0  0  0
  8 10  1  0  0  0  0
  8 11  1  0  0  0  0
 11 12  1  0  0  0  0
 11 13  1  0  0  0  0
 11 14  1  0  0  0  0
 14 15  1  0  0  0  0
 14 16  1  0  0  0  0
 14 17  1  0  0  0  0
 17 18  1  0  0  0  0
 17 19  1  0  0  0  0
 17 20  1  0  0  0  0
 20 21  1  0  0  0  0
 20 22  1  0  0  0  0
 20 23  1  0  0  0  0
 23 24  1  0  0  0  0
 23 25  1  0  0  0  0
 23 26  1  0  0  0  0
 26 27  1  0  0  0  0
 26 28  1  0  0  0  0
 26 29  1  0  0  0  0
M  END
> <VM2 Rank>
18

> <Conf_Id>
2522

> <Probability>
1.15

> <Sum Probability>
36.85

> <Delta G>
0.921

> <G>
59.069

> <E>
21.686

> <-TS>
37.383

> <U+W>
-2.459

> <U>
49.501

> <W>
-51.960

> <W(PB)>
-54.464

> <W(SA)>
2.504

> <Valence>
3.224

> <Coulomb>
45.341

> <VdW>
0.937

> <VdW6>
-8.143

> <VdW12>
9.080

> <Bond>
0.206

> <Angle>
0.695

> <Pdih>
2.322

> <Idih>
0.000

> <Tether>
0.000

$$$$
VeraChem MOL file


 29 28  0  0  0  0  0  0  0  0999 V2000     
   20.4729   20.1110   19.8518 C   0  0  0  0  0  0  0  0  0  0  0  0
   21.4246   19.5652   19.8887 H   0  0  0  0  0  0  0  0  0  0  0  0
   20.4097   20.6103   18.8763 H   0  0  0  0  0  0  0  0  0  0  0  0
   20.4942   20.8927   20.6213 H   0  0  0  0  0  0  0  0  0  0  0  0
   19.2754   19.1538   20.0479 C   0  0  0  0  0  0  0  0  0  0  0  0
   19.2262   18.4683   19.1904 H   0  0  0  0  0  0  0  0  0  0  0  0
   18.3381   19.7274   20.0372 H   0  0  0  0  0  0  0  0  0  0  0  0
   19.3627   18.3178   21.3474 C   0  0  0  0  0  0  0  0  0  0  0  0
   18.5381   17.5916   21.3507 H   0  0  0  0  0  0  0  0  0  0  0  0
   20.2916   17.7309   21.3443 H   0  0  0  0  0  0  0  0  0  0  0  0
   19.2889   19.1715   22.6359 C   0  0  0  0  0  0  0  0  0  0  0  0
   18.3847   19.7952   22.6113 H   0  0  0  0  0  0  0  0  0  0  0  0
   20.1473   19.8546   22.6811 H   0  0  0  0  0  0  0  0  0  0  0  0
   19.2748   18.2918   23.9064 C   0  0  0  0  0  0  0  0  0  0  0  0
   18.4149   17.6087   23.8702 H   0  0  0  0  0  0  0  0  0  0  0  0
   20.1777   17.6659   23.9288 H   0  0  0  0  0  0  0  0  0  0  0  0
   19.2043   19.1425   25.1947 C   0  0  0  0  0  0  0  0  0  0  0  0
   18.2999   19.7665   25.1731 H   0  0  0  0  0  0  0  0  0  0  0  0
   20.0631   19.8262   25.2239 H   0  0  0  0  0  0  0  0  0  0  0  0
   19.1908   18.2600   26.4652 C   0  0  0  0  0  0  0  0  0  0  0  0
   18.3509   17.5548   26.4092 H   0  0  0  0  0  0  0  0  0  0  0  0
   20.1058   17.6546   26.5127 H   0  0  0  0  0  0  0  0  0  0  0  0
   19.0507   19.0832   27.7601 C   0  0  0  0  0  0  0  0  0  0  0  0
   18.9628   18.4051   28.6133 H   0  0  0  0  0  0  0  0  0  0  0  0
   18.1437   19.6918   27.7131 H   0  0  0  0  0  0  0  0  0  0  0  0
   20.2235   20.0064   28.0256 N   0  3  0  0  0  0  0  0  0  0  0  0
   20.3411   20.6952   27.2759 H   0  0  0  0  0  0  0  0  0  0  0  0
   21.1052   19.4887   28.1032 H   0  0  0  0  0  0  0  0  0  0  0  0
   20.1053   20.5304   28.8997 H   0  0  0  0  0  0  0  0  0  0  0  0
  1  2  1  0  0  0  0
  1  3  1  0  0  0  0
  1  4  1  0  0  0  0
  1  5  1  0  0  0  0
  5  6  1  0  0  0  0
  5  7  1  0  0  0  0
  5  8  1  0  0  0  0
  8  9  1  0  0  0  0
  8 10  1  0  0  0  0
  8 11  1  0  0  0  0
 11 12  1  0  0  0  0
 11 13  1  0  0  0  0
 11 14  1  0  0  0  0
 14 15  1  0  0  0  0
 14 16  1  0  0  0  0
 14 17  1  0  0  0  0
 17 18  1  0  0  0  0
 17 19  1  0  0  0  0
 17 20  1  0  0  0  0
 20 21  1  0  0  0  0
 20 22  1  0  0  0  0
 20 23  1  0  0  0  0
 23 24  1  0  0  0  0
 23 25  1  0  0  0  0
 23 26  1  0  0  0  0
 26 27  1  0  0  0  0
 26 28  1  0  0  0  0
 26 29  1  0  0  0  0
M  END
> <VM2 Rank>
19

> <Conf_Id>
198

> <Probability>
1.13

> <Sum Probability>
37.99

> <Delta G>
0.927

> <G>
59.075

> <E>
21.677

> <-TS>
37.399

> <U+W>
-2.468

> <U>
48.959

> <W>
-51.426

> <W(PB)>
-53.953

> <W(SA)>
2.526

> <Valence>
3.188

> <Coulomb>
44.796

> <VdW>
0.974

> <VdW6>
-8.049

> <VdW12>
9.023

> <Bond>
0.200

> <Angle>
0.679

> <Pdih>
2.310

> <Idih>
0.000

> <Tether>
0.000

$$$$
VeraChem MOL file


 29 28  0  0  0  0  0  0  0  0999 V2000     
   19.0039   20.0853   19.6970 C   0  0  0  0  0  0  0  0  0  0  0  0
   18.3457   20.5718   20.4274 H   0  0  0  0  0  0  0  0  0  0  0  0
   19.9322   20.6671   19.6285 H   0  0  0  0  0  0  0  0  0  0  0  0
   18.5049   20.1328   18.7203 H   0  0  0  0  0  0  0  0  0  0  0  0
   19.2952   18.6178   20.0843 C   0  0  0  0  0  0  0  0  0  0  0  0
   19.8530   18.1400   19.2668 H   0  0  0  0  0  0  0  0  0  0  0  0
   18.3498   18.0650   20.1758 H   0  0  0  0  0  0  0  0  0  0  0  0
   20.1122   18.4772   21.3913 C   0  0  0  0  0  0  0  0  0  0  0  0
   20.3683   17.4178   21.5300 H   0  0  0  0  0  0  0  0  0  0  0  0
   21.0650   19.0146   21.2878 H   0  0  0  0  0  0  0  0  0  0  0  0
   19.3608   18.9838   22.6456 C   0  0  0  0  0  0  0  0  0  0  0  0
   18.3862   18.4816   22.7169 H   0  0  0  0  0  0  0  0  0  0  0  0
   19.1602   20.0591   22.5522 H   0  0  0  0  0  0  0  0  0  0  0  0
   20.1681   18.7302   23.9388 C   0  0  0  0  0  0  0  0  0  0  0  0
   20.3674   17.6545   24.0424 H   0  0  0  0  0  0  0  0  0  0  0  0
   21.1444   19.2290   23.8646 H   0  0  0  0  0  0  0  0  0  0  0  0
   19.4215   19.2392   25.1924 C   0  0  0  0  0  0  0  0  0  0  0  0
   18.4448   18.7415   25.2584 H   0  0  0  0  0  0  0  0  0  0  0  0
   19.2252   20.3156   25.0907 H   0  0  0  0  0  0  0  0  0  0  0  0
   20.2308   18.9834   26.4858 C   0  0  0  0  0  0  0  0  0  0  0  0
   20.4061   17.9069   26.6135 H   0  0  0  0  0  0  0  0  0  0  0  0
   21.2192   19.4533   26.3951 H   0  0  0  0  0  0  0  0  0  0  0  0
   19.5377   19.5445   27.7422 C   0  0  0  0  0  0  0  0  0  0  0  0
   19.3560   20.6151   27.6154 H   0  0  0  0  0  0  0  0  0  0  0  0
   20.1915   19.4095   28.6082 H   0  0  0  0  0  0  0  0  0  0  0  0
   18.2137   18.8767   28.0576 N   0  3  0  0  0  0  0  0  0  0  0  0
   18.3229   17.8687   28.2105 H   0  0  0  0  0  0  0  0  0  0  0  0
   17.5379   18.9966   27.2966 H   0  0  0  0  0  0  0  0  0  0  0  0
   17.7843   19.2639   28.9050 H   0  0  0  0  0  0  0  0  0  0  0  0
  1  2  1  0  0  0  0
  1  3  1  0  0  0  0
  1  4  1  0  0  0  0
  1  5  1  0  0  0  0
  5  6  1  0  0  0  0
  5  7  1  0  0  0  0
  5  8  1  0  0  0  0
  8  9  1  0  0  0  0
  8 10  1  0  0  0  0
  8 11  1  0  0  0  0
 11 12  1  0  0  0  0
 11 13  1  0  0  0  0
 11 14  1  0  0  0  0
 14 15  1  0  0  0  0
 14 16  1  0  0  0  0
 14 17  1  0  0  0  0
 17 18  1  0  0  0  0
 17 19  1  0  0  0  0
 17 20  1  0  0  0  0
 20 21  1  0  0  0  0
 20 22  1  0  0  0  0
 20 23  1  0  0  0  0
 23 24  1  0  0  0  0
 23 25  1  0  0  0  0
 23 26  1  0  0  0  0
 26 27  1  0  0  0  0
 26 28  1  0  0  0  0
 26 29  1  0  0  0  0
M  END
> <VM2 Rank>
20

> <Conf_Id>
232

> <Probability>
1.13

> <Sum Probability>
39.11

> <Delta G>
0.930

> <G>
59.078

> <E>
21.680

> <-TS>
37.399

> <U+W>
-2.465

> <U>
48.927

> <W>
-51.392

> <W(PB)>
-53.929

> <W(SA)>
2.537

> <Valence>
3.189

> <Coulomb>
44.764

> <VdW>
0.974

> <VdW6>
-8.049

> <VdW12>
9.023

> <Bond>
0.200

> <Angle>
0.679

> <Pdih>
2.310

> <Idih>
0.000

> <Tether>
0.000

$$$$
VeraChem MOL file


 29 28  0  0  0  0  0  0  0  0999 V2000     
   19.3372   19.3951   19.1047 C   0  0  0  0  0  0  0  0  0  0  0  0
   18.5793   19.8118   18.4286 H   0  0  0  0  0  0  0  0  0  0  0  0
   20.2627   19.9699   18.9689 H   0  0  0  0  0  0  0  0  0  0  0  0
   19.5300   18.3589   18.7974 H   0  0  0  0  0  0  0  0  0  0  0  0
   18.8549   19.4585   20.5693 C   0  0  0  0  0  0  0  0  0  0  0  0
   17.9113   18.9035   20.6668 H   0  0  0  0  0  0  0  0  0  0  0  0
   18.6381   20.5022   20.8368 H   0  0  0  0  0  0  0  0  0  0  0  0
   19.9043   18.8778   21.5427 C   0  0  0  0  0  0  0  0  0  0  0  0
   20.1196   17.8355   21.2693 H   0  0  0  0  0  0  0  0  0  0  0  0
   20.8463   19.4343   21.4405 H   0  0  0  0  0  0  0  0  0  0  0  0
   19.4249   18.9393   23.0105 C   0  0  0  0  0  0  0  0  0  0  0  0
   18.4851   18.3792   23.1126 H   0  0  0  0  0  0  0  0  0  0  0  0
   19.2055   19.9826   23.2723 H   0  0  0  0  0  0  0  0  0  0  0  0
   20.4801   18.3607   23.9833 C   0  0  0  0  0  0  0  0  0  0  0  0
   20.7427   17.3431   23.6625 H   0  0  0  0  0  0  0  0  0  0  0  0
   21.4045   18.9515   23.9219 H   0  0  0  0  0  0  0  0  0  0  0  0
   19.9986   18.3021   25.4537 C   0  0  0  0  0  0  0  0  0  0  0  0
   20.7608   17.7805   26.0492 H   0  0  0  0  0  0  0  0  0  0  0  0
   19.0878   17.6913   25.5125 H   0  0  0  0  0  0  0  0  0  0  0  0
   19.7436   19.6979   26.0753 C   0  0  0  0  0  0  0  0  0  0  0  0
   20.6301   20.3292   25.9289 H   0  0  0  0  0  0  0  0  0  0  0  0
   18.9115   20.1994   25.5653 H   0  0  0  0  0  0  0  0  0  0  0  0
   19.4394   19.6262   27.5839 C   0  0  0  0  0  0  0  0  0  0  0  0
   19.3447   20.6393   27.9840 H   0  0  0  0  0  0  0  0  0  0  0  0
   20.2640   19.1299   28.1026 H   0  0  0  0  0  0  0  0  0  0  0  0
   18.1609   18.8803   27.9117 N   0  3  0  0  0  0  0  0  0  0  0  0
   17.9812   18.8584   28.9216 H   0  0  0  0  0  0  0  0  0  0  0  0
   18.1974   17.9074   27.5917 H   0  0  0  0  0  0  0  0  0  0  0  0
   17.3434   19.3145   27.4708 H   0  0  0  0  0  0  0  0  0  0  0  0
  1  2  1  0  0  0  0
  1  3  1  0  0  0  0
  1  4  1  0  0  0  0
  1  5  1  0  0  0  0
  5  6  1  0  0  0  0
  5  7  1  0  0  0  0
  5  8  1  0  0  0  0
  8  9  1  0  0  0  0
  8 10  1  0  0  0  0
  8 11  1  0  0  0  0
 11 12  1  0  0  0  0
 11 13  1  0  0  0  0
 11 14  1  0  0  0  0
 14 15  1  0  0  0  0
 14 16  1  0  0  0  0
 14 17  1  0  0  0  0
 17 18  1  0  0  0  0
 17 19  1  0  0  0  0
 17 20  1  0  0  0  0
 20 21  1  0  0  0  0
 20 22  1  0  0  0  0
 20 23  1  0  0  0  0
 23 24  1  0  0  0  0
 23 25  1  0  0  0  0
 23 26  1  0  0  0  0
 26 27  1  0  0  0  0
 26 28  1  0  0  0  0
 26 29  1  0  0  0  0
M  END
> <VM2 Rank>
21

> <Conf_Id>
1376

> <Probability>
1.13

> <Sum Probability>
40.24

> <Delta G>
0.931

> <G>
59.079

> <E>
21.678

> <-TS>
37.400

> <U+W>
-2.466

> <U>
49.184

> <W>
-51.651

> <W(PB)>
-54.196

> <W(SA)>
2.546

> <Valence>
3.217

> <Coulomb>
45.039

> <VdW>
0.928

> <VdW6>
-8.123

> <VdW12>
9.051

> <Bond>
0.205

> <Angle>
0.676

> <Pdih>
2.337

> <Idih>
0.000

> <Tether>
0.000

$$$$
VeraChem MOL file


 29 28  0  0  0  0  0  0  0  0999 V2000     
   20.4278   18.0391   19.6691 C   0  0  0  0  0  0  0  0  0  0  0  0
   20.7531   17.1259   20.1845 H   0  0  0  0  0  0  0  0  0  0  0  0
   20.1007   17.7580   18.6596 H   0  0  0  0  0  0  0  0  0  0  0  0
   21.2961   18.7034   19.5694 H   0  0  0  0  0  0  0  0  0  0  0  0
   19.2842   18.7330   20.4389 C   0  0  0  0  0  0  0  0  0  0  0  0
   18.4191   18.0575   20.4939 H   0  0  0  0  0  0  0  0  0  0  0  0
   18.9574   19.6223   19.8819 H   0  0  0  0  0  0  0  0  0  0  0  0
   19.7189   19.1402   21.8642 C   0  0  0  0  0  0  0  0  0  0  0  0
   20.0514   18.2451   22.4059 H   0  0  0  0  0  0  0  0  0  0  0  0
   20.5823   19.8170   21.8040 H   0  0  0  0  0  0  0  0  0  0  0  0
   18.5715   19.8322   22.6386 C   0  0  0  0  0  0  0  0  0  0  0  0
   17.7270   19.1380   22.7486 H   0  0  0  0  0  0  0  0  0  0  0  0
   18.1994   20.6786   22.0449 H   0  0  0  0  0  0  0  0  0  0  0  0
   18.9941   20.3598   24.0317 C   0  0  0  0  0  0  0  0  0  0  0  0
   19.8266   21.0679   23.9193 H   0  0  0  0  0  0  0  0  0  0  0  0
   18.1571   20.9324   24.4547 H   0  0  0  0  0  0  0  0  0  0  0  0
   19.3902   19.2400   25.0238 C   0  0  0  0  0  0  0  0  0  0  0  0
   20.2774   18.7089   24.6549 H   0  0  0  0  0  0  0  0  0  0  0  0
   18.5769   18.5046   25.0826 H   0  0  0  0  0  0  0  0  0  0  0  0
   19.6912   19.8048   26.4321 C   0  0  0  0  0  0  0  0  0  0  0  0
   20.4765   20.5688   26.3569 H   0  0  0  0  0  0  0  0  0  0  0  0
   18.8018   20.3079   26.8345 H   0  0  0  0  0  0  0  0  0  0  0  0
   20.1593   18.7198   27.4208 C   0  0  0  0  0  0  0  0  0  0  0  0
   20.4353   19.1880   28.3696 H   0  0  0  0  0  0  0  0  0  0  0  0
   21.0417   18.2131   27.0208 H   0  0  0  0  0  0  0  0  0  0  0  0
   19.1069   17.6692   27.7158 N   0  3  0  0  0  0  0  0  0  0  0  0
   18.2587   18.0826   28.1170 H   0  0  0  0  0  0  0  0  0  0  0  0
   19.4450   16.9691   28.3852 H   0  0  0  0  0  0  0  0  0  0  0  0
   18.8270   17.1647   26.8688 H   0  0  0  0  0  0  0  0  0  0  0  0
  1  2  1  0  0  0  0
  1  3  1  0  0  0  0
  1  4  1  0  0  0  0
  1  5  1  0  0  0  0
  5  6  1  0  0  0  0
  5  7  1  0  0  0  0
  5  8  1  0  0  0  0
  8  9  1  0  0  0  0
  8 10  1  0  0  0  0
  8 11  1  0  0  0  0
 11 12  1  0  0  0  0
 11 13  1  0  0  0  0
 11 14  1  0  0  0  0
 14 15  1  0  0  0  0
 14 16  1  0  0  0  0
 14 17  1  0  0  0  0
 17 18  1  0  0  0  0
 17 19  1  0  0  0  0
 17 20  1  0  0  0  0
 20 21  1  0  0  0  0
 20 22  1  0  0  0  0
 20 23  1  0  0  0  0
 23 24  1  0  0  0  0
 23 25  1  0  0  0  0
 23 26  1  0  0  0  0
 26 27  1  0  0  0  0
 26 28  1  0  0  0  0
 26 29  1  0  0  0  0
M  END
> <VM2 Rank>
22

> <Conf_Id>
1041

> <Probability>
1.12

> <Sum Probability>
41.36

> <Delta G>
0.934

> <G>
59.082

> <E>
21.690

> <-TS>
37.392

> <U+W>
-2.454

> <U>
49.241

> <W>
-51.695

> <W(PB)>
-54.217

> <W(SA)>
2.522

> <Valence>
3.225

> <Coulomb>
45.075

> <VdW>
0.940

> <VdW6>
-8.132

> <VdW12>
9.073

> <Bond>
0.205

> <Angle>
0.698

> <Pdih>
2.323

> <Idih>
0.000

> <Tether>
0.000

$$$$
VeraChem MOL file


 29 28  0  0  0  0  0  0  0  0999 V2000     
   19.2261   19.0809   19.0977 C   0  0  0  0  0  0  0  0  0  0  0  0
   19.5861   18.0580   18.9263 H   0  0  0  0  0  0  0  0  0  0  0  0
   18.3844   19.2607   18.4163 H   0  0  0  0  0  0  0  0  0  0  0  0
   20.0318   19.7765   18.8290 H   0  0  0  0  0  0  0  0  0  0  0  0
   18.7907   19.2770   20.5653 C   0  0  0  0  0  0  0  0  0  0  0  0
   17.9621   18.5921   20.7942 H   0  0  0  0  0  0  0  0  0  0  0  0
   18.4046   20.2974   20.6978 H   0  0  0  0  0  0  0  0  0  0  0  0
   19.9581   19.0297   21.5460 C   0  0  0  0  0  0  0  0  0  0  0  0
   20.3420   18.0093   21.4088 H   0  0  0  0  0  0  0  0  0  0  0  0
   20.7846   19.7146   21.3111 H   0  0  0  0  0  0  0  0  0  0  0  0
   19.5260   19.2254   23.0168 C   0  0  0  0  0  0  0  0  0  0  0  0
   18.6960   18.5425   23.2403 H   0  0  0  0  0  0  0  0  0  0  0  0
   19.1459   20.2471   23.1541 H   0  0  0  0  0  0  0  0  0  0  0  0
   20.6967   18.9730   23.9970 C   0  0  0  0  0  0  0  0  0  0  0  0
   21.0451   17.9355   23.8993 H   0  0  0  0  0  0  0  0  0  0  0  0
   21.5451   19.6110   23.7129 H   0  0  0  0  0  0  0  0  0  0  0  0
   20.3386   19.2631   25.4750 C   0  0  0  0  0  0  0  0  0  0  0  0
   20.0135   20.3078   25.5707 H   0  0  0  0  0  0  0  0  0  0  0  0
   21.2507   19.1656   26.0800 H   0  0  0  0  0  0  0  0  0  0  0  0
   19.2541   18.3148   26.0445 C   0  0  0  0  0  0  0  0  0  0  0  0
   18.2990   18.4686   25.5268 H   0  0  0  0  0  0  0  0  0  0  0  0
   19.5486   17.2730   25.8608 H   0  0  0  0  0  0  0  0  0  0  0  0
   19.0417   18.5021   27.5588 C   0  0  0  0  0  0  0  0  0  0  0  0
   19.9876   18.3485   28.0851 H   0  0  0  0  0  0  0  0  0  0  0  0
   18.3255   17.7589   27.9199 H   0  0  0  0  0  0  0  0  0  0  0  0
   18.5120   19.8721   27.9339 N   0  3  0  0  0  0  0  0  0  0  0  0
   19.1565   20.6174   27.6521 H   0  0  0  0  0  0  0  0  0  0  0  0
   18.3719   19.9621   28.9463 H   0  0  0  0  0  0  0  0  0  0  0  0
   17.6095   20.0663   27.4877 H   0  0  0  0  0  0  0  0  0  0  0  0
  1  2  1  0  0  0  0
  1  3  1  0  0  0  0
  1  4  1  0  0  0  0
  1  5  1  0  0  0  0
  5  6  1  0  0  0  0
  5  7  1  0  0  0  0
  5  8  1  0  0  0  0
  8  9  1  0  0  0  0
  8 10  1  0  0  0  0
  8 11  1  0  0  0  0
 11 12  1  0  0  0  0
 11 13  1  0  0  0  0
 11 14  1  0  0  0  0
 14 15  1  0  0  0  0
 14 16  1  0  0  0  0
 14 17  1  0  0  0  0
 17 18  1  0  0  0  0
 17 19  1  0  0  0  0
 17 20  1  0  0  0  0
 20 21  1  0  0  0  0
 20 22  1  0  0  0  0
 20 23  1  0  0  0  0
 23 24  1  0  0  0  0
 23 25  1  0  0  0  0
 23 26  1  0  0  0  0
 26 27  1  0  0  0  0
 26 28  1  0  0  0  0
 26 29  1  0  0  0  0
M  END
> <VM2 Rank>
23

> <Conf_Id>
1227

> <Probability>
1.09

> <Sum Probability>
42.45

> <Delta G>
0.952

> <G>
59.100

> <E>
21.700

> <-TS>
37.400

> <U+W>
-2.444

> <U>
49.184

> <W>
-51.629

> <W(PB)>
-54.168

> <W(SA)>
2.539

> <Valence>
3.217

> <Coulomb>
45.039

> <VdW>
0.928

> <VdW6>
-8.123

> <VdW12>
9.051

> <Bond>
0.205

> <Angle>
0.675

> <Pdih>
2.337

> <Idih>
0.000

> <Tether>
0.000

$$$$
VeraChem MOL file


 29 28  0  0  0  0  0  0  0  0999 V2000     
   20.0846   19.5119   19.2244 C   0  0  0  0  0  0  0  0  0  0  0  0
   19.3997   18.9123   18.6107 H   0  0  0  0  0  0  0  0  0  0  0  0
   20.1705   20.5037   18.7618 H   0  0  0  0  0  0  0  0  0  0  0  0
   21.0747   19.0386   19.1939 H   0  0  0  0  0  0  0  0  0  0  0  0
   19.5713   19.6300   20.6751 C   0  0  0  0  0  0  0  0  0  0  0  0
   18.5941   20.1327   20.6759 H   0  0  0  0  0  0  0  0  0  0  0  0
   20.2591   20.2687   21.2450 H   0  0  0  0  0  0  0  0  0  0  0  0
   19.4463   18.2436   21.3498 C   0  0  0  0  0  0  0  0  0  0  0  0
   18.8190   17.5965   20.7212 H   0  0  0  0  0  0  0  0  0  0  0  0
   20.4337   17.7640   21.3967 H   0  0  0  0  0  0  0  0  0  0  0  0
   18.8276   18.2977   22.7682 C   0  0  0  0  0  0  0  0  0  0  0  0
   18.6679   17.2679   23.1167 H   0  0  0  0  0  0  0  0  0  0  0  0
   17.8339   18.7639   22.7183 H   0  0  0  0  0  0  0  0  0  0  0  0
   19.7057   19.0477   23.7984 C   0  0  0  0  0  0  0  0  0  0  0  0
   20.7149   18.6133   23.8058 H   0  0  0  0  0  0  0  0  0  0  0  0
   19.8126   20.0999   23.5039 H   0  0  0  0  0  0  0  0  0  0  0  0
   19.1049   18.9798   25.2206 C   0  0  0  0  0  0  0  0  0  0  0  0
   18.9986   17.9283   25.5189 H   0  0  0  0  0  0  0  0  0  0  0  0
   18.0950   19.4131   25.2129 H   0  0  0  0  0  0  0  0  0  0  0  0
   19.9804   19.7323   26.2503 C   0  0  0  0  0  0  0  0  0  0  0  0
   20.9837   19.2873   26.2880 H   0  0  0  0  0  0  0  0  0  0  0  0
   20.1112   20.7730   25.9251 H   0  0  0  0  0  0  0  0  0  0  0  0
   19.3662   19.7367   27.6633 C   0  0  0  0  0  0  0  0  0  0  0  0
   18.3645   20.1733   27.6280 H   0  0  0  0  0  0  0  0  0  0  0  0
   19.9830   20.3508   28.3252 H   0  0  0  0  0  0  0  0  0  0  0  0
   19.2570   18.3583   28.2849 N   0  3  0  0  0  0  0  0  0  0  0  0
   18.6592   17.7383   27.7294 H   0  0  0  0  0  0  0  0  0  0  0  0
   18.8560   18.3967   29.2284 H   0  0  0  0  0  0  0  0  0  0  0  0
   20.1726   17.9041   28.3664 H   0  0  0  0  0  0  0  0  0  0  0  0
  1  2  1  0  0  0  0
  1  3  1  0  0  0  0
  1  4  1  0  0  0  0
  1  5  1  0  0  0  0
  5  6  1  0  0  0  0
  5  7  1  0  0  0  0
  5  8  1  0  0  0  0
  8  9  1  0  0  0  0
  8 10  1  0  0  0  0
  8 11  1  0  0  0  0
 11 12  1  0  0  0  0
 11 13  1  0  0  0  0
 11 14  1  0  0  0  0
 14 15  1  0  0  0  0
 14 16  1  0  0  0  0
 14 17  1  0  0  0  0
 17 18  1  0  0  0  0
 17 19  1  0  0  0  0
 17 20  1  0  0  0  0
 20 21  1  0  0  0  0
 20 22  1  0  0  0  0
 20 23  1  0  0  0  0
 23 24  1  0  0  0  0
 23 25  1  0  0  0  0
 23 26  1  0  0  0  0
 26 27  1  0  0  0  0
 26 28  1  0  0  0  0
 26 29  1  0  0  0  0
M  END
> <VM2 Rank>
24

> <Conf_Id>
1882

> <Probability>
1.07

> <Sum Probability>
43.52

> <Delta G>
0.963

> <G>
59.111

> <E>
21.724

> <-TS>
37.387

> <U+W>
-2.421

> <U>
49.031

> <W>
-51.452

> <W(PB)>
-53.971

> <W(SA)>
2.520

> <Valence>
3.227

> <Coulomb>
44.840

> <VdW>
0.965

> <VdW6>
-8.093

> <VdW12>
9.058

> <Bond>
0.204

> <Angle>
0.702

> <Pdih>
2.321

> <Idih>
0.000

> <Tether>
0.000

$$$$
VeraChem MOL file


 29 28  0  0  0  0  0  0  0  0999 V2000     
   20.4087   19.1162   19.2960 C   0  0  0  0  0  0  0  0  0  0  0  0
   20.3216   18.0385   19.1053 H   0  0  0  0  0  0  0  0  0  0  0  0
   19.6657   19.6345   18.6758 H   0  0  0  0  0  0  0  0  0  0  0  0
   21.4054   19.4374   18.9665 H   0  0  0  0  0  0  0  0  0  0  0  0
   20.2011   19.4327   20.7922 C   0  0  0  0  0  0  0  0  0  0  0  0
   20.3230   20.5124   20.9564 H   0  0  0  0  0  0  0  0  0  0  0  0
   20.9855   18.9310   21.3742 H   0  0  0  0  0  0  0  0  0  0  0  0
   18.8035   18.9844   21.2808 C   0  0  0  0  0  0  0  0  0  0  0  0
   18.0382   19.4353   20.6341 H   0  0  0  0  0  0  0  0  0  0  0  0
   18.7022   17.8965   21.1658 H   0  0  0  0  0  0  0  0  0  0  0  0
   18.5023   19.3817   22.7468 C   0  0  0  0  0  0  0  0  0  0  0  0
   17.4550   19.1318   22.9661 H   0  0  0  0  0  0  0  0  0  0  0  0
   18.5892   20.4714   22.8575 H   0  0  0  0  0  0  0  0  0  0  0  0
   19.4149   18.6769   23.7791 C   0  0  0  0  0  0  0  0  0  0  0  0
   19.3676   17.5896   23.6281 H   0  0  0  0  0  0  0  0  0  0  0  0
   20.4594   18.9764   23.6223 H   0  0  0  0  0  0  0  0  0  0  0  0
   19.0056   19.0149   25.2304 C   0  0  0  0  0  0  0  0  0  0  0  0
   17.9637   18.7090   25.3990 H   0  0  0  0  0  0  0  0  0  0  0  0
   19.0459   20.1030   25.3729 H   0  0  0  0  0  0  0  0  0  0  0  0
   19.9206   18.3147   26.2627 C   0  0  0  0  0  0  0  0  0  0  0  0
   19.9031   17.2307   26.0879 H   0  0  0  0  0  0  0  0  0  0  0  0
   20.9610   18.6378   26.1241 H   0  0  0  0  0  0  0  0  0  0  0  0
   19.4889   18.5809   27.7176 C   0  0  0  0  0  0  0  0  0  0  0  0
   20.1173   17.9965   28.3953 H   0  0  0  0  0  0  0  0  0  0  0  0
   18.4514   18.2657   27.8573 H   0  0  0  0  0  0  0  0  0  0  0  0
   19.5982   20.0358   28.1294 N   0  3  0  0  0  0  0  0  0  0  0  0
   20.5582   20.3849   28.0417 H   0  0  0  0  0  0  0  0  0  0  0  0
   19.3152   20.1776   29.1053 H   0  0  0  0  0  0  0  0  0  0  0  0
   19.0024   20.6386   27.5532 H   0  0  0  0  0  0  0  0  0  0  0  0
  1  2  1  0  0  0  0
  1  3  1  0  0  0  0
  1  4  1  0  0  0  0
  1  5  1  0  0  0  0
  5  6  1  0  0  0  0
  5  7  1  0  0  0  0
  5  8  1  0  0  0  0
  8  9  1  0  0  0  0
  8 10  1  0  0  0  0
  8 11  1  0  0  0  0
 11 12  1  0  0  0  0
 11 13  1  0  0  0  0
 11 14  1  0  0  0  0
 14 15  1  0  0  0  0
 14 16  1  0  0  0  0
 14 17  1  0  0  0  0
 17 18  1  0  0  0  0
 17 19  1  0  0  0  0
 17 20  1  0  0  0  0
 20 21  1  0  0  0  0
 20 22  1  0  0  0  0
 20 23  1  0  0  0  0
 23 24  1  0  0  0  0
 23 25  1  0  0  0  0
 23 26  1  0  0  0  0
 26 27  1  0  0  0  0
 26 28  1  0  0  0  0
 26 29  1  0  0  0  0
M  END
> <VM2 Rank>
25

> <Conf_Id>
2284

> <Probability>
1.07

> <Sum Probability>
44.59

> <Delta G>
0.964

> <G>
59.112

> <E>
21.723

> <-TS>
37.388

> <U+W>
-2.421

> <U>
49.093

> <W>
-51.513

> <W(PB)>
-54.035

> <W(SA)>
2.521

> <Valence>
3.228

> <Coulomb>
44.904

> <VdW>
0.961

> <VdW6>
-8.094

> <VdW12>
9.056

> <Bond>
0.204

> <Angle>
0.702

> <Pdih>
2.322

> <Idih>
0.000

> <Tether>
0.000

$$$$
VeraChem MOL file


 29 28  0  0  0  0  0  0  0  0999 V2000     
   20.9192   19.4221   19.6995 C   0  0  0  0  0  0  0  0  0  0  0  0
   20.8569   19.8863   18.7067 H   0  0  0  0  0  0  0  0  0  0  0  0
   21.7408   19.9035   20.2458 H   0  0  0  0  0  0  0  0  0  0  0  0
   21.1745   18.3633   19.5612 H   0  0  0  0  0  0  0  0  0  0  0  0
   19.5837   19.5759   20.4576 C   0  0  0  0  0  0  0  0  0  0  0  0
   18.7766   19.1156   19.8707 H   0  0  0  0  0  0  0  0  0  0  0  0
   19.3386   20.6431   20.5517 H   0  0  0  0  0  0  0  0  0  0  0  0
   19.6441   18.9297   21.8593 C   0  0  0  0  0  0  0  0  0  0  0  0
   19.8873   17.8628   21.7601 H   0  0  0  0  0  0  0  0  0  0  0  0
   20.4594   19.3917   22.4312 H   0  0  0  0  0  0  0  0  0  0  0  0
   18.3067   19.0871   22.6220 C   0  0  0  0  0  0  0  0  0  0  0  0
   17.4922   18.6898   22.0007 H   0  0  0  0  0  0  0  0  0  0  0  0
   18.0883   20.1535   22.7715 H   0  0  0  0  0  0  0  0  0  0  0  0
   18.2820   18.3564   23.9870 C   0  0  0  0  0  0  0  0  0  0  0  0
   17.2656   18.4239   24.3988 H   0  0  0  0  0  0  0  0  0  0  0  0
   18.4827   17.2868   23.8348 H   0  0  0  0  0  0  0  0  0  0  0  0
   19.2818   18.9347   25.0170 C   0  0  0  0  0  0  0  0  0  0  0  0
   19.1139   20.0153   25.1166 H   0  0  0  0  0  0  0  0  0  0  0  0
   20.3104   18.8014   24.6569 H   0  0  0  0  0  0  0  0  0  0  0  0
   19.1394   18.2510   26.3973 C   0  0  0  0  0  0  0  0  0  0  0  0
   18.1263   18.4058   26.7919 H   0  0  0  0  0  0  0  0  0  0  0  0
   19.2681   17.1667   26.2807 H   0  0  0  0  0  0  0  0  0  0  0  0
   20.1728   18.7575   27.4217 C   0  0  0  0  0  0  0  0  0  0  0  0
   21.1827   18.6100   27.0297 H   0  0  0  0  0  0  0  0  0  0  0  0
   20.0785   18.1826   28.3470 H   0  0  0  0  0  0  0  0  0  0  0  0
   20.0142   20.2236   27.7735 N   0  3  0  0  0  0  0  0  0  0  0  0
   19.0896   20.4217   28.1700 H   0  0  0  0  0  0  0  0  0  0  0  0
   20.1269   20.8250   26.9514 H   0  0  0  0  0  0  0  0  0  0  0  0
   20.7086   20.5265   28.4654 H   0  0  0  0  0  0  0  0  0  0  0  0
  1  2  1  0  0  0  0
  1  3  1  0  0  0  0
  1  4  1  0  0  0  0
  1  5  1  0  0  0  0
  5  6  1  0  0  0  0
  5  7  1  0  0  0  0
  5  8  1  0  0  0  0
  8  9  1  0  0  0  0
  8 10  1  0  0  0  0
  8 11  1  0  0  0  0
 11 12  1  0  0  0  0
 11 13  1  0  0  0  0
 11 14  1  0  0  0  0
 14 15  1  0  0  0  0
 14 16  1  0  0  0  0
 14 17  1  0  0  0  0
 17 18  1  0  0  0  0
 17 19  1  0  0  0  0
 17 20  1  0  0  0  0
 20 21  1  0  0  0  0
 20 22  1  0  0  0  0
 20 23  1  0  0  0  0
 23 24  1  0  0  0  0
 23 25  1  0  0  0  0
 23 26  1  0  0  0  0
 26 27  1  0  0  0  0
 26 28  1  0  0  0  0
 26 29  1  0  0  0  0
M  END
> <VM2 Rank>
26

> <Conf_Id>
2610

> <Probability>
1.02

> <Sum Probability>
45.61

> <Delta G>
0.990

> <G>
59.138

> <E>
21.747

> <-TS>
37.391

> <U+W>
-2.398

> <U>
49.240

> <W>
-51.638

> <W(PB)>
-54.163

> <W(SA)>
2.526

> <Valence>
3.225

> <Coulomb>
45.075

> <VdW>
0.940

> <VdW6>
-8.132

> <VdW12>
9.072

> <Bond>
0.205

> <Angle>
0.698

> <Pdih>
2.323

> <Idih>
0.000

> <Tether>
0.000

$$$$
VeraChem MOL file


 29 28  0  0  0  0  0  0  0  0999 V2000     
   20.4044   17.7928   19.8280 C   0  0  0  0  0  0  0  0  0  0  0  0
   20.1437   17.6048   18.7784 H   0  0  0  0  0  0  0  0  0  0  0  0
   21.4318   18.1786   19.8564 H   0  0  0  0  0  0  0  0  0  0  0  0
   20.3853   16.8313   20.3575 H   0  0  0  0  0  0  0  0  0  0  0  0
   19.4179   18.7956   20.4631 C   0  0  0  0  0  0  0  0  0  0  0  0
   18.3960   18.3976   20.3906 H   0  0  0  0  0  0  0  0  0  0  0  0
   19.4342   19.7341   19.8915 H   0  0  0  0  0  0  0  0  0  0  0  0
   19.7630   19.0787   21.9419 C   0  0  0  0  0  0  0  0  0  0  0  0
   19.7524   18.1327   22.4987 H   0  0  0  0  0  0  0  0  0  0  0  0
   20.7843   19.4783   22.0092 H   0  0  0  0  0  0  0  0  0  0  0  0
   18.7717   20.0808   22.5809 C   0  0  0  0  0  0  0  0  0  0  0  0
   17.7572   19.6592   22.5663 H   0  0  0  0  0  0  0  0  0  0  0  0
   18.7365   20.9901   21.9651 H   0  0  0  0  0  0  0  0  0  0  0  0
   19.1448   20.4847   24.0285 C   0  0  0  0  0  0  0  0  0  0  0  0
   20.1535   20.9200   24.0404 H   0  0  0  0  0  0  0  0  0  0  0  0
   18.4613   21.2814   24.3531 H   0  0  0  0  0  0  0  0  0  0  0  0
   19.0692   19.3135   25.0373 C   0  0  0  0  0  0  0  0  0  0  0  0
   19.8005   18.5427   24.7641 H   0  0  0  0  0  0  0  0  0  0  0  0
   18.0757   18.8470   24.9843 H   0  0  0  0  0  0  0  0  0  0  0  0
   19.3382   19.7880   26.4850 C   0  0  0  0  0  0  0  0  0  0  0  0
   20.3404   20.2314   26.5555 H   0  0  0  0  0  0  0  0  0  0  0  0
   18.6253   20.5814   26.7465 H   0  0  0  0  0  0  0  0  0  0  0  0
   19.2036   18.6531   27.5184 C   0  0  0  0  0  0  0  0  0  0  0  0
   18.2094   18.2041   27.4449 H   0  0  0  0  0  0  0  0  0  0  0  0
   19.3188   19.0639   28.5252 H   0  0  0  0  0  0  0  0  0  0  0  0
   20.2312   17.5510   27.3518 N   0  3  0  0  0  0  0  0  0  0  0  0
   20.1539   17.0956   26.4370 H   0  0  0  0  0  0  0  0  0  0  0  0
   20.1227   16.8189   28.0624 H   0  0  0  0  0  0  0  0  0  0  0  0
   21.1888   17.9083   27.4334 H   0  0  0  0  0  0  0  0  0  0  0  0
  1  2  1  0  0  0  0
  1  3  1  0  0  0  0
  1  4  1  0  0  0  0
  1  5  1  0  0  0  0
  5  6  1  0  0  0  0
  5  7  1  0  0  0  0
  5  8  1  0  0  0  0
  8  9  1  0  0  0  0
  8 10  1  0  0  0  0
  8 11  1  0  0  0  0
 11 12  1  0  0  0  0
 11 13  1  0  0  0  0
 11 14  1  0  0  0  0
 14 15  1  0  0  0  0
 14 16  1  0  0  0  0
 14 17  1  0  0  0  0
 17 18  1  0  0  0  0
 17 19  1  0  0  0  0
 17 20  1  0  0  0  0
 20 21  1  0  0  0  0
 20 22  1  0  0  0  0
 20 23  1  0  0  0  0
 23 24  1  0  0  0  0
 23 25  1  0  0  0  0
 23 26  1  0  0  0  0
 26 27  1  0  0  0  0
 26 28  1  0  0  0  0
 26 29  1  0  0  0  0
M  END
> <VM2 Rank>
27

> <Conf_Id>
1362

> <Probability>
1.02

> <Sum Probability>
46.62

> <Delta G>
0.993

> <G>
59.141

> <E>
21.758

> <-TS>
37.383

> <U+W>
-2.387

> <U>
49.501

> <W>
-51.888

> <W(PB)>
-54.410

> <W(SA)>
2.522

> <Valence>
3.224

> <Coulomb>
45.340

> <VdW>
0.937

> <VdW6>
-8.143

> <VdW12>
9.080

> <Bond>
0.206

> <Angle>
0.695

> <Pdih>
2.322

> <Idih>
0.000

> <Tether>
0.000

$$$$
VeraChem MOL file


 29 28  0  0  0  0  0  0  0  0999 V2000     
   20.2300   18.6141   19.2848 C   0  0  0  0  0  0  0  0  0  0  0  0
   19.3355   18.7070   18.6551 H   0  0  0  0  0  0  0  0  0  0  0  0
   20.8461   19.5109   19.1383 H   0  0  0  0  0  0  0  0  0  0  0  0
   20.8040   17.7488   18.9288 H   0  0  0  0  0  0  0  0  0  0  0  0
   19.8479   18.4409   20.7701 C   0  0  0  0  0  0  0  0  0  0  0  0
   20.7645   18.3106   21.3604 H   0  0  0  0  0  0  0  0  0  0  0  0
   19.2578   17.5215   20.8895 H   0  0  0  0  0  0  0  0  0  0  0  0
   19.0411   19.6515   21.2957 C   0  0  0  0  0  0  0  0  0  0  0  0
   19.6516   20.5623   21.2253 H   0  0  0  0  0  0  0  0  0  0  0  0
   18.1723   19.8118   20.6425 H   0  0  0  0  0  0  0  0  0  0  0  0
   18.5360   19.4763   22.7489 C   0  0  0  0  0  0  0  0  0  0  0  0
   17.9132   18.5735   22.8151 H   0  0  0  0  0  0  0  0  0  0  0  0
   17.8792   20.3227   22.9926 H   0  0  0  0  0  0  0  0  0  0  0  0
   19.6740   19.4044   23.7953 C   0  0  0  0  0  0  0  0  0  0  0  0
   20.2963   18.5188   23.6121 H   0  0  0  0  0  0  0  0  0  0  0  0
   20.3265   20.2819   23.6882 H   0  0  0  0  0  0  0  0  0  0  0  0
   19.1228   19.3439   25.2378 C   0  0  0  0  0  0  0  0  0  0  0  0
   18.4644   18.4705   25.3365 H   0  0  0  0  0  0  0  0  0  0  0  0
   18.5061   20.2323   25.4330 H   0  0  0  0  0  0  0  0  0  0  0  0
   20.2597   19.2669   26.2840 C   0  0  0  0  0  0  0  0  0  0  0  0
   20.8638   18.3650   26.1180 H   0  0  0  0  0  0  0  0  0  0  0  0
   20.9334   20.1241   26.1525 H   0  0  0  0  0  0  0  0  0  0  0  0
   19.7364   19.2759   27.7331 C   0  0  0  0  0  0  0  0  0  0  0  0
   19.1293   20.1698   27.8998 H   0  0  0  0  0  0  0  0  0  0  0  0
   20.5830   19.3045   28.4245 H   0  0  0  0  0  0  0  0  0  0  0  0
   18.8962   18.0641   28.0853 N   0  3  0  0  0  0  0  0  0  0  0  0
   18.0617   17.9967   27.4942 H   0  0  0  0  0  0  0  0  0  0  0  0
   18.5736   18.0944   29.0588 H   0  0  0  0  0  0  0  0  0  0  0  0
   19.4210   17.1909   27.9704 H   0  0  0  0  0  0  0  0  0  0  0  0
  1  2  1  0  0  0  0
  1  3  1  0  0  0  0
  1  4  1  0  0  0  0
  1  5  1  0  0  0  0
  5  6  1  0  0  0  0
  5  7  1  0  0  0  0
  5  8  1  0  0  0  0
  8  9  1  0  0  0  0
  8 10  1  0  0  0  0
  8 11  1  0  0  0  0
 11 12  1  0  0  0  0
 11 13  1  0  0  0  0
 11 14  1  0  0  0  0
 14 15  1  0  0  0  0
 14 16  1  0  0  0  0
 14 17  1  0  0  0  0
 17 18  1  0  0  0  0
 17 19  1  0  0  0  0
 17 20  1  0  0  0  0
 20 21  1  0  0  0  0
 20 22  1  0  0  0  0
 20 23  1  0  0  0  0
 23 24  1  0  0  0  0
 23 25  1  0  0  0  0
 23 26  1  0  0  0  0
 26 27  1  0  0  0  0
 26 28  1  0  0  0  0
 26 29  1  0  0  0  0
M  END
> <VM2 Rank>
28

> <Conf_Id>
344

> <Probability>
1.00

> <Sum Probability>
47.63

> <Delta G>
1.001

> <G>
59.149

> <E>
21.761

> <-TS>
37.388

> <U+W>
-2.384

> <U>
49.093

> <W>
-51.477

> <W(PB)>
-54.002

> <W(SA)>
2.525

> <Valence>
3.228

> <Coulomb>
44.904

> <VdW>
0.962

> <VdW6>
-8.094

> <VdW12>
9.056

> <Bond>
0.204

> <Angle>
0.702

> <Pdih>
2.322

> <Idih>
0.000

> <Tether>
0.000

$$$$
VeraChem MOL file


 29 28  0  0  0  0  0  0  0  0999 V2000     
   19.7896   19.3957   19.0366 C   0  0  0  0  0  0  0  0  0  0  0  0
   20.8617   19.6313   19.0185 H   0  0  0  0  0  0  0  0  0  0  0  0
   19.6645   18.3478   18.7342 H   0  0  0  0  0  0  0  0  0  0  0  0
   19.2935   20.0247   18.2861 H   0  0  0  0  0  0  0  0  0  0  0  0
   19.1909   19.6438   20.4373 C   0  0  0  0  0  0  0  0  0  0  0  0
   18.1126   19.4321   20.4156 H   0  0  0  0  0  0  0  0  0  0  0  0
   19.3005   20.7059   20.6976 H   0  0  0  0  0  0  0  0  0  0  0  0
   19.8723   18.7699   21.5134 C   0  0  0  0  0  0  0  0  0  0  0  0
   19.7626   17.7096   21.2469 H   0  0  0  0  0  0  0  0  0  0  0  0
   20.9500   18.9836   21.5305 H   0  0  0  0  0  0  0  0  0  0  0  0
   19.2751   19.0151   22.9175 C   0  0  0  0  0  0  0  0  0  0  0  0
   18.1983   18.7972   22.9005 H   0  0  0  0  0  0  0  0  0  0  0  0
   19.3827   20.0776   23.1712 H   0  0  0  0  0  0  0  0  0  0  0  0
   19.9629   18.1411   23.9938 C   0  0  0  0  0  0  0  0  0  0  0  0
   19.9157   17.0886   23.6817 H   0  0  0  0  0  0  0  0  0  0  0  0
   21.0297   18.3971   24.0536 H   0  0  0  0  0  0  0  0  0  0  0  0
   19.3205   18.2637   25.3974 C   0  0  0  0  0  0  0  0  0  0  0  0
   19.7863   17.5156   26.0523 H   0  0  0  0  0  0  0  0  0  0  0  0
   18.2550   18.0017   25.3385 H   0  0  0  0  0  0  0  0  0  0  0  0
   19.4779   19.6695   26.0295 C   0  0  0  0  0  0  0  0  0  0  0  0
   20.5391   19.9492   26.0666 H   0  0  0  0  0  0  0  0  0  0  0  0
   18.9769   20.4175   25.4028 H   0  0  0  0  0  0  0  0  0  0  0  0
   18.8741   19.7551   27.4446 C   0  0  0  0  0  0  0  0  0  0  0  0
   17.8223   19.4581   27.4148 H   0  0  0  0  0  0  0  0  0  0  0  0
   18.9269   20.7881   27.7990 H   0  0  0  0  0  0  0  0  0  0  0  0
   19.5808   18.8842   28.4648 N   0  3  0  0  0  0  0  0  0  0  0  0
   19.5374   17.8920   28.2119 H   0  0  0  0  0  0  0  0  0  0  0  0
   19.1633   18.9752   29.3975 H   0  0  0  0  0  0  0  0  0  0  0  0
   20.5719   19.1313   28.5546 H   0  0  0  0  0  0  0  0  0  0  0  0
  1  2  1  0  0  0  0
  1  3  1  0  0  0  0
  1  4  1  0  0  0  0
  1  5  1  0  0  0  0
  5  6  1  0  0  0  0
  5  7  1  0  0  0  0
  5  8  1  0  0  0  0
  8  9  1  0  0  0  0
  8 10  1  0  0  0  0
  8 11  1  0  0  0  0
 11 12  1  0  0  0  0
 11 13  1  0  0  0  0
 11 14  1  0  0  0  0
 14 15  1  0  0  0  0
 14 16  1  0  0  0  0
 14 17  1  0  0  0  0
 17 18  1  0  0  0  0
 17 19  1  0  0  0  0
 17 20  1  0  0  0  0
 20 21  1  0  0  0  0
 20 22  1  0  0  0  0
 20 23  1  0  0  0  0
 23 24  1  0  0  0  0
 23 25  1  0  0  0  0
 23 26  1  0  0  0  0
 26 27  1  0  0  0  0
 26 28  1  0  0  0  0
 26 29  1  0  0  0  0
M  END
> <VM2 Rank>
29

> <Conf_Id>
2539

> <Probability>
0.99

> <Sum Probability>
48.62

> <Delta G>
1.005

> <G>
59.153

> <E>
21.786

> <-TS>
37.368

> <U+W>
-2.359

> <U>
49.027

> <W>
-51.385

> <W(PB)>
-53.885

> <W(SA)>
2.500

> <Valence>
3.250

> <Coulomb>
44.791

> <VdW>
0.986

> <VdW6>
-8.077

> <VdW12>
9.063

> <Bond>
0.210

> <Angle>
0.724

> <Pdih>
2.316

> <Idih>
0.000

> <Tether>
0.000

$$$$
VeraChem MOL file


 29 28  0  0  0  0  0  0  0  0999 V2000     
   19.7297   18.5154   19.2021 C   0  0  0  0  0  0  0  0  0  0  0  0
   19.1762   17.7116   18.6994 H   0  0  0  0  0  0  0  0  0  0  0  0
   19.5863   19.4366   18.6224 H   0  0  0  0  0  0  0  0  0  0  0  0
   20.7965   18.2575   19.1764 H   0  0  0  0  0  0  0  0  0  0  0  0
   19.2368   18.6907   20.6541 C   0  0  0  0  0  0  0  0  0  0  0  0
   19.3584   17.7392   21.1885 H   0  0  0  0  0  0  0  0  0  0  0  0
   18.1618   18.9188   20.6488 H   0  0  0  0  0  0  0  0  0  0  0  0
   20.0061   19.8163   21.3849 C   0  0  0  0  0  0  0  0  0  0  0  0
   21.0738   19.5621   21.4368 H   0  0  0  0  0  0  0  0  0  0  0  0
   19.9375   20.7385   20.7914 H   0  0  0  0  0  0  0  0  0  0  0  0
   19.4724   20.1090   22.8087 C   0  0  0  0  0  0  0  0  0  0  0  0
   18.4084   20.3776   22.7544 H   0  0  0  0  0  0  0  0  0  0  0  0
   19.9942   20.9934   23.1999 H   0  0  0  0  0  0  0  0  0  0  0  0
   19.6649   18.9328   23.7959 C   0  0  0  0  0  0  0  0  0  0  0  0
   19.0875   18.0623   23.4584 H   0  0  0  0  0  0  0  0  0  0  0  0
   20.7216   18.6316   23.8062 H   0  0  0  0  0  0  0  0  0  0  0  0
   19.2220   19.3085   25.2279 C   0  0  0  0  0  0  0  0  0  0  0  0
   18.1655   19.6109   25.2173 H   0  0  0  0  0  0  0  0  0  0  0  0
   19.7994   20.1781   25.5691 H   0  0  0  0  0  0  0  0  0  0  0  0
   19.4112   18.1321   26.2146 C   0  0  0  0  0  0  0  0  0  0  0  0
   18.8601   17.2564   25.8465 H   0  0  0  0  0  0  0  0  0  0  0  0
   20.4695   17.8419   26.2558 H   0  0  0  0  0  0  0  0  0  0  0  0
   18.9121   18.4605   27.6348 C   0  0  0  0  0  0  0  0  0  0  0  0
   18.9935   17.5693   28.2631 H   0  0  0  0  0  0  0  0  0  0  0  0
   17.8602   18.7559   27.5963 H   0  0  0  0  0  0  0  0  0  0  0  0
   19.6887   19.5726   28.3119 N   0  3  0  0  0  0  0  0  0  0  0  0
   20.6843   19.3433   28.3985 H   0  0  0  0  0  0  0  0  0  0  0  0
   19.3401   19.7585   29.2588 H   0  0  0  0  0  0  0  0  0  0  0  0
   19.6242   20.4522   27.7899 H   0  0  0  0  0  0  0  0  0  0  0  0
  1  2  1  0  0  0  0
  1  3  1  0  0  0  0
  1  4  1  0  0  0  0
  1  5  1  0  0  0  0
  5  6  1  0  0  0  0
  5  7  1  0  0  0  0
  5  8  1  0  0  0  0
  8  9  1  0  0  0  0
  8 10  1  0  0  0  0
  8 11  1  0  0  0  0
 11 12  1  0  0  0  0
 11 13  1  0  0  0  0
 11 14  1  0  0  0  0
 14 15  1  0  0  0  0
 14 16  1  0  0  0  0
 14 17  1  0  0  0  0
 17 18  1  0  0  0  0
 17 19  1  0  0  0  0
 17 20  1  0  0  0  0
 20 21  1  0  0  0  0
 20 22  1  0  0  0  0
 20 23  1  0  0  0  0
 23 24  1  0  0  0  0
 23 25  1  0  0  0  0
 23 26  1  0  0  0  0
 26 27  1  0  0  0  0
 26 28  1  0  0  0  0
 26 29  1  0  0  0  0
M  END
> <VM2 Rank>
30

> <Conf_Id>
1914

> <Probability>
0.97

> <Sum Probability>
49.59

> <Delta G>
1.023

> <G>
59.171

> <E>
21.783

> <-TS>
37.387

> <U+W>
-2.361

> <U>
49.031

> <W>
-51.392

> <W(PB)>
-53.927

> <W(SA)>
2.534

> <Valence>
3.226

> <Coulomb>
44.840

> <VdW>
0.965

> <VdW6>
-8.093

> <VdW12>
9.058

> <Bond>
0.204

> <Angle>
0.702

> <Pdih>
2.321

> <Idih>
0.000

> <Tether>
0.000

$$$$
VeraChem MOL file


 29 28  0  0  0  0  0  0  0  0999 V2000     
   20.6589   19.1551   19.5390 C   0  0  0  0  0  0  0  0  0  0  0  0
   21.0758   19.9390   18.8934 H   0  0  0  0  0  0  0  0  0  0  0  0
   21.4488   18.4155   19.7243 H   0  0  0  0  0  0  0  0  0  0  0  0
   19.8490   18.6597   18.9878 H   0  0  0  0  0  0  0  0  0  0  0  0
   20.1415   19.7572   20.8625 C   0  0  0  0  0  0  0  0  0  0  0  0
   19.3777   20.5165   20.6436 H   0  0  0  0  0  0  0  0  0  0  0  0
   20.9652   20.2743   21.3743 H   0  0  0  0  0  0  0  0  0  0  0  0
   19.5490   18.6739   21.7904 C   0  0  0  0  0  0  0  0  0  0  0  0
   18.7280   18.1581   21.2733 H   0  0  0  0  0  0  0  0  0  0  0  0
   20.3153   17.9163   22.0051 H   0  0  0  0  0  0  0  0  0  0  0  0
   19.0296   19.2731   23.1167 C   0  0  0  0  0  0  0  0  0  0  0  0
   18.2600   20.0273   22.9020 H   0  0  0  0  0  0  0  0  0  0  0  0
   19.8544   19.7922   23.6223 H   0  0  0  0  0  0  0  0  0  0  0  0
   18.4418   18.1850   24.0467 C   0  0  0  0  0  0  0  0  0  0  0  0
   17.6695   17.6266   23.5000 H   0  0  0  0  0  0  0  0  0  0  0  0
   19.2211   17.4537   24.3000 H   0  0  0  0  0  0  0  0  0  0  0  0
   17.8070   18.7534   25.3422 C   0  0  0  0  0  0  0  0  0  0  0  0
   17.3805   17.9214   25.9195 H   0  0  0  0  0  0  0  0  0  0  0  0
   16.9603   19.4004   25.0744 H   0  0  0  0  0  0  0  0  0  0  0  0
   18.7782   19.5471   26.2510 C   0  0  0  0  0  0  0  0  0  0  0  0
   19.1098   20.4603   25.7405 H   0  0  0  0  0  0  0  0  0  0  0  0
   18.2350   19.8762   27.1468 H   0  0  0  0  0  0  0  0  0  0  0  0
   20.0029   18.7186   26.6810 C   0  0  0  0  0  0  0  0  0  0  0  0
   20.5746   18.4202   25.7984 H   0  0  0  0  0  0  0  0  0  0  0  0
   19.6720   17.8148   27.1998 H   0  0  0  0  0  0  0  0  0  0  0  0
   20.9351   19.4745   27.6054 N   0  3  0  0  0  0  0  0  0  0  0  0
   21.7436   18.9055   27.8795 H   0  0  0  0  0  0  0  0  0  0  0  0
   20.4648   19.7613   28.4703 H   0  0  0  0  0  0  0  0  0  0  0  0
   21.3029   20.3245   27.1654 H   0  0  0  0  0  0  0  0  0  0  0  0
  1  2  1  0  0  0  0
  1  3  1  0  0  0  0
  1  4  1  0  0  0  0
  1  5  1  0  0  0  0
  5  6  1  0  0  0  0
  5  7  1  0  0  0  0
  5  8  1  0  0  0  0
  8  9  1  0  0  0  0
  8 10  1  0  0  0  0
  8 11  1  0  0  0  0
 11 12  1  0  0  0  0
 11 13  1  0  0  0  0
 11 14  1  0  0  0  0
 14 15  1  0  0  0  0
 14 16  1  0  0  0  0
 14 17  1  0  0  0  0
 17 18  1  0  0  0  0
 17 19  1  0  0  0  0
 17 20  1  0  0  0  0
 20 21  1  0  0  0  0
 20 22  1  0  0  0  0
 20 23  1  0  0  0  0
 23 24  1  0  0  0  0
 23 25  1  0  0  0  0
 23 26  1  0  0  0  0
 26 27  1  0  0  0  0
 26 28  1  0  0  0  0
 26 29  1  0  0  0  0
M  END
> <VM2 Rank>
31

> <Conf_Id>
1748

> <Probability>
0.88

> <Sum Probability>
50.47

> <Delta G>
1.075

> <G>
59.223

> <E>
21.699

> <-TS>
37.524

> <U+W>
-2.446

> <U>
49.533

> <W>
-51.979

> <W(PB)>
-54.508

> <W(SA)>
2.530

> <Valence>
3.341

> <Coulomb>
45.459

> <VdW>
0.733

> <VdW6>
-8.520

> <VdW12>
9.252

> <Bond>
0.212

> <Angle>
0.893

> <Pdih>
2.236

> <Idih>
0.000

> <Tether>
0.000

$$$$
VeraChem MOL file


 29 28  0  0  0  0  0  0  0  0999 V2000     
   19.5458   18.4899   19.4977 C   0  0  0  0  0  0  0  0  0  0  0  0
   20.5351   18.0147   19.5195 H   0  0  0  0  0  0  0  0  0  0  0  0
   18.8258   17.8077   19.9664 H   0  0  0  0  0  0  0  0  0  0  0  0
   19.2526   18.6072   18.4464 H   0  0  0  0  0  0  0  0  0  0  0  0
   19.5728   19.8622   20.2079 C   0  0  0  0  0  0  0  0  0  0  0  0
   18.5660   20.3028   20.1992 H   0  0  0  0  0  0  0  0  0  0  0  0
   20.2126   20.5459   19.6326 H   0  0  0  0  0  0  0  0  0  0  0  0
   20.1011   19.7926   21.6610 C   0  0  0  0  0  0  0  0  0  0  0  0
   21.1154   19.3702   21.6626 H   0  0  0  0  0  0  0  0  0  0  0  0
   20.1920   20.8169   22.0481 H   0  0  0  0  0  0  0  0  0  0  0  0
   19.1928   18.9730   22.6086 C   0  0  0  0  0  0  0  0  0  0  0  0
   19.1492   17.9285   22.2731 H   0  0  0  0  0  0  0  0  0  0  0  0
   18.1677   19.3660   22.5650 H   0  0  0  0  0  0  0  0  0  0  0  0
   19.6999   19.0155   24.0678 C   0  0  0  0  0  0  0  0  0  0  0  0
   20.7254   18.6233   24.1101 H   0  0  0  0  0  0  0  0  0  0  0  0
   19.7439   20.0600   24.4042 H   0  0  0  0  0  0  0  0  0  0  0  0
   18.7929   18.1936   25.0146 C   0  0  0  0  0  0  0  0  0  0  0  0
   18.7190   17.1633   24.6399 H   0  0  0  0  0  0  0  0  0  0  0  0
   17.7733   18.6035   24.9998 H   0  0  0  0  0  0  0  0  0  0  0  0
   19.3122   18.1554   26.4710 C   0  0  0  0  0  0  0  0  0  0  0  0
   18.6713   17.4861   27.0603 H   0  0  0  0  0  0  0  0  0  0  0  0
   20.3215   17.7232   26.4917 H   0  0  0  0  0  0  0  0  0  0  0  0
   19.3305   19.5460   27.1327 C   0  0  0  0  0  0  0  0  0  0  0  0
   18.3255   19.9760   27.1133 H   0  0  0  0  0  0  0  0  0  0  0  0
   20.0006   20.2101   26.5806 H   0  0  0  0  0  0  0  0  0  0  0  0
   19.7961   19.5098   28.5738 N   0  3  0  0  0  0  0  0  0  0  0  0
   19.8012   20.4448   28.9962 H   0  0  0  0  0  0  0  0  0  0  0  0
   20.7482   19.1385   28.6583 H   0  0  0  0  0  0  0  0  0  0  0  0
   19.1901   18.9223   29.1562 H   0  0  0  0  0  0  0  0  0  0  0  0
  1  2  1  0  0  0  0
  1  3  1  0  0  0  0
  1  4  1  0  0  0  0
  1  5  1  0  0  0  0
  5  6  1  0  0  0  0
  5  7  1  0  0  0  0
  5  8  1  0  0  0  0
  8  9  1  0  0  0  0
  8 10  1  0  0  0  0
  8 11  1  0  0  0  0
 11 12  1  0  0  0  0
 11 13  1  0  0  0  0
 11 14  1  0  0  0  0
 14 15  1  0  0  0  0
 14 16  1  0  0  0  0
 14 17  1  0  0  0  0
 17 18  1  0  0  0  0
 17 19  1  0  0  0  0
 17 20  1  0  0  0  0
 20 21  1  0  0  0  0
 20 22  1  0  0  0  0
 20 23  1  0  0  0  0
 23 24  1  0  0  0  0
 23 25  1  0  0  0  0
 23 26  1  0  0  0  0
 26 27  1  0  0  0  0
 26 28  1  0  0  0  0
 26 29  1  0  0  0  0
M  END
> <VM2 Rank>
32

> <Conf_Id>
2596

> <Probability>
0.85

> <Sum Probability>
51.33

> <Delta G>
1.097

> <G>
59.245

> <E>
21.851

> <-TS>
37.394

> <U+W>
-2.294

> <U>
49.086

> <W>
-51.380

> <W(PB)>
-53.930

> <W(SA)>
2.550

> <Valence>
3.390

> <Coulomb>
44.772

> <VdW>
0.924

> <VdW6>
-8.126

> <VdW12>
9.049

> <Bond>
0.202

> <Angle>
0.764

> <Pdih>
2.424

> <Idih>
0.000

> <Tether>
0.000

$$$$
VeraChem MOL file


 29 28  0  0  0  0  0  0  0  0999 V2000     
   19.2729   18.1047   19.6844 C   0  0  0  0  0  0  0  0  0  0  0  0
   18.3028   17.9718   20.1790 H   0  0  0  0  0  0  0  0  0  0  0  0
   19.0911   18.1253   18.6020 H   0  0  0  0  0  0  0  0  0  0  0  0
   19.8946   17.2270   19.9038 H   0  0  0  0  0  0  0  0  0  0  0  0
   19.9690   19.4069   20.1406 C   0  0  0  0  0  0  0  0  0  0  0  0
   19.3148   20.2663   19.9379 H   0  0  0  0  0  0  0  0  0  0  0  0
   20.8719   19.5574   19.5323 H   0  0  0  0  0  0  0  0  0  0  0  0
   20.3730   19.3975   21.6346 C   0  0  0  0  0  0  0  0  0  0  0  0
   21.0429   18.5484   21.8280 H   0  0  0  0  0  0  0  0  0  0  0  0
   20.9558   20.3051   21.8438 H   0  0  0  0  0  0  0  0  0  0  0  0
   19.1646   19.3395   22.5996 C   0  0  0  0  0  0  0  0  0  0  0  0
   18.6121   18.4025   22.4507 H   0  0  0  0  0  0  0  0  0  0  0  0
   18.4713   20.1598   22.3684 H   0  0  0  0  0  0  0  0  0  0  0  0
   19.6059   19.4368   24.0774 C   0  0  0  0  0  0  0  0  0  0  0  0
   20.3059   18.6200   24.2985 H   0  0  0  0  0  0  0  0  0  0  0  0
   20.1524   20.3769   24.2356 H   0  0  0  0  0  0  0  0  0  0  0  0
   18.3978   19.3736   25.0423 C   0  0  0  0  0  0  0  0  0  0  0  0
   17.8678   18.4199   24.9111 H   0  0  0  0  0  0  0  0  0  0  0  0
   17.6829   20.1652   24.7783 H   0  0  0  0  0  0  0  0  0  0  0  0
   18.7974   19.5413   26.5270 C   0  0  0  0  0  0  0  0  0  0  0  0
   19.3052   20.5051   26.6659 H   0  0  0  0  0  0  0  0  0  0  0  0
   17.8866   19.5744   27.1396 H   0  0  0  0  0  0  0  0  0  0  0  0
   19.7021   18.4017   27.0318 C   0  0  0  0  0  0  0  0  0  0  0  0
   20.6327   18.3860   26.4588 H   0  0  0  0  0  0  0  0  0  0  0  0
   19.1963   17.4422   26.8948 H   0  0  0  0  0  0  0  0  0  0  0  0
   20.0614   18.5360   28.4974 N   0  3  0  0  0  0  0  0  0  0  0  0
   20.5644   19.4088   28.6888 H   0  0  0  0  0  0  0  0  0  0  0  0
   20.6636   17.7681   28.8140 H   0  0  0  0  0  0  0  0  0  0  0  0
   19.2292   18.5295   29.0966 H   0  0  0  0  0  0  0  0  0  0  0  0
  1  2  1  0  0  0  0
  1  3  1  0  0  0  0
  1  4  1  0  0  0  0
  1  5  1  0  0  0  0
  5  6  1  0  0  0  0
  5  7  1  0  0  0  0
  5  8  1  0  0  0  0
  8  9  1  0  0  0  0
  8 10  1  0  0  0  0
  8 11  1  0  0  0  0
 11 12  1  0  0  0  0
 11 13  1  0  0  0  0
 11 14  1  0  0  0  0
 14 15  1  0  0  0  0
 14 16  1  0  0  0  0
 14 17  1  0  0  0  0
 17 18  1  0  0  0  0
 17 19  1  0  0  0  0
 17 20  1  0  0  0  0
 20 21  1  0  0  0  0
 20 22  1  0  0  0  0
 20 23  1  0  0  0  0
 23 24  1  0  0  0  0
 23 25  1  0  0  0  0
 23 26  1  0  0  0  0
 26 27  1  0  0  0  0
 26 28  1  0  0  0  0
 26 29  1  0  0  0  0
M  END
> <VM2 Rank>
33

> <Conf_Id>
939

> <Probability>
0.85

> <Sum Probability>
52.18

> <Delta G>
1.101

> <G>
59.249

> <E>
21.855

> <-TS>
37.394

> <U+W>
-2.290

> <U>
49.098

> <W>
-51.388

> <W(PB)>
-53.927

> <W(SA)>
2.539

> <Valence>
3.391

> <Coulomb>
44.787

> <VdW>
0.920

> <VdW6>
-8.128

> <VdW12>
9.048

> <Bond>
0.202

> <Angle>
0.764

> <Pdih>
2.425

> <Idih>
0.000

> <Tether>
0.000

$$$$
VeraChem MOL file


 29 28  0  0  0  0  0  0  0  0999 V2000     
   20.7933   18.9041   19.5806 C   0  0  0  0  0  0  0  0  0  0  0  0
   20.6265   18.9834   18.4985 H   0  0  0  0  0  0  0  0  0  0  0  0
   21.5023   19.6904   19.8709 H   0  0  0  0  0  0  0  0  0  0  0  0
   21.2614   17.9311   19.7792 H   0  0  0  0  0  0  0  0  0  0  0  0
   19.4624   19.0461   20.3490 C   0  0  0  0  0  0  0  0  0  0  0  0
   18.7628   18.2682   20.0124 H   0  0  0  0  0  0  0  0  0  0  0  0
   19.0019   20.0138   20.1051 H   0  0  0  0  0  0  0  0  0  0  0  0
   19.6691   18.9374   21.8759 C   0  0  0  0  0  0  0  0  0  0  0  0
   20.1276   17.9680   22.1149 H   0  0  0  0  0  0  0  0  0  0  0  0
   20.3760   19.7134   22.1974 H   0  0  0  0  0  0  0  0  0  0  0  0
   18.3356   19.0838   22.6476 C   0  0  0  0  0  0  0  0  0  0  0  0
   17.6160   18.3491   22.2606 H   0  0  0  0  0  0  0  0  0  0  0  0
   17.9008   20.0737   22.4522 H   0  0  0  0  0  0  0  0  0  0  0  0
   18.4787   18.8721   24.1746 C   0  0  0  0  0  0  0  0  0  0  0  0
   17.4753   18.8826   24.6223 H   0  0  0  0  0  0  0  0  0  0  0  0
   18.8914   17.8720   24.3636 H   0  0  0  0  0  0  0  0  0  0  0  0
   19.3515   19.9490   24.8672 C   0  0  0  0  0  0  0  0  0  0  0  0
   18.9873   20.9465   24.5850 H   0  0  0  0  0  0  0  0  0  0  0  0
   20.3881   19.8822   24.5112 H   0  0  0  0  0  0  0  0  0  0  0  0
   19.3401   19.8341   26.4095 C   0  0  0  0  0  0  0  0  0  0  0  0
   19.9113   20.6705   26.8338 H   0  0  0  0  0  0  0  0  0  0  0  0
   18.3113   19.9359   26.7798 H   0  0  0  0  0  0  0  0  0  0  0  0
   19.9417   18.5077   26.9098 C   0  0  0  0  0  0  0  0  0  0  0  0
   20.9671   18.4075   26.5440 H   0  0  0  0  0  0  0  0  0  0  0  0
   19.3556   17.6680   26.5275 H   0  0  0  0  0  0  0  0  0  0  0  0
   19.9717   18.4037   28.4208 N   0  3  0  0  0  0  0  0  0  0  0  0
   19.0319   18.4644   28.8264 H   0  0  0  0  0  0  0  0  0  0  0  0
   20.5320   19.1511   28.8439 H   0  0  0  0  0  0  0  0  0  0  0  0
   20.3755   17.5139   28.7336 H   0  0  0  0  0  0  0  0  0  0  0  0
  1  2  1  0  0  0  0
  1  3  1  0  0  0  0
  1  4  1  0  0  0  0
  1  5  1  0  0  0  0
  5  6  1  0  0  0  0
  5  7  1  0  0  0  0
  5  8  1  0  0  0  0
  8  9  1  0  0  0  0
  8 10  1  0  0  0  0
  8 11  1  0  0  0  0
 11 12  1  0  0  0  0
 11 13  1  0  0  0  0
 11 14  1  0  0  0  0
 14 15  1  0  0  0  0
 14 16  1  0  0  0  0
 14 17  1  0  0  0  0
 17 18  1  0  0  0  0
 17 19  1  0  0  0  0
 17 20  1  0  0  0  0
 20 21  1  0  0  0  0
 20 22  1  0  0  0  0
 20 23  1  0  0  0  0
 23 24  1  0  0  0  0
 23 25  1  0  0  0  0
 23 26  1  0  0  0  0
 26 27  1  0  0  0  0
 26 28  1  0  0  0  0
 26 29  1  0  0  0  0
M  END
> <VM2 Rank>
34

> <Conf_Id>
2449

> <Probability>
0.82

> <Sum Probability>
53.00

> <Delta G>
1.118

> <G>
59.266

> <E>
21.870

> <-TS>
37.396

> <U+W>
-2.274

> <U>
49.224

> <W>
-51.498

> <W(PB)>
-54.014

> <W(SA)>
2.516

> <Valence>
3.410

> <Coulomb>
44.942

> <VdW>
0.872

> <VdW6>
-8.213

> <VdW12>
9.085

> <Bond>
0.208

> <Angle>
0.753

> <Pdih>
2.449

> <Idih>
0.000

> <Tether>
0.000

$$$$
VeraChem MOL file


 29 28  0  0  0  0  0  0  0  0999 V2000     
   20.6579   18.5237   19.5722 C   0  0  0  0  0  0  0  0  0  0  0  0
   21.6328   18.9728   19.8027 H   0  0  0  0  0  0  0  0  0  0  0  0
   20.7060   17.4555   19.8209 H   0  0  0  0  0  0  0  0  0  0  0  0
   20.4939   18.6109   18.4903 H   0  0  0  0  0  0  0  0  0  0  0  0
   19.5260   19.2246   20.3530 C   0  0  0  0  0  0  0  0  0  0  0  0
   18.5611   18.7764   20.0774 H   0  0  0  0  0  0  0  0  0  0  0  0
   19.4805   20.2822   20.0576 H   0  0  0  0  0  0  0  0  0  0  0  0
   19.7331   19.1174   21.8800 C   0  0  0  0  0  0  0  0  0  0  0  0
   19.7858   18.0573   22.1603 H   0  0  0  0  0  0  0  0  0  0  0  0
   20.6978   19.5682   22.1509 H   0  0  0  0  0  0  0  0  0  0  0  0
   18.5965   19.8163   22.6639 C   0  0  0  0  0  0  0  0  0  0  0  0
   17.6367   19.3327   22.4356 H   0  0  0  0  0  0  0  0  0  0  0  0
   18.5087   20.8550   22.3165 H   0  0  0  0  0  0  0  0  0  0  0  0
   18.8196   19.8292   24.1960 C   0  0  0  0  0  0  0  0  0  0  0  0
   19.7687   20.3350   24.4187 H   0  0  0  0  0  0  0  0  0  0  0  0
   18.0291   20.4374   24.6570 H   0  0  0  0  0  0  0  0  0  0  0  0
   18.8055   18.4167   24.8330 C   0  0  0  0  0  0  0  0  0  0  0  0
   19.6559   17.8274   24.4653 H   0  0  0  0  0  0  0  0  0  0  0  0
   17.8968   17.8861   24.5168 H   0  0  0  0  0  0  0  0  0  0  0  0
   18.8476   18.4518   26.3786 C   0  0  0  0  0  0  0  0  0  0  0  0
   17.9809   19.0085   26.7592 H   0  0  0  0  0  0  0  0  0  0  0  0
   18.7556   17.4266   26.7614 H   0  0  0  0  0  0  0  0  0  0  0  0
   20.1450   19.0784   26.9225 C   0  0  0  0  0  0  0  0  0  0  0  0
   20.2269   20.1138   26.5820 H   0  0  0  0  0  0  0  0  0  0  0  0
   21.0080   18.5224   26.5464 H   0  0  0  0  0  0  0  0  0  0  0  0
   20.2128   19.0800   28.4359 N   0  3  0  0  0  0  0  0  0  0  0  0
   19.4405   19.6109   28.8520 H   0  0  0  0  0  0  0  0  0  0  0  0
   21.0836   19.5011   28.7779 H   0  0  0  0  0  0  0  0  0  0  0  0
   20.1687   18.1307   28.8210 H   0  0  0  0  0  0  0  0  0  0  0  0
  1  2  1  0  0  0  0
  1  3  1  0  0  0  0
  1  4  1  0  0  0  0
  1  5  1  0  0  0  0
  5  6  1  0  0  0  0
  5  7  1  0  0  0  0
  5  8  1  0  0  0  0
  8  9  1  0  0  0  0
  8 10  1  0  0  0  0
  8 11  1  0  0  0  0
 11 12  1  0  0  0  0
 11 13  1  0  0  0  0
 11 14  1  0  0  0  0
 14 15  1  0  0  0  0
 14 16  1  0  0  0  0
 14 17  1  0  0  0  0
 17 18  1  0  0  0  0
 17 19  1  0  0  0  0
 17 20  1  0  0  0  0
 20 21  1  0  0  0  0
 20 22  1  0  0  0  0
 20 23  1  0  0  0  0
 23 24  1  0  0  0  0
 23 25  1  0  0  0  0
 23 26  1  0  0  0  0
 26 27  1  0  0  0  0
 26 28  1  0  0  0  0
 26 29  1  0  0  0  0
M  END
> <VM2 Rank>
35

> <Conf_Id>
2595

> <Probability>
0.81

> <Sum Probability>
53.81

> <Delta G>
1.129

> <G>
59.277

> <E>
21.881

> <-TS>
37.396

> <U+W>
-2.263

> <U>
49.224

> <W>
-51.487

> <W(PB)>
-54.002

> <W(SA)>
2.514

> <Valence>
3.410

> <Coulomb>
44.942

> <VdW>
0.872

> <VdW6>
-8.213

> <VdW12>
9.085

> <Bond>
0.208

> <Angle>
0.753

> <Pdih>
2.449

> <Idih>
0.000

> <Tether>
0.000

$$$$
VeraChem MOL file


 29 28  0  0  0  0  0  0  0  0999 V2000     
   19.9824   20.0990   19.7285 C   0  0  0  0  0  0  0  0  0  0  0  0
   19.3074   20.7950   20.2416 H   0  0  0  0  0  0  0  0  0  0  0  0
   21.0156   20.3774   19.9735 H   0  0  0  0  0  0  0  0  0  0  0  0
   19.8435   20.2404   18.6489 H   0  0  0  0  0  0  0  0  0  0  0  0
   19.6936   18.6330   20.1233 C   0  0  0  0  0  0  0  0  0  0  0  0
   20.3070   17.9703   19.4969 H   0  0  0  0  0  0  0  0  0  0  0  0
   18.6465   18.3885   19.8962 H   0  0  0  0  0  0  0  0  0  0  0  0
   19.9918   18.3263   21.6107 C   0  0  0  0  0  0  0  0  0  0  0  0
   19.8674   17.2472   21.7759 H   0  0  0  0  0  0  0  0  0  0  0  0
   21.0448   18.5530   21.8279 H   0  0  0  0  0  0  0  0  0  0  0  0
   19.0783   19.0965   22.5941 C   0  0  0  0  0  0  0  0  0  0  0  0
   18.0260   18.9085   22.3405 H   0  0  0  0  0  0  0  0  0  0  0  0
   19.2441   20.1768   22.4902 H   0  0  0  0  0  0  0  0  0  0  0  0
   19.3380   18.6839   24.0606 C   0  0  0  0  0  0  0  0  0  0  0  0
   19.1652   17.6047   24.1738 H   0  0  0  0  0  0  0  0  0  0  0  0
   20.3934   18.8651   24.3040 H   0  0  0  0  0  0  0  0  0  0  0  0
   18.4281   19.4583   25.0441 C   0  0  0  0  0  0  0  0  0  0  0  0
   17.3777   19.3080   24.7588 H   0  0  0  0  0  0  0  0  0  0  0  0
   18.6222   20.5365   24.9584 H   0  0  0  0  0  0  0  0  0  0  0  0
   18.6104   19.0170   26.5152 C   0  0  0  0  0  0  0  0  0  0  0  0
   17.8751   19.5429   27.1387 H   0  0  0  0  0  0  0  0  0  0  0  0
   18.3924   17.9447   26.6086 H   0  0  0  0  0  0  0  0  0  0  0  0
   20.0245   19.3066   27.0523 C   0  0  0  0  0  0  0  0  0  0  0  0
   20.2413   20.3743   26.9606 H   0  0  0  0  0  0  0  0  0  0  0  0
   20.7635   18.7531   26.4673 H   0  0  0  0  0  0  0  0  0  0  0  0
   20.1968   18.9175   28.5062 N   0  3  0  0  0  0  0  0  0  0  0  0
   20.0318   17.9165   28.6556 H   0  0  0  0  0  0  0  0  0  0  0  0
   19.5479   19.4250   29.1167 H   0  0  0  0  0  0  0  0  0  0  0  0
   21.1444   19.1182   28.8446 H   0  0  0  0  0  0  0  0  0  0  0  0
  1  2  1  0  0  0  0
  1  3  1  0  0  0  0
  1  4  1  0  0  0  0
  1  5  1  0  0  0  0
  5  6  1  0  0  0  0
  5  7  1  0  0  0  0
  5  8  1  0  0  0  0
  8  9  1  0  0  0  0
  8 10  1  0  0  0  0
  8 11  1  0  0  0  0
 11 12  1  0  0  0  0
 11 13  1  0  0  0  0
 11 14  1  0  0  0  0
 14 15  1  0  0  0  0
 14 16  1  0  0  0  0
 14 17  1  0  0  0  0
 17 18  1  0  0  0  0
 17 19  1  0  0  0  0
 17 20  1  0  0  0  0
 20 21  1  0  0  0  0
 20 22  1  0  0  0  0
 20 23  1  0  0  0  0
 23 24  1  0  0  0  0
 23 25  1  0  0  0  0
 23 26  1  0  0  0  0
 26 27  1  0  0  0  0
 26 28  1  0  0  0  0
 26 29  1  0  0  0  0
M  END
> <VM2 Rank>
36

> <Conf_Id>
2543

> <Probability>
0.80

> <Sum Probability>
54.61

> <Delta G>
1.133

> <G>
59.281

> <E>
21.887

> <-TS>
37.394

> <U+W>
-2.258

> <U>
49.098

> <W>
-51.355

> <W(PB)>
-53.878

> <W(SA)>
2.523

> <Valence>
3.391

> <Coulomb>
44.787

> <VdW>
0.920

> <VdW6>
-8.128

> <VdW12>
9.048

> <Bond>
0.202

> <Angle>
0.764

> <Pdih>
2.425

> <Idih>
0.000

> <Tether>
0.000

$$$$
VeraChem MOL file


 29 28  0  0  0  0  0  0  0  0999 V2000     
   19.9540   19.6363   19.5234 C   0  0  0  0  0  0  0  0  0  0  0  0
   19.8200   20.6006   20.0288 H   0  0  0  0  0  0  0  0  0  0  0  0
   21.0207   19.3785   19.5501 H   0  0  0  0  0  0  0  0  0  0  0  0
   19.6676   19.7722   18.4724 H   0  0  0  0  0  0  0  0  0  0  0  0
   19.0982   18.5284   20.1780 C   0  0  0  0  0  0  0  0  0  0  0  0
   19.1706   17.6177   19.5672 H   0  0  0  0  0  0  0  0  0  0  0  0
   18.0396   18.8234   20.1660 H   0  0  0  0  0  0  0  0  0  0  0  0
   19.5310   18.1911   21.6252 C   0  0  0  0  0  0  0  0  0  0  0  0
   18.9492   17.3252   21.9701 H   0  0  0  0  0  0  0  0  0  0  0  0
   20.5841   17.8775   21.6294 H   0  0  0  0  0  0  0  0  0  0  0  0
   19.3310   19.3618   22.6173 C   0  0  0  0  0  0  0  0  0  0  0  0
   18.2888   19.7065   22.5725 H   0  0  0  0  0  0  0  0  0  0  0  0
   19.9616   20.2114   22.3241 H   0  0  0  0  0  0  0  0  0  0  0  0
   19.6766   18.9508   24.0663 C   0  0  0  0  0  0  0  0  0  0  0  0
   19.0464   18.1009   24.3604 H   0  0  0  0  0  0  0  0  0  0  0  0
   20.7188   18.6052   24.1097 H   0  0  0  0  0  0  0  0  0  0  0  0
   19.4792   20.1225   25.0576 C   0  0  0  0  0  0  0  0  0  0  0  0
   18.4302   20.4495   25.0410 H   0  0  0  0  0  0  0  0  0  0  0  0
   20.0778   20.9819   24.7251 H   0  0  0  0  0  0  0  0  0  0  0  0
   19.8855   19.7666   26.5069 C   0  0  0  0  0  0  0  0  0  0  0  0
   20.9406   19.4631   26.5304 H   0  0  0  0  0  0  0  0  0  0  0  0
   19.8030   20.6662   27.1313 H   0  0  0  0  0  0  0  0  0  0  0  0
   19.0124   18.6519   27.1128 C   0  0  0  0  0  0  0  0  0  0  0  0
   19.1201   17.7364   26.5255 H   0  0  0  0  0  0  0  0  0  0  0  0
   17.9619   18.9543   27.0908 H   0  0  0  0  0  0  0  0  0  0  0  0
   19.3761   18.3288   28.5475 N   0  3  0  0  0  0  0  0  0  0  0  0
   20.3475   18.0117   28.6329 H   0  0  0  0  0  0  0  0  0  0  0  0
   18.7837   17.5848   28.9325 H   0  0  0  0  0  0  0  0  0  0  0  0
   19.2693   19.1433   29.1612 H   0  0  0  0  0  0  0  0  0  0  0  0
  1  2  1  0  0  0  0
  1  3  1  0  0  0  0
  1  4  1  0  0  0  0
  1  5  1  0  0  0  0
  5  6  1  0  0  0  0
  5  7  1  0  0  0  0
  5  8  1  0  0  0  0
  8  9  1  0  0  0  0
  8 10  1  0  0  0  0
  8 11  1  0  0  0  0
 11 12  1  0  0  0  0
 11 13  1  0  0  0  0
 11 14  1  0  0  0  0
 14 15  1  0  0  0  0
 14 16  1  0  0  0  0
 14 17  1  0  0  0  0
 17 18  1  0  0  0  0
 17 19  1  0  0  0  0
 17 20  1  0  0  0  0
 20 21  1  0  0  0  0
 20 22  1  0  0  0  0
 20 23  1  0  0  0  0
 23 24  1  0  0  0  0
 23 25  1  0  0  0  0
 23 26  1  0  0  0  0
 26 27  1  0  0  0  0
 26 28  1  0  0  0  0
 26 29  1  0  0  0  0
M  END
> <VM2 Rank>
37

> <Conf_Id>
1021

> <Probability>
0.80

> <Sum Probability>
55.41

> <Delta G>
1.137

> <G>
59.285

> <E>
21.891

> <-TS>
37.394

> <U+W>
-2.254

> <U>
49.086

> <W>
-51.340

> <W(PB)>
-53.921

> <W(SA)>
2.581

> <Valence>
3.390

> <Coulomb>
44.772

> <VdW>
0.923

> <VdW6>
-8.126

> <VdW12>
9.049

> <Bond>
0.202

> <Angle>
0.764

> <Pdih>
2.424

> <Idih>
0.000

> <Tether>
0.000

$$$$
VeraChem MOL file


 29 28  0  0  0  0  0  0  0  0999 V2000     
   20.7726   18.6297   19.6417 C   0  0  0  0  0  0  0  0  0  0  0  0
   21.6677   19.2344   19.8375 H   0  0  0  0  0  0  0  0  0  0  0  0
   21.1021   17.6468   19.2806 H   0  0  0  0  0  0  0  0  0  0  0  0
   20.2039   19.1113   18.8355 H   0  0  0  0  0  0  0  0  0  0  0  0
   19.9138   18.4823   20.9156 C   0  0  0  0  0  0  0  0  0  0  0  0
   20.5018   17.9613   21.6827 H   0  0  0  0  0  0  0  0  0  0  0  0
   19.0427   17.8493   20.6963 H   0  0  0  0  0  0  0  0  0  0  0  0
   19.4410   19.8563   21.4460 C   0  0  0  0  0  0  0  0  0  0  0  0
   20.3123   20.4692   21.7152 H   0  0  0  0  0  0  0  0  0  0  0  0
   18.9252   20.3925   20.6374 H   0  0  0  0  0  0  0  0  0  0  0  0
   18.4820   19.7567   22.6577 C   0  0  0  0  0  0  0  0  0  0  0  0
   17.6027   19.1584   22.3819 H   0  0  0  0  0  0  0  0  0  0  0  0
   18.1094   20.7641   22.8894 H   0  0  0  0  0  0  0  0  0  0  0  0
   19.1438   19.1613   23.9235 C   0  0  0  0  0  0  0  0  0  0  0  0
   19.4499   18.1244   23.7330 H   0  0  0  0  0  0  0  0  0  0  0  0
   20.0558   19.7279   24.1539 H   0  0  0  0  0  0  0  0  0  0  0  0
   18.1838   19.1897   25.1368 C   0  0  0  0  0  0  0  0  0  0  0  0
   17.2542   18.6661   24.8740 H   0  0  0  0  0  0  0  0  0  0  0  0
   17.9025   20.2276   25.3635 H   0  0  0  0  0  0  0  0  0  0  0  0
   18.7838   18.5309   26.4011 C   0  0  0  0  0  0  0  0  0  0  0  0
   18.0196   18.5112   27.1894 H   0  0  0  0  0  0  0  0  0  0  0  0
   19.0407   17.4852   26.1857 H   0  0  0  0  0  0  0  0  0  0  0  0
   20.0279   19.2725   26.9247 C   0  0  0  0  0  0  0  0  0  0  0  0
   19.7721   20.3134   27.1406 H   0  0  0  0  0  0  0  0  0  0  0  0
   20.8133   19.2610   26.1646 H   0  0  0  0  0  0  0  0  0  0  0  0
   20.5952   18.6585   28.1880 N   0  3  0  0  0  0  0  0  0  0  0  0
   19.9137   18.6636   28.9543 H   0  0  0  0  0  0  0  0  0  0  0  0
   21.4224   19.1664   28.5204 H   0  0  0  0  0  0  0  0  0  0  0  0
   20.8805   17.6841   28.0442 H   0  0  0  0  0  0  0  0  0  0  0  0
  1  2  1  0  0  0  0
  1  3  1  0  0  0  0
  1  4  1  0  0  0  0
  1  5  1  0  0  0  0
  5  6  1  0  0  0  0
  5  7  1  0  0  0  0
  5  8  1  0  0  0  0
  8  9  1  0  0  0  0
  8 10  1  0  0  0  0
  8 11  1  0  0  0  0
 11 12  1  0  0  0  0
 11 13  1  0  0  0  0
 11 14  1  0  0  0  0
 14 15  1  0  0  0  0
 14 16  1  0  0  0  0
 14 17  1  0  0  0  0
 17 18  1  0  0  0  0
 17 19  1  0  0  0  0
 17 20  1  0  0  0  0
 20 21  1  0  0  0  0
 20 22  1  0  0  0  0
 20 23  1  0  0  0  0
 23 24  1  0  0  0  0
 23 25  1  0  0  0  0
 23 26  1  0  0  0  0
 26 27  1  0  0  0  0
 26 28  1  0  0  0  0
 26 29  1  0  0  0  0
M  END
> <VM2 Rank>
38

> <Conf_Id>
2278

> <Probability>
0.73

> <Sum Probability>
56.14

> <Delta G>
1.187

> <G>
59.335

> <E>
21.950

> <-TS>
37.385

> <U+W>
-2.194

> <U>
49.334

> <W>
-51.528

> <W(PB)>
-54.060

> <W(SA)>
2.532

> <Valence>
3.429

> <Coulomb>
45.008

> <VdW>
0.897

> <VdW6>
-8.188

> <VdW12>
9.084

> <Bond>
0.206

> <Angle>
0.786

> <Pdih>
2.437

> <Idih>
0.000

> <Tether>
0.000

$$$$
VeraChem MOL file


 29 28  0  0  0  0  0  0  0  0999 V2000     
   20.3640   19.3180   19.2778 C   0  0  0  0  0  0  0  0  0  0  0  0
   20.9697   18.4025   19.2629 H   0  0  0  0  0  0  0  0  0  0  0  0
   19.9843   19.4875   18.2619 H   0  0  0  0  0  0  0  0  0  0  0  0
   21.0210   20.1586   19.5368 H   0  0  0  0  0  0  0  0  0  0  0  0
   19.1983   19.1953   20.2818 C   0  0  0  0  0  0  0  0  0  0  0  0
   18.5407   18.3692   19.9770 H   0  0  0  0  0  0  0  0  0  0  0  0
   18.5920   20.1115   20.2506 H   0  0  0  0  0  0  0  0  0  0  0  0
   19.7057   18.9552   21.7209 C   0  0  0  0  0  0  0  0  0  0  0  0
   20.3091   18.0374   21.7475 H   0  0  0  0  0  0  0  0  0  0  0  0
   20.3682   19.7819   22.0084 H   0  0  0  0  0  0  0  0  0  0  0  0
   18.5373   18.8362   22.7289 C   0  0  0  0  0  0  0  0  0  0  0  0
   17.8431   18.0596   22.3793 H   0  0  0  0  0  0  0  0  0  0  0  0
   17.9659   19.7745   22.7472 H   0  0  0  0  0  0  0  0  0  0  0  0
   18.9895   18.4761   24.1656 C   0  0  0  0  0  0  0  0  0  0  0  0
   18.0909   18.2811   24.7655 H   0  0  0  0  0  0  0  0  0  0  0  0
   19.5578   17.5360   24.1466 H   0  0  0  0  0  0  0  0  0  0  0  0
   19.8339   19.5843   24.8448 C   0  0  0  0  0  0  0  0  0  0  0  0
   19.2757   20.5307   24.8419 H   0  0  0  0  0  0  0  0  0  0  0  0
   20.7486   19.7598   24.2642 H   0  0  0  0  0  0  0  0  0  0  0  0
   20.2430   19.2316   26.2943 C   0  0  0  0  0  0  0  0  0  0  0  0
   20.8077   18.2898   26.2998 H   0  0  0  0  0  0  0  0  0  0  0  0
   20.9226   20.0079   26.6706 H   0  0  0  0  0  0  0  0  0  0  0  0
   19.0364   19.1185   27.2449 C   0  0  0  0  0  0  0  0  0  0  0  0
   18.3739   18.3163   26.9098 H   0  0  0  0  0  0  0  0  0  0  0  0
   18.4737   20.0559   27.2384 H   0  0  0  0  0  0  0  0  0  0  0  0
   19.4360   18.8228   28.6759 N   0  3  0  0  0  0  0  0  0  0  0  0
   19.9479   17.9377   28.7542 H   0  0  0  0  0  0  0  0  0  0  0  0
   18.6192   18.7515   29.2926 H   0  0  0  0  0  0  0  0  0  0  0  0
   20.0394   19.5559   29.0631 H   0  0  0  0  0  0  0  0  0  0  0  0
  1  2  1  0  0  0  0
  1  3  1  0  0  0  0
  1  4  1  0  0  0  0
  1  5  1  0  0  0  0
  5  6  1  0  0  0  0
  5  7  1  0  0  0  0
  5  8  1  0  0  0  0
  8  9  1  0  0  0  0
  8 10  1  0  0  0  0
  8 11  1  0  0  0  0
 11 12  1  0  0  0  0
 11 13  1  0  0  0  0
 11 14  1  0  0  0  0
 14 15  1  0  0  0  0
 14 16  1  0  0  0  0
 14 17  1  0  0  0  0
 17 18  1  0  0  0  0
 17 19  1  0  0  0  0
 17 20  1  0  0  0  0
 20 21  1  0  0  0  0
 20 22  1  0  0  0  0
 20 23  1  0  0  0  0
 23 24  1  0  0  0  0
 23 25  1  0  0  0  0
 23 26  1  0  0  0  0
 26 27  1  0  0  0  0
 26 28  1  0  0  0  0
 26 29  1  0  0  0  0
M  END
> <VM2 Rank>
39

> <Conf_Id>
1629

> <Probability>
0.72

> <Sum Probability>
56.86

> <Delta G>
1.198

> <G>
59.346

> <E>
21.992

> <-TS>
37.355

> <U+W>
-2.153

> <U>
49.234

> <W>
-51.387

> <W(PB)>
-53.937

> <W(SA)>
2.550

> <Valence>
3.474

> <Coulomb>
44.816

> <VdW>
0.944

> <VdW6>
-8.147

> <VdW12>
9.091

> <Bond>
0.214

> <Angle>
0.815

> <Pdih>
2.445

> <Idih>
0.000

> <Tether>
0.000

$$$$
VeraChem MOL file


 29 28  0  0  0  0  0  0  0  0999 V2000     
   20.3951   18.4158   19.5221 C   0  0  0  0  0  0  0  0  0  0  0  0
   21.4720   18.4808   19.7254 H   0  0  0  0  0  0  0  0  0  0  0  0
   20.2311   17.5716   18.8399 H   0  0  0  0  0  0  0  0  0  0  0  0
   20.0892   19.3334   19.0027 H   0  0  0  0  0  0  0  0  0  0  0  0
   19.5948   18.2247   20.8278 C   0  0  0  0  0  0  0  0  0  0  0  0
   19.8983   17.2833   21.3069 H   0  0  0  0  0  0  0  0  0  0  0  0
   18.5261   18.1295   20.5898 H   0  0  0  0  0  0  0  0  0  0  0  0
   19.8083   19.4005   21.8066 C   0  0  0  0  0  0  0  0  0  0  0  0
   20.8779   19.4930   22.0403 H   0  0  0  0  0  0  0  0  0  0  0  0
   19.5062   20.3394   21.3221 H   0  0  0  0  0  0  0  0  0  0  0  0
   19.0081   19.2128   23.1152 C   0  0  0  0  0  0  0  0  0  0  0  0
   19.3113   18.2694   23.5880 H   0  0  0  0  0  0  0  0  0  0  0  0
   17.9381   19.1249   22.8816 H   0  0  0  0  0  0  0  0  0  0  0  0
   19.2281   20.3892   24.0960 C   0  0  0  0  0  0  0  0  0  0  0  0
   20.2906   20.4519   24.3671 H   0  0  0  0  0  0  0  0  0  0  0  0
   18.9911   21.3315   23.5829 H   0  0  0  0  0  0  0  0  0  0  0  0
   18.3585   20.2997   25.3766 C   0  0  0  0  0  0  0  0  0  0  0  0
   17.2974   20.3452   25.0952 H   0  0  0  0  0  0  0  0  0  0  0  0
   18.5461   21.1903   25.9924 H   0  0  0  0  0  0  0  0  0  0  0  0
   18.5959   19.0355   26.2396 C   0  0  0  0  0  0  0  0  0  0  0  0
   17.9541   19.0888   27.1290 H   0  0  0  0  0  0  0  0  0  0  0  0
   18.2828   18.1395   25.6885 H   0  0  0  0  0  0  0  0  0  0  0  0
   20.0622   18.8852   26.6852 C   0  0  0  0  0  0  0  0  0  0  0  0
   20.3698   19.7732   27.2440 H   0  0  0  0  0  0  0  0  0  0  0  0
   20.7065   18.7895   25.8074 H   0  0  0  0  0  0  0  0  0  0  0  0
   20.2929   17.6745   27.5659 N   0  3  0  0  0  0  0  0  0  0  0  0
   19.7347   17.7157   28.4251 H   0  0  0  0  0  0  0  0  0  0  0  0
   21.2750   17.5927   27.8514 H   0  0  0  0  0  0  0  0  0  0  0  0
   20.0469   16.8016   27.0874 H   0  0  0  0  0  0  0  0  0  0  0  0
  1  2  1  0  0  0  0
  1  3  1  0  0  0  0
  1  4  1  0  0  0  0
  1  5  1  0  0  0  0
  5  6  1  0  0  0  0
  5  7  1  0  0  0  0
  5  8  1  0  0  0  0
  8  9  1  0  0  0  0
  8 10  1  0  0  0  0
  8 11  1  0  0  0  0
 11 12  1  0  0  0  0
 11 13  1  0  0  0  0
 11 14  1  0  0  0  0
 14 15  1  0  0  0  0
 14 16  1  0  0  0  0
 14 17  1  0  0  0  0
 17 18  1  0  0  0  0
 17 19  1  0  0  0  0
 17 20  1  0  0  0  0
 20 21  1  0  0  0  0
 20 22  1  0  0  0  0
 20 23  1  0  0  0  0
 23 24  1  0  0  0  0
 23 25  1  0  0  0  0
 23 26  1  0  0  0  0
 26 27  1  0  0  0  0
 26 28  1  0  0  0  0
 26 29  1  0  0  0  0
M  END
> <VM2 Rank>
40

> <Conf_Id>
586

> <Probability>
0.71

> <Sum Probability>
57.58

> <Delta G>
1.203

> <G>
59.351

> <E>
21.827

> <-TS>
37.524

> <U+W>
-2.318

> <U>
49.532

> <W>
-51.850

> <W(PB)>
-54.376

> <W(SA)>
2.526

> <Valence>
3.341

> <Coulomb>
45.459

> <VdW>
0.732

> <VdW6>
-8.518

> <VdW12>
9.251

> <Bond>
0.212

> <Angle>
0.893

> <Pdih>
2.236

> <Idih>
0.000

> <Tether>
0.000

$$$$
VeraChem MOL file


 29 28  0  0  0  0  0  0  0  0999 V2000     
   20.8140   18.7468   19.6440 C   0  0  0  0  0  0  0  0  0  0  0  0
   21.6954   19.3138   19.3173 H   0  0  0  0  0  0  0  0  0  0  0  0
   21.1228   17.7054   19.8030 H   0  0  0  0  0  0  0  0  0  0  0  0
   20.0802   18.7651   18.8276 H   0  0  0  0  0  0  0  0  0  0  0  0
   20.2239   19.3531   20.9347 C   0  0  0  0  0  0  0  0  0  0  0  0
   19.9517   20.4022   20.7530 H   0  0  0  0  0  0  0  0  0  0  0  0
   20.9980   19.3547   21.7134 H   0  0  0  0  0  0  0  0  0  0  0  0
   18.9819   18.5673   21.4172 C   0  0  0  0  0  0  0  0  0  0  0  0
   18.2546   18.5101   20.5955 H   0  0  0  0  0  0  0  0  0  0  0  0
   19.2661   17.5317   21.6496 H   0  0  0  0  0  0  0  0  0  0  0  0
   18.2847   19.2024   22.6453 C   0  0  0  0  0  0  0  0  0  0  0  0
   17.3561   18.6491   22.8423 H   0  0  0  0  0  0  0  0  0  0  0  0
   17.9854   20.2322   22.4060 H   0  0  0  0  0  0  0  0  0  0  0  0
   19.1561   19.1949   23.9242 C   0  0  0  0  0  0  0  0  0  0  0  0
   19.5013   18.1709   24.1193 H   0  0  0  0  0  0  0  0  0  0  0  0
   20.0514   19.8114   23.7705 H   0  0  0  0  0  0  0  0  0  0  0  0
   18.3773   19.7320   25.1489 C   0  0  0  0  0  0  0  0  0  0  0  0
   17.5000   19.0978   25.3382 H   0  0  0  0  0  0  0  0  0  0  0  0
   17.9920   20.7353   24.9200 H   0  0  0  0  0  0  0  0  0  0  0  0
   19.2407   19.8124   26.4296 C   0  0  0  0  0  0  0  0  0  0  0  0
   20.1041   20.4674   26.2522 H   0  0  0  0  0  0  0  0  0  0  0  0
   18.6502   20.2799   27.2287 H   0  0  0  0  0  0  0  0  0  0  0  0
   19.7279   18.4313   26.9061 C   0  0  0  0  0  0  0  0  0  0  0  0
   20.3545   17.9736   26.1363 H   0  0  0  0  0  0  0  0  0  0  0  0
   18.8686   17.7792   27.0842 H   0  0  0  0  0  0  0  0  0  0  0  0
   20.5374   18.4978   28.1849 N   0  3  0  0  0  0  0  0  0  0  0  0
   21.3766   19.0768   28.0759 H   0  0  0  0  0  0  0  0  0  0  0  0
   20.8521   17.5686   28.4854 H   0  0  0  0  0  0  0  0  0  0  0  0
   19.9954   18.8945   28.9597 H   0  0  0  0  0  0  0  0  0  0  0  0
  1  2  1  0  0  0  0
  1  3  1  0  0  0  0
  1  4  1  0  0  0  0
  1  5  1  0  0  0  0
  5  6  1  0  0  0  0
  5  7  1  0  0  0  0
  5  8  1  0  0  0  0
  8  9  1  0  0  0  0
  8 10  1  0  0  0  0
  8 11  1  0  0  0  0
 11 12  1  0  0  0  0
 11 13  1  0  0  0  0
 11 14  1  0  0  0  0
 14 15  1  0  0  0  0
 14 16  1  0  0  0  0
 14 17  1  0  0  0  0
 17 18  1  0  0  0  0
 17 19  1  0  0  0  0
 17 20  1  0  0  0  0
 20 21  1  0  0  0  0
 20 22  1  0  0  0  0
 20 23  1  0  0  0  0
 23 24  1  0  0  0  0
 23 25  1  0  0  0  0
 23 26  1  0  0  0  0
 26 27  1  0  0  0  0
 26 28  1  0  0  0  0
 26 29  1  0  0  0  0
M  END
> <VM2 Rank>
41

> <Conf_Id>
2626

> <Probability>
0.71

> <Sum Probability>
58.28

> <Delta G>
1.209

> <G>
59.357

> <E>
21.972

> <-TS>
37.385

> <U+W>
-2.173

> <U>
49.333

> <W>
-51.506

> <W(PB)>
-54.050

> <W(SA)>
2.544

> <Valence>
3.429

> <Coulomb>
45.008

> <VdW>
0.896

> <VdW6>
-8.187

> <VdW12>
9.084

> <Bond>
0.206

> <Angle>
0.786

> <Pdih>
2.437

> <Idih>
0.000

> <Tether>
0.000

$$$$
VeraChem MOL file


 29 28  0  0  0  0  0  0  0  0999 V2000     
   18.4798   18.6788   19.8094 C   0  0  0  0  0  0  0  0  0  0  0  0
   18.3299   18.7283   18.7231 H   0  0  0  0  0  0  0  0  0  0  0  0
   18.8105   17.6611   20.0510 H   0  0  0  0  0  0  0  0  0  0  0  0
   17.5078   18.8484   20.2907 H   0  0  0  0  0  0  0  0  0  0  0  0
   19.5149   19.7336   20.2613 C   0  0  0  0  0  0  0  0  0  0  0  0
   19.1981   20.7206   19.8965 H   0  0  0  0  0  0  0  0  0  0  0  0
   20.4844   19.5270   19.7868 H   0  0  0  0  0  0  0  0  0  0  0  0
   19.6882   19.8035   21.7976 C   0  0  0  0  0  0  0  0  0  0  0  0
   20.3590   20.6403   22.0359 H   0  0  0  0  0  0  0  0  0  0  0  0
   18.7195   20.0402   22.2569 H   0  0  0  0  0  0  0  0  0  0  0  0
   20.2645   18.5017   22.4095 C   0  0  0  0  0  0  0  0  0  0  0  0
   21.1664   18.2131   21.8524 H   0  0  0  0  0  0  0  0  0  0  0  0
   19.5479   17.6787   22.2874 H   0  0  0  0  0  0  0  0  0  0  0  0
   20.6343   18.6358   23.9071 C   0  0  0  0  0  0  0  0  0  0  0  0
   21.1318   17.7097   24.2267 H   0  0  0  0  0  0  0  0  0  0  0  0
   21.3711   19.4410   24.0334 H   0  0  0  0  0  0  0  0  0  0  0  0
   19.4142   18.8952   24.8231 C   0  0  0  0  0  0  0  0  0  0  0  0
   18.6566   18.1171   24.6555 H   0  0  0  0  0  0  0  0  0  0  0  0
   18.9484   19.8555   24.5649 H   0  0  0  0  0  0  0  0  0  0  0  0
   19.8114   18.9133   26.3155 C   0  0  0  0  0  0  0  0  0  0  0  0
   20.2684   17.9528   26.5889 H   0  0  0  0  0  0  0  0  0  0  0  0
   20.5676   19.6909   26.4872 H   0  0  0  0  0  0  0  0  0  0  0  0
   18.5936   19.1753   27.2188 C   0  0  0  0  0  0  0  0  0  0  0  0
   17.8447   18.3941   27.0630 H   0  0  0  0  0  0  0  0  0  0  0  0
   18.1449   20.1387   26.9618 H   0  0  0  0  0  0  0  0  0  0  0  0
   18.9432   19.2007   28.6926 N   0  3  0  0  0  0  0  0  0  0  0  0
   19.3462   18.3110   29.0049 H   0  0  0  0  0  0  0  0  0  0  0  0
   18.1183   19.3765   29.2768 H   0  0  0  0  0  0  0  0  0  0  0  0
   19.6256   19.9345   28.9107 H   0  0  0  0  0  0  0  0  0  0  0  0
  1  2  1  0  0  0  0
  1  3  1  0  0  0  0
  1  4  1  0  0  0  0
  1  5  1  0  0  0  0
  5  6  1  0  0  0  0
  5  7  1  0  0  0  0
  5  8  1  0  0  0  0
  8  9  1  0  0  0  0
  8 10  1  0  0  0  0
  8 11  1  0  0  0  0
 11 12  1  0  0  0  0
 11 13  1  0  0  0  0
 11 14  1  0  0  0  0
 14 15  1  0  0  0  0
 14 16  1  0  0  0  0
 14 17  1  0  0  0  0
 17 18  1  0  0  0  0
 17 19  1  0  0  0  0
 17 20  1  0  0  0  0
 20 21  1  0  0  0  0
 20 22  1  0  0  0  0
 20 23  1  0  0  0  0
 23 24  1  0  0  0  0
 23 25  1  0  0  0  0
 23 26  1  0  0  0  0
 26 27  1  0  0  0  0
 26 28  1  0  0  0  0
 26 29  1  0  0  0  0
M  END
> <VM2 Rank>
42

> <Conf_Id>
2315

> <Probability>
0.68

> <Sum Probability>
58.97

> <Delta G>
1.228

> <G>
59.376

> <E>
21.955

> <-TS>
37.421

> <U+W>
-2.190

> <U>
49.092

> <W>
-51.281

> <W(PB)>
-53.789

> <W(SA)>
2.508

> <Valence>
3.601

> <Coulomb>
44.542

> <VdW>
0.949

> <VdW6>
-8.237

> <VdW12>
9.186

> <Bond>
0.219

> <Angle>
0.852

> <Pdih>
2.529

> <Idih>
0.000

> <Tether>
0.000

$$$$
VeraChem MOL file


 29 28  0  0  0  0  0  0  0  0999 V2000     
   20.8678   19.6674   19.7806 C   0  0  0  0  0  0  0  0  0  0  0  0
   21.5331   20.5313   19.6531 H   0  0  0  0  0  0  0  0  0  0  0  0
   21.4820   18.7588   19.7321 H   0  0  0  0  0  0  0  0  0  0  0  0
   20.1685   19.6532   18.9344 H   0  0  0  0  0  0  0  0  0  0  0  0
   20.1126   19.7547   21.1237 C   0  0  0  0  0  0  0  0  0  0  0  0
   19.5310   20.6867   21.1546 H   0  0  0  0  0  0  0  0  0  0  0  0
   20.8445   19.8082   21.9404 H   0  0  0  0  0  0  0  0  0  0  0  0
   19.1711   18.5443   21.3276 C   0  0  0  0  0  0  0  0  0  0  0  0
   18.5024   18.4627   20.4595 H   0  0  0  0  0  0  0  0  0  0  0  0
   19.7598   17.6169   21.3511 H   0  0  0  0  0  0  0  0  0  0  0  0
   18.3037   18.6413   22.6066 C   0  0  0  0  0  0  0  0  0  0  0  0
   17.5881   17.8075   22.6042 H   0  0  0  0  0  0  0  0  0  0  0  0
   17.7047   19.5619   22.5757 H   0  0  0  0  0  0  0  0  0  0  0  0
   19.1257   18.5965   23.9171 C   0  0  0  0  0  0  0  0  0  0  0  0
   19.7620   17.7008   23.9197 H   0  0  0  0  0  0  0  0  0  0  0  0
   19.7945   19.4649   23.9622 H   0  0  0  0  0  0  0  0  0  0  0  0
   18.2108   18.5832   25.1652 C   0  0  0  0  0  0  0  0  0  0  0  0
   17.5149   17.7358   25.0946 H   0  0  0  0  0  0  0  0  0  0  0  0
   17.5932   19.4920   25.1817 H   0  0  0  0  0  0  0  0  0  0  0  0
   18.9963   18.4692   26.4927 C   0  0  0  0  0  0  0  0  0  0  0  0
   18.2825   18.3750   27.3220 H   0  0  0  0  0  0  0  0  0  0  0  0
   19.5967   17.5497   26.4885 H   0  0  0  0  0  0  0  0  0  0  0  0
   19.9092   19.6826   26.7505 C   0  0  0  0  0  0  0  0  0  0  0  0
   19.3116   20.5982   26.7553 H   0  0  0  0  0  0  0  0  0  0  0  0
   20.6544   19.7613   25.9549 H   0  0  0  0  0  0  0  0  0  0  0  0
   20.6468   19.5986   28.0710 N   0  3  0  0  0  0  0  0  0  0  0  0
   21.2487   20.4153   28.2239 H   0  0  0  0  0  0  0  0  0  0  0  0
   21.2490   18.7701   28.1200 H   0  0  0  0  0  0  0  0  0  0  0  0
   20.0014   19.5502   28.8664 H   0  0  0  0  0  0  0  0  0  0  0  0
  1  2  1  0  0  0  0
  1  3  1  0  0  0  0
  1  4  1  0  0  0  0
  1  5  1  0  0  0  0
  5  6  1  0  0  0  0
  5  7  1  0  0  0  0
  5  8  1  0  0  0  0
  8  9  1  0  0  0  0
  8 10  1  0  0  0  0
  8 11  1  0  0  0  0
 11 12  1  0  0  0  0
 11 13  1  0  0  0  0
 11 14  1  0  0  0  0
 14 15  1  0  0  0  0
 14 16  1  0  0  0  0
 14 17  1  0  0  0  0
 17 18  1  0  0  0  0
 17 19  1  0  0  0  0
 17 20  1  0  0  0  0
 20 21  1  0  0  0  0
 20 22  1  0  0  0  0
 20 23  1  0  0  0  0
 23 24  1  0  0  0  0
 23 25  1  0  0  0  0
 23 26  1  0  0  0  0
 26 27  1  0  0  0  0
 26 28  1  0  0  0  0
 26 29  1  0  0  0  0
M  END
> <VM2 Rank>
43

> <Conf_Id>
1635

> <Probability>
0.68

> <Sum Probability>
59.65

> <Delta G>
1.230

> <G>
59.378

> <E>
21.997

> <-TS>
37.381

> <U+W>
-2.148

> <U>
49.444

> <W>
-51.591

> <W(PB)>
-54.118

> <W(SA)>
2.527

> <Valence>
3.428

> <Coulomb>
45.119

> <VdW>
0.896

> <VdW6>
-8.201

> <VdW12>
9.097

> <Bond>
0.208

> <Angle>
0.785

> <Pdih>
2.436

> <Idih>
0.000

> <Tether>
0.000

$$$$
VeraChem MOL file


 29 28  0  0  0  0  0  0  0  0999 V2000     
   19.0007   20.1491   19.8422 C   0  0  0  0  0  0  0  0  0  0  0  0
   18.8684   20.2480   18.7570 H   0  0  0  0  0  0  0  0  0  0  0  0
   18.1320   20.6101   20.3299 H   0  0  0  0  0  0  0  0  0  0  0  0
   19.8947   20.7214   20.1192 H   0  0  0  0  0  0  0  0  0  0  0  0
   19.1350   18.6611   20.2374 C   0  0  0  0  0  0  0  0  0  0  0  0
   20.0249   18.2303   19.7579 H   0  0  0  0  0  0  0  0  0  0  0  0
   18.2728   18.1089   19.8382 H   0  0  0  0  0  0  0  0  0  0  0  0
   19.2041   18.4371   21.7672 C   0  0  0  0  0  0  0  0  0  0  0  0
   18.2960   18.8448   22.2303 H   0  0  0  0  0  0  0  0  0  0  0  0
   19.1953   17.3560   21.9627 H   0  0  0  0  0  0  0  0  0  0  0  0
   20.4625   19.0605   22.4220 C   0  0  0  0  0  0  0  0  0  0  0  0
   20.4254   20.1550   22.3426 H   0  0  0  0  0  0  0  0  0  0  0  0
   21.3527   18.7389   21.8642 H   0  0  0  0  0  0  0  0  0  0  0  0
   20.6444   18.6644   23.9077 C   0  0  0  0  0  0  0  0  0  0  0  0
   20.7085   17.5707   23.9917 H   0  0  0  0  0  0  0  0  0  0  0  0
   21.6093   19.0575   24.2567 H   0  0  0  0  0  0  0  0  0  0  0  0
   19.5203   19.1946   24.8298 C   0  0  0  0  0  0  0  0  0  0  0  0
   18.5577   18.7527   24.5403 H   0  0  0  0  0  0  0  0  0  0  0  0
   19.4236   20.2820   24.7037 H   0  0  0  0  0  0  0  0  0  0  0  0
   19.7966   18.8716   26.3146 C   0  0  0  0  0  0  0  0  0  0  0  0
   19.8925   17.7853   26.4448 H   0  0  0  0  0  0  0  0  0  0  0  0
   20.7523   19.3187   26.6193 H   0  0  0  0  0  0  0  0  0  0  0  0
   18.6727   19.3988   27.2238 C   0  0  0  0  0  0  0  0  0  0  0  0
   17.7214   18.9437   26.9351 H   0  0  0  0  0  0  0  0  0  0  0  0
   18.5846   20.4826   27.1096 H   0  0  0  0  0  0  0  0  0  0  0  0
   18.9077   19.1007   28.6904 N   0  3  0  0  0  0  0  0  0  0  0  0
   18.9732   18.0932   28.8696 H   0  0  0  0  0  0  0  0  0  0  0  0
   18.1479   19.4602   29.2787 H   0  0  0  0  0  0  0  0  0  0  0  0
   19.7764   19.5253   29.0319 H   0  0  0  0  0  0  0  0  0  0  0  0
  1  2  1  0  0  0  0
  1  3  1  0  0  0  0
  1  4  1  0  0  0  0
  1  5  1  0  0  0  0
  5  6  1  0  0  0  0
  5  7  1  0  0  0  0
  5  8  1  0  0  0  0
  8  9  1  0  0  0  0
  8 10  1  0  0  0  0
  8 11  1  0  0  0  0
 11 12  1  0  0  0  0
 11 13  1  0  0  0  0
 11 14  1  0  0  0  0
 14 15  1  0  0  0  0
 14 16  1  0  0  0  0
 14 17  1  0  0  0  0
 17 18  1  0  0  0  0
 17 19  1  0  0  0  0
 17 20  1  0  0  0  0
 20 21  1  0  0  0  0
 20 22  1  0  0  0  0
 20 23  1  0  0  0  0
 23 24  1  0  0  0  0
 23 25  1  0  0  0  0
 23 26  1  0  0  0  0
 26 27  1  0  0  0  0
 26 28  1  0  0  0  0
 26 29  1  0  0  0  0
M  END
> <VM2 Rank>
44

> <Conf_Id>
2542

> <Probability>
0.66

> <Sum Probability>
60.31

> <Delta G>
1.251

> <G>
59.399

> <E>
21.978

> <-TS>
37.421

> <U+W>
-2.166

> <U>
49.092

> <W>
-51.258

> <W(PB)>
-53.768

> <W(SA)>
2.510

> <Valence>
3.601

> <Coulomb>
44.542

> <VdW>
0.948

> <VdW6>
-8.237

> <VdW12>
9.185

> <Bond>
0.219

> <Angle>
0.852

> <Pdih>
2.529

> <Idih>
0.000

> <Tether>
0.000

$$$$
VeraChem MOL file


 29 28  0  0  0  0  0  0  0  0999 V2000     
   21.1934   18.9170   20.1637 C   0  0  0  0  0  0  0  0  0  0  0  0
   22.0451   18.9791   20.8537 H   0  0  0  0  0  0  0  0  0  0  0  0
   21.4714   18.2405   19.3451 H   0  0  0  0  0  0  0  0  0  0  0  0
   21.0268   19.9140   19.7354 H   0  0  0  0  0  0  0  0  0  0  0  0
   19.9295   18.4061   20.8872 C   0  0  0  0  0  0  0  0  0  0  0  0
   20.1155   17.3951   21.2761 H   0  0  0  0  0  0  0  0  0  0  0  0
   19.1054   18.3217   20.1651 H   0  0  0  0  0  0  0  0  0  0  0  0
   19.5159   19.3416   22.0446 C   0  0  0  0  0  0  0  0  0  0  0  0
   20.3504   19.4246   22.7531 H   0  0  0  0  0  0  0  0  0  0  0  0
   19.3282   20.3502   21.6515 H   0  0  0  0  0  0  0  0  0  0  0  0
   18.2522   18.8276   22.7749 C   0  0  0  0  0  0  0  0  0  0  0  0
   18.4491   17.8374   23.2066 H   0  0  0  0  0  0  0  0  0  0  0  0
   17.4495   18.6807   22.0392 H   0  0  0  0  0  0  0  0  0  0  0  0
   17.7345   19.7919   23.8734 C   0  0  0  0  0  0  0  0  0  0  0  0
   17.4256   20.7350   23.4017 H   0  0  0  0  0  0  0  0  0  0  0  0
   16.8236   19.3655   24.3156 H   0  0  0  0  0  0  0  0  0  0  0  0
   18.7421   20.1101   25.0083 C   0  0  0  0  0  0  0  0  0  0  0  0
   18.2598   20.7994   25.7153 H   0  0  0  0  0  0  0  0  0  0  0  0
   19.6067   20.6522   24.6026 H   0  0  0  0  0  0  0  0  0  0  0  0
   19.2238   18.8583   25.7779 C   0  0  0  0  0  0  0  0  0  0  0  0
   18.3566   18.2960   26.1489 H   0  0  0  0  0  0  0  0  0  0  0  0
   19.7788   18.1924   25.1049 H   0  0  0  0  0  0  0  0  0  0  0  0
   20.1293   19.2424   26.9611 C   0  0  0  0  0  0  0  0  0  0  0  0
   19.5807   19.8915   27.6490 H   0  0  0  0  0  0  0  0  0  0  0  0
   21.0023   19.7890   26.5943 H   0  0  0  0  0  0  0  0  0  0  0  0
   20.6232   18.0430   27.7438 N   0  3  0  0  0  0  0  0  0  0  0  0
   19.8485   17.5000   28.1393 H   0  0  0  0  0  0  0  0  0  0  0  0
   21.2240   18.3211   28.5277 H   0  0  0  0  0  0  0  0  0  0  0  0
   21.1720   17.4046   27.1584 H   0  0  0  0  0  0  0  0  0  0  0  0
  1  2  1  0  0  0  0
  1  3  1  0  0  0  0
  1  4  1  0  0  0  0
  1  5  1  0  0  0  0
  5  6  1  0  0  0  0
  5  7  1  0  0  0  0
  5  8  1  0  0  0  0
  8  9  1  0  0  0  0
  8 10  1  0  0  0  0
  8 11  1  0  0  0  0
 11 12  1  0  0  0  0
 11 13  1  0  0  0  0
 11 14  1  0  0  0  0
 14 15  1  0  0  0  0
 14 16  1  0  0  0  0
 14 17  1  0  0  0  0
 17 18  1  0  0  0  0
 17 19  1  0  0  0  0
 17 20  1  0  0  0  0
 20 21  1  0  0  0  0
 20 22  1  0  0  0  0
 20 23  1  0  0  0  0
 23 24  1  0  0  0  0
 23 25  1  0  0  0  0
 23 26  1  0  0  0  0
 26 27  1  0  0  0  0
 26 28  1  0  0  0  0
 26 29  1  0  0  0  0
M  END
> <VM2 Rank>
45

> <Conf_Id>
2000

> <Probability>
0.66

> <Sum Probability>
60.97

> <Delta G>
1.253

> <G>
59.401

> <E>
21.765

> <-TS>
37.635

> <U+W>
-2.379

> <U>
49.534

> <W>
-51.913

> <W(PB)>
-54.419

> <W(SA)>
2.506

> <Valence>
3.571

> <Coulomb>
45.223

> <VdW>
0.739

> <VdW6>
-8.664

> <VdW12>
9.403

> <Bond>
0.229

> <Angle>
1.076

> <Pdih>
2.266

> <Idih>
0.000

> <Tether>
0.000

$$$$
VeraChem MOL file


 29 28  0  0  0  0  0  0  0  0999 V2000     
   20.0684   18.4871   19.2593 C   0  0  0  0  0  0  0  0  0  0  0  0
   20.0432   17.4110   19.4754 H   0  0  0  0  0  0  0  0  0  0  0  0
   19.6814   18.6359   18.2429 H   0  0  0  0  0  0  0  0  0  0  0  0
   21.1164   18.8141   19.2723 H   0  0  0  0  0  0  0  0  0  0  0  0
   19.2279   19.2784   20.2837 C   0  0  0  0  0  0  0  0  0  0  0  0
   18.1798   18.9531   20.2246 H   0  0  0  0  0  0  0  0  0  0  0  0
   19.2441   20.3455   20.0212 H   0  0  0  0  0  0  0  0  0  0  0  0
   19.7526   19.0868   21.7239 C   0  0  0  0  0  0  0  0  0  0  0  0
   19.7400   18.0169   21.9689 H   0  0  0  0  0  0  0  0  0  0  0  0
   20.7996   19.4155   21.7784 H   0  0  0  0  0  0  0  0  0  0  0  0
   18.9076   19.8768   22.7522 C   0  0  0  0  0  0  0  0  0  0  0  0
   17.8718   19.5103   22.7413 H   0  0  0  0  0  0  0  0  0  0  0  0
   18.8648   20.9304   22.4435 H   0  0  0  0  0  0  0  0  0  0  0  0
   19.4652   19.8131   24.1954 C   0  0  0  0  0  0  0  0  0  0  0  0
   20.4998   20.1829   24.2058 H   0  0  0  0  0  0  0  0  0  0  0  0
   18.8834   20.5080   24.8152 H   0  0  0  0  0  0  0  0  0  0  0  0
   19.4103   18.3949   24.8183 C   0  0  0  0  0  0  0  0  0  0  0  0
   20.0166   17.7042   24.2183 H   0  0  0  0  0  0  0  0  0  0  0  0
   18.3798   18.0148   24.7859 H   0  0  0  0  0  0  0  0  0  0  0  0
   19.9298   18.3521   26.2747 C   0  0  0  0  0  0  0  0  0  0  0  0
   19.9610   17.3070   26.6103 H   0  0  0  0  0  0  0  0  0  0  0  0
   20.9624   18.7243   26.3093 H   0  0  0  0  0  0  0  0  0  0  0  0
   19.0528   19.1644   27.2459 C   0  0  0  0  0  0  0  0  0  0  0  0
   18.0246   18.7943   27.2104 H   0  0  0  0  0  0  0  0  0  0  0  0
   19.0508   20.2171   26.9522 H   0  0  0  0  0  0  0  0  0  0  0  0
   19.5293   19.0843   28.6817 N   0  3  0  0  0  0  0  0  0  0  0  0
   20.4841   19.4431   28.7877 H   0  0  0  0  0  0  0  0  0  0  0  0
   19.5285   18.1202   29.0311 H   0  0  0  0  0  0  0  0  0  0  0  0
   18.9326   19.6311   29.3123 H   0  0  0  0  0  0  0  0  0  0  0  0
  1  2  1  0  0  0  0
  1  3  1  0  0  0  0
  1  4  1  0  0  0  0
  1  5  1  0  0  0  0
  5  6  1  0  0  0  0
  5  7  1  0  0  0  0
  5  8  1  0  0  0  0
  8  9  1  0  0  0  0
  8 10  1  0  0  0  0
  8 11  1  0  0  0  0
 11 12  1  0  0  0  0
 11 13  1  0  0  0  0
 11 14  1  0  0  0  0
 14 15  1  0  0  0  0
 14 16  1  0  0  0  0
 14 17  1  0  0  0  0
 17 18  1  0  0  0  0
 17 19  1  0  0  0  0
 17 20  1  0  0  0  0
 20 21  1  0  0  0  0
 20 22  1  0  0  0  0
 20 23  1  0  0  0  0
 23 24  1  0  0  0  0
 23 25  1  0  0  0  0
 23 26  1  0  0  0  0
 26 27  1  0  0  0  0
 26 28  1  0  0  0  0
 26 29  1  0  0  0  0
M  END
> <VM2 Rank>
46

> <Conf_Id>
2190

> <Probability>
0.65

> <Sum Probability>
61.62

> <Delta G>
1.257

> <G>
59.405

> <E>
22.051

> <-TS>
37.354

> <U+W>
-2.094

> <U>
49.234

> <W>
-51.328

> <W(PB)>
-53.866

> <W(SA)>
2.538

> <Valence>
3.474

> <Coulomb>
44.816

> <VdW>
0.944

> <VdW6>
-8.147

> <VdW12>
9.091

> <Bond>
0.214

> <Angle>
0.815

> <Pdih>
2.445

> <Idih>
0.000

> <Tether>
0.000

$$$$
VeraChem MOL file


 29 28  0  0  0  0  0  0  0  0999 V2000     
   19.8694   17.7212   20.3109 C   0  0  0  0  0  0  0  0  0  0  0  0
   19.0114   17.7241   19.6261 H   0  0  0  0  0  0  0  0  0  0  0  0
   20.6668   17.1251   19.8486 H   0  0  0  0  0  0  0  0  0  0  0  0
   19.5702   17.2122   21.2356 H   0  0  0  0  0  0  0  0  0  0  0  0
   20.3612   19.1592   20.5905 C   0  0  0  0  0  0  0  0  0  0  0  0
   20.7595   19.5842   19.6587 H   0  0  0  0  0  0  0  0  0  0  0  0
   21.2052   19.1324   21.2927 H   0  0  0  0  0  0  0  0  0  0  0  0
   19.2494   20.0980   21.1245 C   0  0  0  0  0  0  0  0  0  0  0  0
   19.6725   21.1018   21.2673 H   0  0  0  0  0  0  0  0  0  0  0  0
   18.4751   20.2054   20.3525 H   0  0  0  0  0  0  0  0  0  0  0  0
   18.5749   19.6432   22.4445 C   0  0  0  0  0  0  0  0  0  0  0  0
   18.0507   18.6911   22.2884 H   0  0  0  0  0  0  0  0  0  0  0  0
   17.7989   20.3758   22.7055 H   0  0  0  0  0  0  0  0  0  0  0  0
   19.5611   19.5102   23.6295 C   0  0  0  0  0  0  0  0  0  0  0  0
   20.3010   18.7284   23.4131 H   0  0  0  0  0  0  0  0  0  0  0  0
   20.1154   20.4508   23.7526 H   0  0  0  0  0  0  0  0  0  0  0  0
   18.8309   19.1642   24.9467 C   0  0  0  0  0  0  0  0  0  0  0  0
   18.2729   18.2257   24.8216 H   0  0  0  0  0  0  0  0  0  0  0  0
   18.0922   19.9454   25.1743 H   0  0  0  0  0  0  0  0  0  0  0  0
   19.8134   19.0251   26.1301 C   0  0  0  0  0  0  0  0  0  0  0  0
   20.5501   18.2411   25.9092 H   0  0  0  0  0  0  0  0  0  0  0  0
   20.3698   19.9629   26.2611 H   0  0  0  0  0  0  0  0  0  0  0  0
   19.0762   18.6809   27.4361 C   0  0  0  0  0  0  0  0  0  0  0  0
   18.5341   17.7390   27.3158 H   0  0  0  0  0  0  0  0  0  0  0  0
   18.3530   19.4671   27.6690 H   0  0  0  0  0  0  0  0  0  0  0  0
   20.0075   18.5361   28.6222 N   0  3  0  0  0  0  0  0  0  0  0  0
   20.5290   19.3997   28.8059 H   0  0  0  0  0  0  0  0  0  0  0  0
   20.6976   17.7915   28.4773 H   0  0  0  0  0  0  0  0  0  0  0  0
   19.4965   18.3068   29.4819 H   0  0  0  0  0  0  0  0  0  0  0  0
  1  2  1  0  0  0  0
  1  3  1  0  0  0  0
  1  4  1  0  0  0  0
  1  5  1  0  0  0  0
  5  6  1  0  0  0  0
  5  7  1  0  0  0  0
  5  8  1  0  0  0  0
  8  9  1  0  0  0  0
  8 10  1  0  0  0  0
  8 11  1  0  0  0  0
 11 12  1  0  0  0  0
 11 13  1  0  0  0  0
 11 14  1  0  0  0  0
 14 15  1  0  0  0  0
 14 16  1  0  0  0  0
 14 17  1  0  0  0  0
 17 18  1  0  0  0  0
 17 19  1  0  0  0  0
 17 20  1  0  0  0  0
 20 21  1  0  0  0  0
 20 22  1  0  0  0  0
 20 23  1  0  0  0  0
 23 24  1  0  0  0  0
 23 25  1  0  0  0  0
 23 26  1  0  0  0  0
 26 27  1  0  0  0  0
 26 28  1  0  0  0  0
 26 29  1  0  0  0  0
M  END
> <VM2 Rank>
47

> <Conf_Id>
2290

> <Probability>
0.62

> <Sum Probability>
62.23

> <Delta G>
1.292

> <G>
59.440

> <E>
21.824

> <-TS>
37.616

> <U+W>
-2.320

> <U>
48.920

> <W>
-51.240

> <W(PB)>
-53.745

> <W(SA)>
2.505

> <Valence>
3.544

> <Coulomb>
44.554

> <VdW>
0.822

> <VdW6>
-8.501

> <VdW12>
9.324

> <Bond>
0.224

> <Angle>
1.044

> <Pdih>
2.276

> <Idih>
0.000

> <Tether>
0.000

$$$$
VeraChem MOL file


 29 28  0  0  0  0  0  0  0  0999 V2000     
   21.1533   19.4869   20.2400 C   0  0  0  0  0  0  0  0  0  0  0  0
   20.6612   19.8251   19.3187 H   0  0  0  0  0  0  0  0  0  0  0  0
   21.5673   20.3667   20.7495 H   0  0  0  0  0  0  0  0  0  0  0  0
   21.9907   18.8368   19.9554 H   0  0  0  0  0  0  0  0  0  0  0  0
   20.1638   18.7325   21.1530 C   0  0  0  0  0  0  0  0  0  0  0  0
   20.7005   18.3767   22.0426 H   0  0  0  0  0  0  0  0  0  0  0  0
   19.7892   17.8424   20.6286 H   0  0  0  0  0  0  0  0  0  0  0  0
   18.9759   19.6305   21.5712 C   0  0  0  0  0  0  0  0  0  0  0  0
   19.3462   20.4993   22.1313 H   0  0  0  0  0  0  0  0  0  0  0  0
   18.5003   20.0360   20.6676 H   0  0  0  0  0  0  0  0  0  0  0  0
   17.8954   18.8864   22.3980 C   0  0  0  0  0  0  0  0  0  0  0  0
   17.4499   18.0995   21.7740 H   0  0  0  0  0  0  0  0  0  0  0  0
   17.0801   19.5874   22.6239 H   0  0  0  0  0  0  0  0  0  0  0  0
   18.3915   18.2498   23.7221 C   0  0  0  0  0  0  0  0  0  0  0  0
   17.5390   17.7535   24.2061 H   0  0  0  0  0  0  0  0  0  0  0  0
   19.1192   17.4561   23.5073 H   0  0  0  0  0  0  0  0  0  0  0  0
   19.0058   19.2717   24.7084 C   0  0  0  0  0  0  0  0  0  0  0  0
   18.2908   20.0871   24.8856 H   0  0  0  0  0  0  0  0  0  0  0  0
   19.9041   19.7240   24.2677 H   0  0  0  0  0  0  0  0  0  0  0  0
   19.3819   18.6146   26.0545 C   0  0  0  0  0  0  0  0  0  0  0  0
   18.4885   18.1681   26.5112 H   0  0  0  0  0  0  0  0  0  0  0  0
   20.0972   17.7995   25.8807 H   0  0  0  0  0  0  0  0  0  0  0  0
   19.9968   19.6364   27.0268 C   0  0  0  0  0  0  0  0  0  0  0  0
   19.2817   20.4417   27.2154 H   0  0  0  0  0  0  0  0  0  0  0  0
   20.8965   20.0715   26.5835 H   0  0  0  0  0  0  0  0  0  0  0  0
   20.3796   19.0292   28.3609 N   0  3  0  0  0  0  0  0  0  0  0  0
   19.5697   18.6252   28.8430 H   0  0  0  0  0  0  0  0  0  0  0  0
   20.7870   19.7264   28.9939 H   0  0  0  0  0  0  0  0  0  0  0  0
   21.0725   18.2807   28.2551 H   0  0  0  0  0  0  0  0  0  0  0  0
  1  2  1  0  0  0  0
  1  3  1  0  0  0  0
  1  4  1  0  0  0  0
  1  5  1  0  0  0  0
  5  6  1  0  0  0  0
  5  7  1  0  0  0  0
  5  8  1  0  0  0  0
  8  9  1  0  0  0  0
  8 10  1  0  0  0  0
  8 11  1  0  0  0  0
 11 12  1  0  0  0  0
 11 13  1  0  0  0  0
 11 14  1  0  0  0  0
 14 15  1  0  0  0  0
 14 16  1  0  0  0  0
 14 17  1  0  0  0  0
 17 18  1  0  0  0  0
 17 19  1  0  0  0  0
 17 20  1  0  0  0  0
 20 21  1  0  0  0  0
 20 22  1  0  0  0  0
 20 23  1  0  0  0  0
 23 24  1  0  0  0  0
 23 25  1  0  0  0  0
 23 26  1  0  0  0  0
 26 27  1  0  0  0  0
 26 28  1  0  0  0  0
 26 29  1  0  0  0  0
M  END
> <VM2 Rank>
48

> <Conf_Id>
299

> <Probability>
0.61

> <Sum Probability>
62.85

> <Delta G>
1.292

> <G>
59.440

> <E>
21.807

> <-TS>
37.633

> <U+W>
-2.337

> <U>
49.175

> <W>
-51.513

> <W(PB)>
-54.032

> <W(SA)>
2.519

> <Valence>
3.575

> <Coulomb>
44.838

> <VdW>
0.762

> <VdW6>
-8.634

> <VdW12>
9.396

> <Bond>
0.229

> <Angle>
1.080

> <Pdih>
2.266

> <Idih>
0.000

> <Tether>
0.000

$$$$
VeraChem MOL file


 29 28  0  0  0  0  0  0  0  0999 V2000     
   20.5584   17.8186   20.2026 C   0  0  0  0  0  0  0  0  0  0  0  0
   20.3155   16.8558   20.6709 H   0  0  0  0  0  0  0  0  0  0  0  0
   19.9765   17.9047   19.2757 H   0  0  0  0  0  0  0  0  0  0  0  0
   21.6222   17.8032   19.9323 H   0  0  0  0  0  0  0  0  0  0  0  0
   20.2563   18.9916   21.1588 C   0  0  0  0  0  0  0  0  0  0  0  0
   20.5365   19.9379   20.6755 H   0  0  0  0  0  0  0  0  0  0  0  0
   20.8844   18.8922   22.0541 H   0  0  0  0  0  0  0  0  0  0  0  0
   18.7624   19.0316   21.5578 C   0  0  0  0  0  0  0  0  0  0  0  0
   18.1504   19.0546   20.6457 H   0  0  0  0  0  0  0  0  0  0  0  0
   18.4918   18.1031   22.0777 H   0  0  0  0  0  0  0  0  0  0  0  0
   18.3844   20.2577   22.4286 C   0  0  0  0  0  0  0  0  0  0  0  0
   17.3065   20.2221   22.6381 H   0  0  0  0  0  0  0  0  0  0  0  0
   18.5459   21.1730   21.8427 H   0  0  0  0  0  0  0  0  0  0  0  0
   19.1525   20.3841   23.7697 C   0  0  0  0  0  0  0  0  0  0  0  0
   20.2211   20.5461   23.5764 H   0  0  0  0  0  0  0  0  0  0  0  0
   18.7995   21.2880   24.2850 H   0  0  0  0  0  0  0  0  0  0  0  0
   18.9678   19.1661   24.7062 C   0  0  0  0  0  0  0  0  0  0  0  0
   19.3833   18.2653   24.2352 H   0  0  0  0  0  0  0  0  0  0  0  0
   17.8958   18.9808   24.8612 H   0  0  0  0  0  0  0  0  0  0  0  0
   19.6560   19.3830   26.0716 C   0  0  0  0  0  0  0  0  0  0  0  0
   20.7279   19.5677   25.9200 H   0  0  0  0  0  0  0  0  0  0  0  0
   19.2404   20.2755   26.5583 H   0  0  0  0  0  0  0  0  0  0  0  0
   19.4720   18.1653   26.9941 C   0  0  0  0  0  0  0  0  0  0  0  0
   19.8995   17.2771   26.5211 H   0  0  0  0  0  0  0  0  0  0  0  0
   18.4062   17.9875   27.1610 H   0  0  0  0  0  0  0  0  0  0  0  0
   20.1341   18.3400   28.3454 N   0  3  0  0  0  0  0  0  0  0  0  0
   21.1456   18.4847   28.2593 H   0  0  0  0  0  0  0  0  0  0  0  0
   19.9997   17.5179   28.9446 H   0  0  0  0  0  0  0  0  0  0  0  0
   19.7560   19.1457   28.8546 H   0  0  0  0  0  0  0  0  0  0  0  0
  1  2  1  0  0  0  0
  1  3  1  0  0  0  0
  1  4  1  0  0  0  0
  1  5  1  0  0  0  0
  5  6  1  0  0  0  0
  5  7  1  0  0  0  0
  5  8  1  0  0  0  0
  8  9  1  0  0  0  0
  8 10  1  0  0  0  0
  8 11  1  0  0  0  0
 11 12  1  0  0  0  0
 11 13  1  0  0  0  0
 11 14  1  0  0  0  0
 14 15  1  0  0  0  0
 14 16  1  0  0  0  0
 14 17  1  0  0  0  0
 17 18  1  0  0  0  0
 17 19  1  0  0  0  0
 17 20  1  0  0  0  0
 20 21  1  0  0  0  0
 20 22  1  0  0  0  0
 20 23  1  0  0  0  0
 23 24  1  0  0  0  0
 23 25  1  0  0  0  0
 23 26  1  0  0  0  0
 26 27  1  0  0  0  0
 26 28  1  0  0  0  0
 26 29  1  0  0  0  0
M  END
> <VM2 Rank>
49

> <Conf_Id>
1581

> <Probability>
0.61

> <Sum Probability>
63.46

> <Delta G>
1.292

> <G>
59.440

> <E>
21.808

> <-TS>
37.633

> <U+W>
-2.337

> <U>
49.175

> <W>
-51.512

> <W(PB)>
-54.018

> <W(SA)>
2.506

> <Valence>
3.575

> <Coulomb>
44.838

> <VdW>
0.762

> <VdW6>
-8.633

> <VdW12>
9.396

> <Bond>
0.229

> <Angle>
1.080

> <Pdih>
2.266

> <Idih>
0.000

> <Tether>
0.000

$$$$
VeraChem MOL file


 29 28  0  0  0  0  0  0  0  0999 V2000     
   20.4165   20.2247   20.1011 C   0  0  0  0  0  0  0  0  0  0  0  0
   21.1931   20.4095   19.3477 H   0  0  0  0  0  0  0  0  0  0  0  0
   19.4634   20.5908   19.6978 H   0  0  0  0  0  0  0  0  0  0  0  0
   20.6676   20.8215   20.9867 H   0  0  0  0  0  0  0  0  0  0  0  0
   20.3357   18.7181   20.4362 C   0  0  0  0  0  0  0  0  0  0  0  0
   21.2904   18.3834   20.8655 H   0  0  0  0  0  0  0  0  0  0  0  0
   20.2041   18.1542   19.5021 H   0  0  0  0  0  0  0  0  0  0  0  0
   19.1762   18.3633   21.3979 C   0  0  0  0  0  0  0  0  0  0  0  0
   18.2221   18.6789   20.9537 H   0  0  0  0  0  0  0  0  0  0  0  0
   19.1255   17.2699   21.4948 H   0  0  0  0  0  0  0  0  0  0  0  0
   19.3294   18.9881   22.8053 C   0  0  0  0  0  0  0  0  0  0  0  0
   19.3046   20.0832   22.7321 H   0  0  0  0  0  0  0  0  0  0  0  0
   20.3111   18.7150   23.2134 H   0  0  0  0  0  0  0  0  0  0  0  0
   18.2088   18.5186   23.7639 C   0  0  0  0  0  0  0  0  0  0  0  0
   17.2336   18.7256   23.3017 H   0  0  0  0  0  0  0  0  0  0  0  0
   18.2636   17.4288   23.8933 H   0  0  0  0  0  0  0  0  0  0  0  0
   18.2503   19.2078   25.1498 C   0  0  0  0  0  0  0  0  0  0  0  0
   17.3605   18.9020   25.7177 H   0  0  0  0  0  0  0  0  0  0  0  0
   18.1752   20.2967   25.0222 H   0  0  0  0  0  0  0  0  0  0  0  0
   19.5135   18.8655   25.9740 C   0  0  0  0  0  0  0  0  0  0  0  0
   19.6161   17.7754   26.0580 H   0  0  0  0  0  0  0  0  0  0  0  0
   20.4106   19.2373   25.4632 H   0  0  0  0  0  0  0  0  0  0  0  0
   19.4473   19.4827   27.3819 C   0  0  0  0  0  0  0  0  0  0  0  0
   18.5668   19.1047   27.9086 H   0  0  0  0  0  0  0  0  0  0  0  0
   19.3614   20.5698   27.3037 H   0  0  0  0  0  0  0  0  0  0  0  0
   20.6664   19.1693   28.2249 N   0  3  0  0  0  0  0  0  0  0  0  0
   20.7887   18.1601   28.3591 H   0  0  0  0  0  0  0  0  0  0  0  0
   20.6018   19.5893   29.1588 H   0  0  0  0  0  0  0  0  0  0  0  0
   21.5282   19.5239   27.7969 H   0  0  0  0  0  0  0  0  0  0  0  0
  1  2  1  0  0  0  0
  1  3  1  0  0  0  0
  1  4  1  0  0  0  0
  1  5  1  0  0  0  0
  5  6  1  0  0  0  0
  5  7  1  0  0  0  0
  5  8  1  0  0  0  0
  8  9  1  0  0  0  0
  8 10  1  0  0  0  0
  8 11  1  0  0  0  0
 11 12  1  0  0  0  0
 11 13  1  0  0  0  0
 11 14  1  0  0  0  0
 14 15  1  0  0  0  0
 14 16  1  0  0  0  0
 14 17  1  0  0  0  0
 17 18  1  0  0  0  0
 17 19  1  0  0  0  0
 17 20  1  0  0  0  0
 20 21  1  0  0  0  0
 20 22  1  0  0  0  0
 20 23  1  0  0  0  0
 23 24  1  0  0  0  0
 23 25  1  0  0  0  0
 23 26  1  0  0  0  0
 26 27  1  0  0  0  0
 26 28  1  0  0  0  0
 26 29  1  0  0  0  0
M  END
> <VM2 Rank>
50

> <Conf_Id>
2631

> <Probability>
0.60

> <Sum Probability>
64.06

> <Delta G>
1.309

> <G>
59.457

> <E>
22.057

> <-TS>
37.400

> <U+W>
-2.087

> <U>
49.389

> <W>
-51.477

> <W(PB)>
-53.993

> <W(SA)>
2.516

> <Valence>
3.628

> <Coulomb>
44.800

> <VdW>
0.962

> <VdW6>
-8.223

> <VdW12>
9.185

> <Bond>
0.219

> <Angle>
0.899

> <Pdih>
2.510

> <Idih>
0.000

> <Tether>
0.000

$$$$
VeraChem MOL file


 29 28  0  0  0  0  0  0  0  0999 V2000     
   19.5196   17.7199   20.0444 C   0  0  0  0  0  0  0  0  0  0  0  0
   19.3222   17.0645   20.9017 H   0  0  0  0  0  0  0  0  0  0  0  0
   18.5566   18.0582   19.6404 H   0  0  0  0  0  0  0  0  0  0  0  0
   20.0134   17.1146   19.2733 H   0  0  0  0  0  0  0  0  0  0  0  0
   20.4083   18.9206   20.4406 C   0  0  0  0  0  0  0  0  0  0  0  0
   20.6779   19.4767   19.5319 H   0  0  0  0  0  0  0  0  0  0  0  0
   21.3523   18.5561   20.8694 H   0  0  0  0  0  0  0  0  0  0  0  0
   19.7236   19.8918   21.4322 C   0  0  0  0  0  0  0  0  0  0  0  0
   20.3768   20.7640   21.5734 H   0  0  0  0  0  0  0  0  0  0  0  0
   18.7924   20.2713   20.9894 H   0  0  0  0  0  0  0  0  0  0  0  0
   19.4253   19.2561   22.8112 C   0  0  0  0  0  0  0  0  0  0  0  0
   20.3514   18.8279   23.2160 H   0  0  0  0  0  0  0  0  0  0  0  0
   18.7125   18.4294   22.6946 H   0  0  0  0  0  0  0  0  0  0  0  0
   18.8433   20.2913   23.8036 C   0  0  0  0  0  0  0  0  0  0  0  0
   19.5749   21.0928   23.9755 H   0  0  0  0  0  0  0  0  0  0  0  0
   17.9647   20.7683   23.3475 H   0  0  0  0  0  0  0  0  0  0  0  0
   18.4185   19.6776   25.1603 C   0  0  0  0  0  0  0  0  0  0  0  0
   17.6720   18.8894   24.9905 H   0  0  0  0  0  0  0  0  0  0  0  0
   17.9162   20.4554   25.7524 H   0  0  0  0  0  0  0  0  0  0  0  0
   19.6005   19.1085   25.9795 C   0  0  0  0  0  0  0  0  0  0  0  0
   20.0657   18.2727   25.4418 H   0  0  0  0  0  0  0  0  0  0  0  0
   20.3697   19.8820   26.1054 H   0  0  0  0  0  0  0  0  0  0  0  0
   19.1378   18.6180   27.3626 C   0  0  0  0  0  0  0  0  0  0  0  0
   18.3835   17.8357   27.2425 H   0  0  0  0  0  0  0  0  0  0  0  0
   18.6888   19.4472   27.9161 H   0  0  0  0  0  0  0  0  0  0  0  0
   20.2671   18.0541   28.2004 N   0  3  0  0  0  0  0  0  0  0  0  0
   20.7151   17.2510   27.7468 H   0  0  0  0  0  0  0  0  0  0  0  0
   19.9375   17.7338   29.1177 H   0  0  0  0  0  0  0  0  0  0  0  0
   20.9994   18.7510   28.3728 H   0  0  0  0  0  0  0  0  0  0  0  0
  1  2  1  0  0  0  0
  1  3  1  0  0  0  0
  1  4  1  0  0  0  0
  1  5  1  0  0  0  0
  5  6  1  0  0  0  0
  5  7  1  0  0  0  0
  5  8  1  0  0  0  0
  8  9  1  0  0  0  0
  8 10  1  0  0  0  0
  8 11  1  0  0  0  0
 11 12  1  0  0  0  0
 11 13  1  0  0  0  0
 11 14  1  0  0  0  0
 14 15  1  0  0  0  0
 14 16  1  0  0  0  0
 14 17  1  0  0  0  0
 17 18  1  0  0  0  0
 17 19  1  0  0  0  0
 17 20  1  0  0  0  0
 20 21  1  0  0  0  0
 20 22  1  0  0  0  0
 20 23  1  0  0  0  0
 23 24  1  0  0  0  0
 23 25  1  0  0  0  0
 23 26  1  0  0  0  0
 26 27  1  0  0  0  0
 26 28  1  0  0  0  0
 26 29  1  0  0  0  0
M  END
> <VM2 Rank>
51

> <Conf_Id>
1492

> <Probability>
0.59

> <Sum Probability>
64.65

> <Delta G>
1.319

> <G>
59.467

> <E>
22.068

> <-TS>
37.400

> <U+W>
-2.077

> <U>
49.389

> <W>
-51.466

> <W(PB)>
-54.002

> <W(SA)>
2.536

> <Valence>
3.628

> <Coulomb>
44.800

> <VdW>
0.961

> <VdW6>
-8.223

> <VdW12>
9.184

> <Bond>
0.219

> <Angle>
0.899

> <Pdih>
2.510

> <Idih>
0.000

> <Tether>
0.000

$$$$
VeraChem MOL file


 29 28  0  0  0  0  0  0  0  0999 V2000     
   20.6792   19.9940   20.3615 C   0  0  0  0  0  0  0  0  0  0  0  0
   20.0223   20.5611   19.6893 H   0  0  0  0  0  0  0  0  0  0  0  0
   20.7561   20.5405   21.3097 H   0  0  0  0  0  0  0  0  0  0  0  0
   21.6803   19.9696   19.9119 H   0  0  0  0  0  0  0  0  0  0  0  0
   20.1474   18.5592   20.5771 C   0  0  0  0  0  0  0  0  0  0  0  0
   20.8084   18.0188   21.2678 H   0  0  0  0  0  0  0  0  0  0  0  0
   20.2006   18.0154   19.6237 H   0  0  0  0  0  0  0  0  0  0  0  0
   18.6851   18.5144   21.0891 C   0  0  0  0  0  0  0  0  0  0  0  0
   18.0282   18.9513   20.3245 H   0  0  0  0  0  0  0  0  0  0  0  0
   18.3764   17.4644   21.1861 H   0  0  0  0  0  0  0  0  0  0  0  0
   18.4315   19.2404   22.4355 C   0  0  0  0  0  0  0  0  0  0  0  0
   17.3634   19.1536   22.6782 H   0  0  0  0  0  0  0  0  0  0  0  0
   18.6293   20.3147   22.3246 H   0  0  0  0  0  0  0  0  0  0  0  0
   19.2628   18.6730   23.6108 C   0  0  0  0  0  0  0  0  0  0  0  0
   19.0961   17.5898   23.6887 H   0  0  0  0  0  0  0  0  0  0  0  0
   20.3333   18.8190   23.4152 H   0  0  0  0  0  0  0  0  0  0  0  0
   18.8971   19.3501   24.9509 C   0  0  0  0  0  0  0  0  0  0  0  0
   17.8278   19.2033   25.1577 H   0  0  0  0  0  0  0  0  0  0  0  0
   19.0597   20.4340   24.8710 H   0  0  0  0  0  0  0  0  0  0  0  0
   19.7296   18.7898   26.1249 C   0  0  0  0  0  0  0  0  0  0  0  0
   19.5663   17.7072   26.2106 H   0  0  0  0  0  0  0  0  0  0  0  0
   20.7990   18.9399   25.9248 H   0  0  0  0  0  0  0  0  0  0  0  0
   19.3574   19.4703   27.4538 C   0  0  0  0  0  0  0  0  0  0  0  0
   18.2969   19.3094   27.6655 H   0  0  0  0  0  0  0  0  0  0  0  0
   19.5342   20.5466   27.3786 H   0  0  0  0  0  0  0  0  0  0  0  0
   20.1539   18.9468   28.6314 N   0  3  0  0  0  0  0  0  0  0  0  0
   19.8906   19.4129   29.5067 H   0  0  0  0  0  0  0  0  0  0  0  0
   21.1611   19.0928   28.5064 H   0  0  0  0  0  0  0  0  0  0  0  0
   20.0097   17.9415   28.7733 H   0  0  0  0  0  0  0  0  0  0  0  0
  1  2  1  0  0  0  0
  1  3  1  0  0  0  0
  1  4  1  0  0  0  0
  1  5  1  0  0  0  0
  5  6  1  0  0  0  0
  5  7  1  0  0  0  0
  5  8  1  0  0  0  0
  8  9  1  0  0  0  0
  8 10  1  0  0  0  0
  8 11  1  0  0  0  0
 11 12  1  0  0  0  0
 11 13  1  0  0  0  0
 11 14  1  0  0  0  0
 14 15  1  0  0  0  0
 14 16  1  0  0  0  0
 14 17  1  0  0  0  0
 17 18  1  0  0  0  0
 17 19  1  0  0  0  0
 17 20  1  0  0  0  0
 20 21  1  0  0  0  0
 20 22  1  0  0  0  0
 20 23  1  0  0  0  0
 23 24  1  0  0  0  0
 23 25  1  0  0  0  0
 23 26  1  0  0  0  0
 26 27  1  0  0  0  0
 26 28  1  0  0  0  0
 26 29  1  0  0  0  0
M  END
> <VM2 Rank>
52

> <Conf_Id>
1948

> <Probability>
0.57

> <Sum Probability>
65.22

> <Delta G>
1.338

> <G>
59.486

> <E>
21.871

> <-TS>
37.616

> <U+W>
-2.274

> <U>
48.920

> <W>
-51.193

> <W(PB)>
-53.702

> <W(SA)>
2.509

> <Valence>
3.544

> <Coulomb>
44.554

> <VdW>
0.822

> <VdW6>
-8.501

> <VdW12>
9.324

> <Bond>
0.224

> <Angle>
1.044

> <Pdih>
2.276

> <Idih>
0.000

> <Tether>
0.000

$$$$
VeraChem MOL file


 29 28  0  0  0  0  0  0  0  0999 V2000     
   19.8644   19.0621   19.3429 C   0  0  0  0  0  0  0  0  0  0  0  0
   20.4424   19.9673   19.5659 H   0  0  0  0  0  0  0  0  0  0  0  0
   20.5513   18.2058   19.3430 H   0  0  0  0  0  0  0  0  0  0  0  0
   19.4630   19.1700   18.3269 H   0  0  0  0  0  0  0  0  0  0  0  0
   18.7172   18.8545   20.3576 C   0  0  0  0  0  0  0  0  0  0  0  0
   18.0945   18.0150   20.0182 H   0  0  0  0  0  0  0  0  0  0  0  0
   18.0642   19.7384   20.3642 H   0  0  0  0  0  0  0  0  0  0  0  0
   19.2094   18.5561   21.7946 C   0  0  0  0  0  0  0  0  0  0  0  0
   18.3356   18.2901   22.4028 H   0  0  0  0  0  0  0  0  0  0  0  0
   19.8606   17.6714   21.7827 H   0  0  0  0  0  0  0  0  0  0  0  0
   19.9551   19.7462   22.4505 C   0  0  0  0  0  0  0  0  0  0  0  0
   19.3028   20.6301   22.4656 H   0  0  0  0  0  0  0  0  0  0  0  0
   20.8246   20.0143   21.8368 H   0  0  0  0  0  0  0  0  0  0  0  0
   20.4575   19.4476   23.8846 C   0  0  0  0  0  0  0  0  0  0  0  0
   21.1077   18.5619   23.8695 H   0  0  0  0  0  0  0  0  0  0  0  0
   21.0873   20.2864   24.2121 H   0  0  0  0  0  0  0  0  0  0  0  0
   19.3188   19.2440   24.9129 C   0  0  0  0  0  0  0  0  0  0  0  0
   18.7260   18.3586   24.6483 H   0  0  0  0  0  0  0  0  0  0  0  0
   18.6377   20.1058   24.8829 H   0  0  0  0  0  0  0  0  0  0  0  0
   19.8662   19.0712   26.3468 C   0  0  0  0  0  0  0  0  0  0  0  0
   20.5471   18.2102   26.3812 H   0  0  0  0  0  0  0  0  0  0  0  0
   20.4512   19.9567   26.6292 H   0  0  0  0  0  0  0  0  0  0  0  0
   18.7288   18.8651   27.3624 C   0  0  0  0  0  0  0  0  0  0  0  0
   18.1533   17.9746   27.0952 H   0  0  0  0  0  0  0  0  0  0  0  0
   18.0572   19.7277   27.3433 H   0  0  0  0  0  0  0  0  0  0  0  0
   19.2265   18.6913   28.7827 N   0  3  0  0  0  0  0  0  0  0  0  0
   19.7546   19.5091   29.1050 H   0  0  0  0  0  0  0  0  0  0  0  0
   19.8440   17.8778   28.8741 H   0  0  0  0  0  0  0  0  0  0  0  0
   18.4533   18.5554   29.4433 H   0  0  0  0  0  0  0  0  0  0  0  0
  1  2  1  0  0  0  0
  1  3  1  0  0  0  0
  1  4  1  0  0  0  0
  1  5  1  0  0  0  0
  5  6  1  0  0  0  0
  5  7  1  0  0  0  0
  5  8  1  0  0  0  0
  8  9  1  0  0  0  0
  8 10  1  0  0  0  0
  8 11  1  0  0  0  0
 11 12  1  0  0  0  0
 11 13  1  0  0  0  0
 11 14  1  0  0  0  0
 14 15  1  0  0  0  0
 14 16  1  0  0  0  0
 14 17  1  0  0  0  0
 17 18  1  0  0  0  0
 17 19  1  0  0  0  0
 17 20  1  0  0  0  0
 20 21  1  0  0  0  0
 20 22  1  0  0  0  0
 20 23  1  0  0  0  0
 23 24  1  0  0  0  0
 23 25  1  0  0  0  0
 23 26  1  0  0  0  0
 26 27  1  0  0  0  0
 26 28  1  0  0  0  0
 26 29  1  0  0  0  0
M  END
> <VM2 Rank>
53

> <Conf_Id>
1341

> <Probability>
0.55

> <Sum Probability>
65.77

> <Delta G>
1.355

> <G>
59.503

> <E>
22.166

> <-TS>
37.336

> <U+W>
-1.978

> <U>
49.254

> <W>
-51.232

> <W(PB)>
-53.763

> <W(SA)>
2.532

> <Valence>
3.706

> <Coulomb>
44.522

> <VdW>
1.026

> <VdW6>
-8.144

> <VdW12>
9.170

> <Bond>
0.228

> <Angle>
0.952

> <Pdih>
2.525

> <Idih>
0.000

> <Tether>
0.000

$$$$
VeraChem MOL file


 29 28  0  0  0  0  0  0  0  0999 V2000     
   21.1861   19.6935   20.5006 C   0  0  0  0  0  0  0  0  0  0  0  0
   21.6081   20.2892   19.6808 H   0  0  0  0  0  0  0  0  0  0  0  0
   21.3929   20.2275   21.4362 H   0  0  0  0  0  0  0  0  0  0  0  0
   21.7182   18.7337   20.5266 H   0  0  0  0  0  0  0  0  0  0  0  0
   19.6696   19.4825   20.2903 C   0  0  0  0  0  0  0  0  0  0  0  0
   19.5068   19.0587   19.2894 H   0  0  0  0  0  0  0  0  0  0  0  0
   19.1563   20.4542   20.3000 H   0  0  0  0  0  0  0  0  0  0  0  0
   19.0278   18.5411   21.3379 C   0  0  0  0  0  0  0  0  0  0  0  0
   17.9837   18.3585   21.0482 H   0  0  0  0  0  0  0  0  0  0  0  0
   19.5313   17.5648   21.3112 H   0  0  0  0  0  0  0  0  0  0  0  0
   19.0619   19.1064   22.7781 C   0  0  0  0  0  0  0  0  0  0  0  0
   18.6001   20.1031   22.7913 H   0  0  0  0  0  0  0  0  0  0  0  0
   20.1040   19.2306   23.0965 H   0  0  0  0  0  0  0  0  0  0  0  0
   18.3223   18.1804   23.7735 C   0  0  0  0  0  0  0  0  0  0  0  0
   17.3012   18.0046   23.4078 H   0  0  0  0  0  0  0  0  0  0  0  0
   18.8136   17.1980   23.8006 H   0  0  0  0  0  0  0  0  0  0  0  0
   18.2353   18.7567   25.2082 C   0  0  0  0  0  0  0  0  0  0  0  0
   17.5984   18.0945   25.8112 H   0  0  0  0  0  0  0  0  0  0  0  0
   17.7295   19.7319   25.1834 H   0  0  0  0  0  0  0  0  0  0  0  0
   19.6097   18.8996   25.9031 C   0  0  0  0  0  0  0  0  0  0  0  0
   20.1371   17.9367   25.8812 H   0  0  0  0  0  0  0  0  0  0  0  0
   20.2332   19.6235   25.3635 H   0  0  0  0  0  0  0  0  0  0  0  0
   19.4534   19.3636   27.3618 C   0  0  0  0  0  0  0  0  0  0  0  0
   18.8490   18.6401   27.9156 H   0  0  0  0  0  0  0  0  0  0  0  0
   18.9432   20.3303   27.3880 H   0  0  0  0  0  0  0  0  0  0  0  0
   20.7779   19.5143   28.0816 N   0  3  0  0  0  0  0  0  0  0  0  0
   21.2968   18.6304   28.1153 H   0  0  0  0  0  0  0  0  0  0  0  0
   20.6511   19.8235   29.0517 H   0  0  0  0  0  0  0  0  0  0  0  0
   21.3845   20.2036   27.6252 H   0  0  0  0  0  0  0  0  0  0  0  0
  1  2  1  0  0  0  0
  1  3  1  0  0  0  0
  1  4  1  0  0  0  0
  1  5  1  0  0  0  0
  5  6  1  0  0  0  0
  5  7  1  0  0  0  0
  5  8  1  0  0  0  0
  8  9  1  0  0  0  0
  8 10  1  0  0  0  0
  8 11  1  0  0  0  0
 11 12  1  0  0  0  0
 11 13  1  0  0  0  0
 11 14  1  0  0  0  0
 14 15  1  0  0  0  0
 14 16  1  0  0  0  0
 14 17  1  0  0  0  0
 17 18  1  0  0  0  0
 17 19  1  0  0  0  0
 17 20  1  0  0  0  0
 20 21  1  0  0  0  0
 20 22  1  0  0  0  0
 20 23  1  0  0  0  0
 23 24  1  0  0  0  0
 23 25  1  0  0  0  0
 23 26  1  0  0  0  0
 26 27  1  0  0  0  0
 26 28  1  0  0  0  0
 26 29  1  0  0  0  0
M  END
> <VM2 Rank>
54

> <Conf_Id>
1835

> <Probability>
0.55

> <Sum Probability>
66.32

> <Delta G>
1.356

> <G>
59.504

> <E>
22.112

> <-TS>
37.393

> <U+W>
-2.033

> <U>
49.480

> <W>
-51.513

> <W(PB)>
-54.058

> <W(SA)>
2.546

> <Valence>
3.628

> <Coulomb>
44.888

> <VdW>
0.963

> <VdW6>
-8.237

> <VdW12>
9.201

> <Bond>
0.221

> <Angle>
0.900

> <Pdih>
2.508

> <Idih>
0.000

> <Tether>
0.000

$$$$
VeraChem MOL file


 29 28  0  0  0  0  0  0  0  0999 V2000     
   20.2514   18.5897   19.3623 C   0  0  0  0  0  0  0  0  0  0  0  0
   20.8854   19.4246   19.0365 H   0  0  0  0  0  0  0  0  0  0  0  0
   20.7048   17.6596   18.9958 H   0  0  0  0  0  0  0  0  0  0  0  0
   19.2698   18.6982   18.8826 H   0  0  0  0  0  0  0  0  0  0  0  0
   20.1169   18.5615   20.8995 C   0  0  0  0  0  0  0  0  0  0  0  0
   21.1097   18.4226   21.3495 H   0  0  0  0  0  0  0  0  0  0  0  0
   19.5114   17.6921   21.1883 H   0  0  0  0  0  0  0  0  0  0  0  0
   19.4758   19.8616   21.4394 C   0  0  0  0  0  0  0  0  0  0  0  0
   20.0536   20.7226   21.0757 H   0  0  0  0  0  0  0  0  0  0  0  0
   18.4634   19.9741   21.0277 H   0  0  0  0  0  0  0  0  0  0  0  0
   19.4182   19.9266   22.9853 C   0  0  0  0  0  0  0  0  0  0  0  0
   19.0522   20.9202   23.2784 H   0  0  0  0  0  0  0  0  0  0  0  0
   20.4365   19.8397   23.3865 H   0  0  0  0  0  0  0  0  0  0  0  0
   18.5031   18.8451   23.6132 C   0  0  0  0  0  0  0  0  0  0  0  0
   17.5279   18.8634   23.1076 H   0  0  0  0  0  0  0  0  0  0  0  0
   18.9245   17.8463   23.4391 H   0  0  0  0  0  0  0  0  0  0  0  0
   18.2724   19.0405   25.1318 C   0  0  0  0  0  0  0  0  0  0  0  0
   17.5343   18.3002   25.4707 H   0  0  0  0  0  0  0  0  0  0  0  0
   17.8244   20.0275   25.3126 H   0  0  0  0  0  0  0  0  0  0  0  0
   19.5595   18.8897   25.9760 C   0  0  0  0  0  0  0  0  0  0  0  0
   20.0327   17.9227   25.7593 H   0  0  0  0  0  0  0  0  0  0  0  0
   20.2813   19.6713   25.7074 H   0  0  0  0  0  0  0  0  0  0  0  0
   19.2556   18.9842   27.4814 C   0  0  0  0  0  0  0  0  0  0  0  0
   18.5512   18.1976   27.7650 H   0  0  0  0  0  0  0  0  0  0  0  0
   18.7990   19.9522   27.7048 H   0  0  0  0  0  0  0  0  0  0  0  0
   20.4911   18.8391   28.3462 N   0  3  0  0  0  0  0  0  0  0  0  0
   20.2664   18.9046   29.3452 H   0  0  0  0  0  0  0  0  0  0  0  0
   21.1842   19.5682   28.1474 H   0  0  0  0  0  0  0  0  0  0  0  0
   20.9536   17.9352   28.2027 H   0  0  0  0  0  0  0  0  0  0  0  0
  1  2  1  0  0  0  0
  1  3  1  0  0  0  0
  1  4  1  0  0  0  0
  1  5  1  0  0  0  0
  5  6  1  0  0  0  0
  5  7  1  0  0  0  0
  5  8  1  0  0  0  0
  8  9  1  0  0  0  0
  8 10  1  0  0  0  0
  8 11  1  0  0  0  0
 11 12  1  0  0  0  0
 11 13  1  0  0  0  0
 11 14  1  0  0  0  0
 14 15  1  0  0  0  0
 14 16  1  0  0  0  0
 14 17  1  0  0  0  0
 17 18  1  0  0  0  0
 17 19  1  0  0  0  0
 17 20  1  0  0  0  0
 20 21  1  0  0  0  0
 20 22  1  0  0  0  0
 20 23  1  0  0  0  0
 23 24  1  0  0  0  0
 23 25  1  0  0  0  0
 23 26  1  0  0  0  0
 26 27  1  0  0  0  0
 26 28  1  0  0  0  0
 26 29  1  0  0  0  0
M  END
> <VM2 Rank>
55

> <Conf_Id>
1637

> <Probability>
0.54

> <Sum Probability>
66.86

> <Delta G>
1.369

> <G>
59.517

> <E>
22.102

> <-TS>
37.415

> <U+W>
-2.042

> <U>
49.434

> <W>
-51.477

> <W(PB)>
-53.998

> <W(SA)>
2.521

> <Valence>
3.636

> <Coulomb>
44.866

> <VdW>
0.931

> <VdW6>
-8.276

> <VdW12>
9.207

> <Bond>
0.222

> <Angle>
0.875

> <Pdih>
2.540

> <Idih>
0.000

> <Tether>
0.000

$$$$
VeraChem MOL file


 29 28  0  0  0  0  0  0  0  0999 V2000     
   19.8417   18.9981   19.3414 C   0  0  0  0  0  0  0  0  0  0  0  0
   20.9148   19.2279   19.3658 H   0  0  0  0  0  0  0  0  0  0  0  0
   19.7154   17.9232   19.5203 H   0  0  0  0  0  0  0  0  0  0  0  0
   19.4766   19.2080   18.3277 H   0  0  0  0  0  0  0  0  0  0  0  0
   19.0687   19.8428   20.3796 C   0  0  0  0  0  0  0  0  0  0  0  0
   18.0043   19.5699   20.3604 H   0  0  0  0  0  0  0  0  0  0  0  0
   19.1204   20.8995   20.0825 H   0  0  0  0  0  0  0  0  0  0  0  0
   19.6184   19.7064   21.8202 C   0  0  0  0  0  0  0  0  0  0  0  0
   20.6820   19.9813   21.8342 H   0  0  0  0  0  0  0  0  0  0  0  0
   19.1001   20.4399   22.4507 H   0  0  0  0  0  0  0  0  0  0  0  0
   19.4364   18.2879   22.4180 C   0  0  0  0  0  0  0  0  0  0  0  0
   19.9501   17.5557   21.7819 H   0  0  0  0  0  0  0  0  0  0  0  0
   18.3725   18.0144   22.4073 H   0  0  0  0  0  0  0  0  0  0  0  0
   19.9944   18.1454   23.8555 C   0  0  0  0  0  0  0  0  0  0  0  0
   19.9487   17.0852   24.1407 H   0  0  0  0  0  0  0  0  0  0  0  0
   21.0579   18.4216   23.8663 H   0  0  0  0  0  0  0  0  0  0  0  0
   19.2255   18.9812   24.9070 C   0  0  0  0  0  0  0  0  0  0  0  0
   18.1537   18.7449   24.8525 H   0  0  0  0  0  0  0  0  0  0  0  0
   19.3285   20.0516   24.6861 H   0  0  0  0  0  0  0  0  0  0  0  0
   19.7387   18.7125   26.3388 C   0  0  0  0  0  0  0  0  0  0  0  0
   19.6293   17.6462   26.5776 H   0  0  0  0  0  0  0  0  0  0  0  0
   20.8097   18.9482   26.3978 H   0  0  0  0  0  0  0  0  0  0  0  0
   18.9724   19.5499   27.3777 C   0  0  0  0  0  0  0  0  0  0  0  0
   17.9074   19.3066   27.3338 H   0  0  0  0  0  0  0  0  0  0  0  0
   19.0922   20.6135   27.1543 H   0  0  0  0  0  0  0  0  0  0  0  0
   19.4478   19.3138   28.7967 N   0  3  0  0  0  0  0  0  0  0  0  0
   19.3363   18.3343   29.0787 H   0  0  0  0  0  0  0  0  0  0  0  0
   18.9247   19.8810   29.4730 H   0  0  0  0  0  0  0  0  0  0  0  0
   20.4389   19.5503   28.9117 H   0  0  0  0  0  0  0  0  0  0  0  0
  1  2  1  0  0  0  0
  1  3  1  0  0  0  0
  1  4  1  0  0  0  0
  1  5  1  0  0  0  0
  5  6  1  0  0  0  0
  5  7  1  0  0  0  0
  5  8  1  0  0  0  0
  8  9  1  0  0  0  0
  8 10  1  0  0  0  0
  8 11  1  0  0  0  0
 11 12  1  0  0  0  0
 11 13  1  0  0  0  0
 11 14  1  0  0  0  0
 14 15  1  0  0  0  0
 14 16  1  0  0  0  0
 14 17  1  0  0  0  0
 17 18  1  0  0  0  0
 17 19  1  0  0  0  0
 17 20  1  0  0  0  0
 20 21  1  0  0  0  0
 20 22  1  0  0  0  0
 20 23  1  0  0  0  0
 23 24  1  0  0  0  0
 23 25  1  0  0  0  0
 23 26  1  0  0  0  0
 26 27  1  0  0  0  0
 26 28  1  0  0  0  0
 26 29  1  0  0  0  0
M  END
> <VM2 Rank>
56

> <Conf_Id>
1528

> <Probability>
0.53

> <Sum Probability>
67.40

> <Delta G>
1.379

> <G>
59.527

> <E>
22.189

> <-TS>
37.338

> <U+W>
-1.955

> <U>
49.254

> <W>
-51.209

> <W(PB)>
-53.714

> <W(SA)>
2.505

> <Valence>
3.706

> <Coulomb>
44.522

> <VdW>
1.026

> <VdW6>
-8.144

> <VdW12>
9.170

> <Bond>
0.228

> <Angle>
0.952

> <Pdih>
2.525

> <Idih>
0.000

> <Tether>
0.000

$$$$
VeraChem MOL file


 29 28  0  0  0  0  0  0  0  0999 V2000     
   20.4503   17.6281   20.4544 C   0  0  0  0  0  0  0  0  0  0  0  0
   20.2598   17.0469   21.3651 H   0  0  0  0  0  0  0  0  0  0  0  0
   20.4123   16.9329   19.6057 H   0  0  0  0  0  0  0  0  0  0  0  0
   21.4688   18.0335   20.5110 H   0  0  0  0  0  0  0  0  0  0  0  0
   19.4116   18.7582   20.2740 C   0  0  0  0  0  0  0  0  0  0  0  0
   18.3996   18.3302   20.2524 H   0  0  0  0  0  0  0  0  0  0  0  0
   19.5674   19.2287   19.2932 H   0  0  0  0  0  0  0  0  0  0  0  0
   19.4945   19.8509   21.3672 C   0  0  0  0  0  0  0  0  0  0  0  0
   20.5019   20.2893   21.3721 H   0  0  0  0  0  0  0  0  0  0  0  0
   18.8050   20.6635   21.0998 H   0  0  0  0  0  0  0  0  0  0  0  0
   19.1433   19.3346   22.7832 C   0  0  0  0  0  0  0  0  0  0  0  0
   19.8678   18.5674   23.0817 H   0  0  0  0  0  0  0  0  0  0  0  0
   18.1554   18.8544   22.7633 H   0  0  0  0  0  0  0  0  0  0  0  0
   19.1412   20.4792   23.8249 C   0  0  0  0  0  0  0  0  0  0  0  0
   20.1423   20.9282   23.8840 H   0  0  0  0  0  0  0  0  0  0  0  0
   18.4661   21.2750   23.4809 H   0  0  0  0  0  0  0  0  0  0  0  0
   18.6893   20.0313   25.2366 C   0  0  0  0  0  0  0  0  0  0  0  0
   17.6815   19.5969   25.1803 H   0  0  0  0  0  0  0  0  0  0  0  0
   18.6055   20.9224   25.8743 H   0  0  0  0  0  0  0  0  0  0  0  0
   19.6542   19.0247   25.9059 C   0  0  0  0  0  0  0  0  0  0  0  0
   19.6876   18.0918   25.3293 H   0  0  0  0  0  0  0  0  0  0  0  0
   20.6717   19.4376   25.9147 H   0  0  0  0  0  0  0  0  0  0  0  0
   19.2193   18.7066   27.3472 C   0  0  0  0  0  0  0  0  0  0  0  0
   18.2127   18.2797   27.3423 H   0  0  0  0  0  0  0  0  0  0  0  0
   19.2004   19.6266   27.9377 H   0  0  0  0  0  0  0  0  0  0  0  0
   20.1404   17.7245   28.0417 N   0  3  0  0  0  0  0  0  0  0  0  0
   20.1812   16.8256   27.5499 H   0  0  0  0  0  0  0  0  0  0  0  0
   19.8330   17.5269   29.0005 H   0  0  0  0  0  0  0  0  0  0  0  0
   21.1005   18.0793   28.1031 H   0  0  0  0  0  0  0  0  0  0  0  0
  1  2  1  0  0  0  0
  1  3  1  0  0  0  0
  1  4  1  0  0  0  0
  1  5  1  0  0  0  0
  5  6  1  0  0  0  0
  5  7  1  0  0  0  0
  5  8  1  0  0  0  0
  8  9  1  0  0  0  0
  8 10  1  0  0  0  0
  8 11  1  0  0  0  0
 11 12  1  0  0  0  0
 11 13  1  0  0  0  0
 11 14  1  0  0  0  0
 14 15  1  0  0  0  0
 14 16  1  0  0  0  0
 14 17  1  0  0  0  0
 17 18  1  0  0  0  0
 17 19  1  0  0  0  0
 17 20  1  0  0  0  0
 20 21  1  0  0  0  0
 20 22  1  0  0  0  0
 20 23  1  0  0  0  0
 23 24  1  0  0  0  0
 23 25  1  0  0  0  0
 23 26  1  0  0  0  0
 26 27  1  0  0  0  0
 26 28  1  0  0  0  0
 26 29  1  0  0  0  0
M  END
> <VM2 Rank>
57

> <Conf_Id>
2572

> <Probability>
0.52

> <Sum Probability>
67.91

> <Delta G>
1.396

> <G>
59.544

> <E>
22.151

> <-TS>
37.393

> <U+W>
-1.993

> <U>
49.480

> <W>
-51.473

> <W(PB)>
-54.001

> <W(SA)>
2.529

> <Valence>
3.628

> <Coulomb>
44.888

> <VdW>
0.963

> <VdW6>
-8.237

> <VdW12>
9.200

> <Bond>
0.221

> <Angle>
0.900

> <Pdih>
2.508

> <Idih>
0.000

> <Tether>
0.000

$$$$
VeraChem MOL file


 29 28  0  0  0  0  0  0  0  0999 V2000     
   19.8054   18.9658   19.1163 C   0  0  0  0  0  0  0  0  0  0  0  0
   20.4498   19.8059   18.8259 H   0  0  0  0  0  0  0  0  0  0  0  0
   20.3994   18.0442   19.0617 H   0  0  0  0  0  0  0  0  0  0  0  0
   18.9971   18.8903   18.3773 H   0  0  0  0  0  0  0  0  0  0  0  0
   19.2302   19.1712   20.5337 C   0  0  0  0  0  0  0  0  0  0  0  0
   18.5606   18.3339   20.7698 H   0  0  0  0  0  0  0  0  0  0  0  0
   18.6182   20.0838   20.5494 H   0  0  0  0  0  0  0  0  0  0  0  0
   20.3522   19.2760   21.5938 C   0  0  0  0  0  0  0  0  0  0  0  0
   20.9291   18.3413   21.6173 H   0  0  0  0  0  0  0  0  0  0  0  0
   21.0551   20.0639   21.2896 H   0  0  0  0  0  0  0  0  0  0  0  0
   19.8365   19.6043   23.0167 C   0  0  0  0  0  0  0  0  0  0  0  0
   19.2547   20.5360   22.9907 H   0  0  0  0  0  0  0  0  0  0  0  0
   20.7081   19.8014   23.6536 H   0  0  0  0  0  0  0  0  0  0  0  0
   18.9840   18.4713   23.6430 C   0  0  0  0  0  0  0  0  0  0  0  0
   18.1131   18.2734   23.0052 H   0  0  0  0  0  0  0  0  0  0  0  0
   19.5663   17.5399   23.6694 H   0  0  0  0  0  0  0  0  0  0  0  0
   18.4671   18.8000   25.0654 C   0  0  0  0  0  0  0  0  0  0  0  0
   17.7668   18.0103   25.3712 H   0  0  0  0  0  0  0  0  0  0  0  0
   17.8870   19.7330   25.0403 H   0  0  0  0  0  0  0  0  0  0  0  0
   19.5885   18.9104   26.1251 C   0  0  0  0  0  0  0  0  0  0  0  0
   20.2012   17.9992   26.1116 H   0  0  0  0  0  0  0  0  0  0  0  0
   20.2523   19.7513   25.8889 H   0  0  0  0  0  0  0  0  0  0  0  0
   19.0071   19.1141   27.5351 C   0  0  0  0  0  0  0  0  0  0  0  0
   18.3580   18.2723   27.7910 H   0  0  0  0  0  0  0  0  0  0  0  0
   18.4093   20.0293   27.5581 H   0  0  0  0  0  0  0  0  0  0  0  0
   20.0730   19.2247   28.6060 N   0  3  0  0  0  0  0  0  0  0  0  0
   20.6548   18.3817   28.6541 H   0  0  0  0  0  0  0  0  0  0  0  0
   19.6644   19.3595   29.5375 H   0  0  0  0  0  0  0  0  0  0  0  0
   20.7022   20.0169   28.4383 H   0  0  0  0  0  0  0  0  0  0  0  0
  1  2  1  0  0  0  0
  1  3  1  0  0  0  0
  1  4  1  0  0  0  0
  1  5  1  0  0  0  0
  5  6  1  0  0  0  0
  5  7  1  0  0  0  0
  5  8  1  0  0  0  0
  8  9  1  0  0  0  0
  8 10  1  0  0  0  0
  8 11  1  0  0  0  0
 11 12  1  0  0  0  0
 11 13  1  0  0  0  0
 11 14  1  0  0  0  0
 14 15  1  0  0  0  0
 14 16  1  0  0  0  0
 14 17  1  0  0  0  0
 17 18  1  0  0  0  0
 17 19  1  0  0  0  0
 17 20  1  0  0  0  0
 20 21  1  0  0  0  0
 20 22  1  0  0  0  0
 20 23  1  0  0  0  0
 23 24  1  0  0  0  0
 23 25  1  0  0  0  0
 23 26  1  0  0  0  0
 26 27  1  0  0  0  0
 26 28  1  0  0  0  0
 26 29  1  0  0  0  0
M  END
> <VM2 Rank>
58

> <Conf_Id>
1275

> <Probability>
0.51

> <Sum Probability>
68.42

> <Delta G>
1.409

> <G>
59.557

> <E>
22.239

> <-TS>
37.318

> <U+W>
-1.906

> <U>
49.514

> <W>
-51.420

> <W(PB)>
-53.930

> <W(SA)>
2.510

> <Valence>
3.749

> <Coulomb>
44.750

> <VdW>
1.015

> <VdW6>
-8.174

> <VdW12>
9.190

> <Bond>
0.232

> <Angle>
0.981

> <Pdih>
2.536

> <Idih>
0.000

> <Tether>
0.000

$$$$
VeraChem MOL file


 29 28  0  0  0  0  0  0  0  0999 V2000     
   20.4396   19.1178   19.3740 C   0  0  0  0  0  0  0  0  0  0  0  0
   20.4073   18.0838   19.0065 H   0  0  0  0  0  0  0  0  0  0  0  0
   19.6175   19.6736   18.9044 H   0  0  0  0  0  0  0  0  0  0  0  0
   21.3842   19.5652   19.0383 H   0  0  0  0  0  0  0  0  0  0  0  0
   20.3316   19.1637   20.9129 C   0  0  0  0  0  0  0  0  0  0  0  0
   20.4083   20.2077   21.2445 H   0  0  0  0  0  0  0  0  0  0  0  0
   21.1821   18.6255   21.3540 H   0  0  0  0  0  0  0  0  0  0  0  0
   19.0053   18.5419   21.4099 C   0  0  0  0  0  0  0  0  0  0  0  0
   18.1558   19.1115   21.0085 H   0  0  0  0  0  0  0  0  0  0  0  0
   18.9134   17.5249   21.0043 H   0  0  0  0  0  0  0  0  0  0  0  0
   18.8978   18.4668   22.9526 C   0  0  0  0  0  0  0  0  0  0  0  0
   19.7358   17.8742   23.3425 H   0  0  0  0  0  0  0  0  0  0  0  0
   17.9818   17.9180   23.2114 H   0  0  0  0  0  0  0  0  0  0  0  0
   18.8641   19.8573   23.6359 C   0  0  0  0  0  0  0  0  0  0  0  0
   19.8245   20.3704   23.4955 H   0  0  0  0  0  0  0  0  0  0  0  0
   18.1043   20.4799   23.1437 H   0  0  0  0  0  0  0  0  0  0  0  0
   18.5403   19.7918   25.1486 C   0  0  0  0  0  0  0  0  0  0  0  0
   17.5666   19.3045   25.2965 H   0  0  0  0  0  0  0  0  0  0  0  0
   18.4320   20.8179   25.5269 H   0  0  0  0  0  0  0  0  0  0  0  0
   19.6207   19.0611   25.9799 C   0  0  0  0  0  0  0  0  0  0  0  0
   19.6892   18.0106   25.6703 H   0  0  0  0  0  0  0  0  0  0  0  0
   20.6017   19.5186   25.7951 H   0  0  0  0  0  0  0  0  0  0  0  0
   19.3042   19.1205   27.4845 C   0  0  0  0  0  0  0  0  0  0  0  0
   18.3352   18.6516   27.6757 H   0  0  0  0  0  0  0  0  0  0  0  0
   19.2522   20.1633   27.8090 H   0  0  0  0  0  0  0  0  0  0  0  0
   20.3405   18.4170   28.3368 N   0  3  0  0  0  0  0  0  0  0  0  0
   20.1109   18.4688   29.3355 H   0  0  0  0  0  0  0  0  0  0  0  0
   21.2724   18.8293   28.2227 H   0  0  0  0  0  0  0  0  0  0  0  0
   20.4189   17.4225   28.0995 H   0  0  0  0  0  0  0  0  0  0  0  0
  1  2  1  0  0  0  0
  1  3  1  0  0  0  0
  1  4  1  0  0  0  0
  1  5  1  0  0  0  0
  5  6  1  0  0  0  0
  5  7  1  0  0  0  0
  5  8  1  0  0  0  0
  8  9  1  0  0  0  0
  8 10  1  0  0  0  0
  8 11  1  0  0  0  0
 11 12  1  0  0  0  0
 11 13  1  0  0  0  0
 11 14  1  0  0  0  0
 14 15  1  0  0  0  0
 14 16  1  0  0  0  0
 14 17  1  0  0  0  0
 17 18  1  0  0  0  0
 17 19  1  0  0  0  0
 17 20  1  0  0  0  0
 20 21  1  0  0  0  0
 20 22  1  0  0  0  0
 20 23  1  0  0  0  0
 23 24  1  0  0  0  0
 23 25  1  0  0  0  0
 23 26  1  0  0  0  0
 26 27  1  0  0  0  0
 26 28  1  0  0  0  0
 26 29  1  0  0  0  0
M  END
> <VM2 Rank>
59

> <Conf_Id>
1550

> <Probability>
0.50

> <Sum Probability>
68.92

> <Delta G>
1.411

> <G>
59.559

> <E>
22.143

> <-TS>
37.416

> <U+W>
-2.002

> <U>
49.434

> <W>
-51.436

> <W(PB)>
-53.968

> <W(SA)>
2.532

> <Valence>
3.637

> <Coulomb>
44.866

> <VdW>
0.931

> <VdW6>
-8.275

> <VdW12>
9.207

> <Bond>
0.222

> <Angle>
0.875

> <Pdih>
2.540

> <Idih>
0.000

> <Tether>
0.000

$$$$
VeraChem MOL file


 29 28  0  0  0  0  0  0  0  0999 V2000     
   20.8241   19.5124   20.0217 C   0  0  0  0  0  0  0  0  0  0  0  0
   20.9517   19.7861   18.9664 H   0  0  0  0  0  0  0  0  0  0  0  0
   20.8999   20.4336   20.6126 H   0  0  0  0  0  0  0  0  0  0  0  0
   21.6570   18.8543   20.3011 H   0  0  0  0  0  0  0  0  0  0  0  0
   19.4645   18.8099   20.2375 C   0  0  0  0  0  0  0  0  0  0  0  0
   19.3872   17.9659   19.5380 H   0  0  0  0  0  0  0  0  0  0  0  0
   18.6476   19.4985   19.9800 H   0  0  0  0  0  0  0  0  0  0  0  0
   19.2678   18.2802   21.6783 C   0  0  0  0  0  0  0  0  0  0  0  0
   18.3337   17.7027   21.7129 H   0  0  0  0  0  0  0  0  0  0  0  0
   20.0754   17.5769   21.9240 H   0  0  0  0  0  0  0  0  0  0  0  0
   19.2087   19.4004   22.7443 C   0  0  0  0  0  0  0  0  0  0  0  0
   18.4348   20.1294   22.4673 H   0  0  0  0  0  0  0  0  0  0  0  0
   20.1633   19.9420   22.7705 H   0  0  0  0  0  0  0  0  0  0  0  0
   18.9077   18.8371   24.1515 C   0  0  0  0  0  0  0  0  0  0  0  0
   17.9483   18.3018   24.1347 H   0  0  0  0  0  0  0  0  0  0  0  0
   19.6785   18.1013   24.4169 H   0  0  0  0  0  0  0  0  0  0  0  0
   18.8547   19.9567   25.2184 C   0  0  0  0  0  0  0  0  0  0  0  0
   18.1132   20.7084   24.9146 H   0  0  0  0  0  0  0  0  0  0  0  0
   19.8200   20.4791   25.2571 H   0  0  0  0  0  0  0  0  0  0  0  0
   18.4796   19.4371   26.6289 C   0  0  0  0  0  0  0  0  0  0  0  0
   18.4183   20.2853   27.3236 H   0  0  0  0  0  0  0  0  0  0  0  0
   17.4749   18.9951   26.5962 H   0  0  0  0  0  0  0  0  0  0  0  0
   19.4616   18.3915   27.1948 C   0  0  0  0  0  0  0  0  0  0  0  0
   19.4962   17.5208   26.5349 H   0  0  0  0  0  0  0  0  0  0  0  0
   19.1128   18.0596   28.1765 H   0  0  0  0  0  0  0  0  0  0  0  0
   20.8753   18.9127   27.3595 N   0  3  0  0  0  0  0  0  0  0  0  0
   21.2723   19.2139   26.4639 H   0  0  0  0  0  0  0  0  0  0  0  0
   21.5030   18.1980   27.7436 H   0  0  0  0  0  0  0  0  0  0  0  0
   20.9122   19.7172   27.9940 H   0  0  0  0  0  0  0  0  0  0  0  0
  1  2  1  0  0  0  0
  1  3  1  0  0  0  0
  1  4  1  0  0  0  0
  1  5  1  0  0  0  0
  5  6  1  0  0  0  0
  5  7  1  0  0  0  0
  5  8  1  0  0  0  0
  8  9  1  0  0  0  0
  8 10  1  0  0  0  0
  8 11  1  0  0  0  0
 11 12  1  0  0  0  0
 11 13  1  0  0  0  0
 11 14  1  0  0  0  0
 14 15  1  0  0  0  0
 14 16  1  0  0  0  0
 14 17  1  0  0  0  0
 17 18  1  0  0  0  0
 17 19  1  0  0  0  0
 17 20  1  0  0  0  0
 20 21  1  0  0  0  0
 20 22  1  0  0  0  0
 20 23  1  0  0  0  0
 23 24  1  0  0  0  0
 23 25  1  0  0  0  0
 23 26  1  0  0  0  0
 26 27  1  0  0  0  0
 26 28  1  0  0  0  0
 26 29  1  0  0  0  0
M  END
> <VM2 Rank>
60

> <Conf_Id>
312

> <Probability>
0.44

> <Sum Probability>
69.37

> <Delta G>
1.488

> <G>
59.636

> <E>
22.055

> <-TS>
37.581

> <U+W>
-2.090

> <U>
49.770

> <W>
-51.860

> <W(PB)>
-54.353

> <W(SA)>
2.493

> <Valence>
3.472

> <Coulomb>
45.376

> <VdW>
0.923

> <VdW6>
-8.869

> <VdW12>
9.792

> <Bond>
0.226

> <Angle>
0.872

> <Pdih>
2.374

> <Idih>
0.000

> <Tether>
0.000

$$$$
VeraChem MOL file


 29 28  0  0  0  0  0  0  0  0999 V2000     
   20.9736   19.3376   20.1645 C   0  0  0  0  0  0  0  0  0  0  0  0
   21.2142   18.3025   20.4369 H   0  0  0  0  0  0  0  0  0  0  0  0
   21.2462   19.4735   19.1099 H   0  0  0  0  0  0  0  0  0  0  0  0
   21.6047   20.0069   20.7636 H   0  0  0  0  0  0  0  0  0  0  0  0
   19.4749   19.6468   20.3801 C   0  0  0  0  0  0  0  0  0  0  0  0
   18.8649   18.9478   19.7910 H   0  0  0  0  0  0  0  0  0  0  0  0
   19.2594   20.6500   19.9865 H   0  0  0  0  0  0  0  0  0  0  0  0
   19.0453   19.5928   21.8659 C   0  0  0  0  0  0  0  0  0  0  0  0
   19.6408   20.3168   22.4374 H   0  0  0  0  0  0  0  0  0  0  0  0
   17.9997   19.9218   21.9395 H   0  0  0  0  0  0  0  0  0  0  0  0
   19.1779   18.1814   22.4916 C   0  0  0  0  0  0  0  0  0  0  0  0
   20.2349   17.8877   22.5380 H   0  0  0  0  0  0  0  0  0  0  0  0
   18.6815   17.4517   21.8372 H   0  0  0  0  0  0  0  0  0  0  0  0
   18.5577   18.0738   23.9062 C   0  0  0  0  0  0  0  0  0  0  0  0
   17.4925   18.3394   23.8618 H   0  0  0  0  0  0  0  0  0  0  0  0
   18.6006   17.0234   24.2259 H   0  0  0  0  0  0  0  0  0  0  0  0
   19.2721   18.9517   24.9615 C   0  0  0  0  0  0  0  0  0  0  0  0
   19.1710   20.0124   24.6967 H   0  0  0  0  0  0  0  0  0  0  0  0
   20.3456   18.7206   24.9571 H   0  0  0  0  0  0  0  0  0  0  0  0
   18.6919   18.7284   26.3780 C   0  0  0  0  0  0  0  0  0  0  0  0
   17.6110   18.9222   26.3626 H   0  0  0  0  0  0  0  0  0  0  0  0
   18.8181   17.6790   26.6760 H   0  0  0  0  0  0  0  0  0  0  0  0
   19.3365   19.6442   27.4362 C   0  0  0  0  0  0  0  0  0  0  0  0
   18.8317   19.5016   28.3956 H   0  0  0  0  0  0  0  0  0  0  0  0
   19.2175   20.6898   27.1400 H   0  0  0  0  0  0  0  0  0  0  0  0
   20.8141   19.3813   27.6509 N   0  3  0  0  0  0  0  0  0  0  0  0
   20.9887   18.4175   27.9542 H   0  0  0  0  0  0  0  0  0  0  0  0
   21.2102   19.9982   28.3686 H   0  0  0  0  0  0  0  0  0  0  0  0
   21.3544   19.5321   26.7933 H   0  0  0  0  0  0  0  0  0  0  0  0
  1  2  1  0  0  0  0
  1  3  1  0  0  0  0
  1  4  1  0  0  0  0
  1  5  1  0  0  0  0
  5  6  1  0  0  0  0
  5  7  1  0  0  0  0
  5  8  1  0  0  0  0
  8  9  1  0  0  0  0
  8 10  1  0  0  0  0
  8 11  1  0  0  0  0
 11 12  1  0  0  0  0
 11 13  1  0  0  0  0
 11 14  1  0  0  0  0
 14 15  1  0  0  0  0
 14 16  1  0  0  0  0
 14 17  1  0  0  0  0
 17 18  1  0  0  0  0
 17 19  1  0  0  0  0
 17 20  1  0  0  0  0
 20 21  1  0  0  0  0
 20 22  1  0  0  0  0
 20 23  1  0  0  0  0
 23 24  1  0  0  0  0
 23 25  1  0  0  0  0
 23 26  1  0  0  0  0
 26 27  1  0  0  0  0
 26 28  1  0  0  0  0
 26 29  1  0  0  0  0
M  END
> <VM2 Rank>
61

> <Conf_Id>
2633

> <Probability>
0.44

> <Sum Probability>
69.81

> <Delta G>
1.490

> <G>
59.638

> <E>
22.110

> <-TS>
37.527

> <U+W>
-2.034

> <U>
49.822

> <W>
-51.857

> <W(PB)>
-54.364

> <W(SA)>
2.507

> <Valence>
3.699

> <Coulomb>
45.079

> <VdW>
1.045

> <VdW6>
-8.779

> <VdW12>
9.824

> <Bond>
0.239

> <Angle>
0.889

> <Pdih>
2.571

> <Idih>
0.000

> <Tether>
0.000

$$$$
VeraChem MOL file


 29 28  0  0  0  0  0  0  0  0999 V2000     
   20.2908   18.0156   19.9885 C   0  0  0  0  0  0  0  0  0  0  0  0
   21.3482   17.9872   20.2820 H   0  0  0  0  0  0  0  0  0  0  0  0
   19.7588   17.2315   20.5413 H   0  0  0  0  0  0  0  0  0  0  0  0
   20.2316   17.7649   18.9215 H   0  0  0  0  0  0  0  0  0  0  0  0
   19.6786   19.4102   20.2510 C   0  0  0  0  0  0  0  0  0  0  0  0
   18.6142   19.4040   19.9778 H   0  0  0  0  0  0  0  0  0  0  0  0
   20.1624   20.1398   19.5867 H   0  0  0  0  0  0  0  0  0  0  0  0
   19.8406   19.8875   21.7143 C   0  0  0  0  0  0  0  0  0  0  0  0
   20.9074   19.9112   21.9764 H   0  0  0  0  0  0  0  0  0  0  0  0
   19.4818   20.9236   21.7848 H   0  0  0  0  0  0  0  0  0  0  0  0
   19.0714   19.0160   22.7358 C   0  0  0  0  0  0  0  0  0  0  0  0
   19.4678   17.9923   22.7270 H   0  0  0  0  0  0  0  0  0  0  0  0
   18.0149   18.9524   22.4410 H   0  0  0  0  0  0  0  0  0  0  0  0
   19.1746   19.5863   24.1683 C   0  0  0  0  0  0  0  0  0  0  0  0
   20.2331   19.6577   24.4516 H   0  0  0  0  0  0  0  0  0  0  0  0
   18.7701   20.6078   24.1864 H   0  0  0  0  0  0  0  0  0  0  0  0
   18.4106   18.7113   25.1906 C   0  0  0  0  0  0  0  0  0  0  0  0
   18.8273   17.6952   25.1948 H   0  0  0  0  0  0  0  0  0  0  0  0
   17.3651   18.6106   24.8678 H   0  0  0  0  0  0  0  0  0  0  0  0
   18.4287   19.2944   26.6258 C   0  0  0  0  0  0  0  0  0  0  0  0
   17.9303   20.2729   26.6250 H   0  0  0  0  0  0  0  0  0  0  0  0
   17.8353   18.6492   27.2872 H   0  0  0  0  0  0  0  0  0  0  0  0
   19.8427   19.4601   27.2186 C   0  0  0  0  0  0  0  0  0  0  0  0
   19.7684   19.8982   28.2177 H   0  0  0  0  0  0  0  0  0  0  0  0
   20.4290   20.1384   26.5935 H   0  0  0  0  0  0  0  0  0  0  0  0
   20.6061   18.1565   27.3420 N   0  3  0  0  0  0  0  0  0  0  0  0
   20.1172   17.4854   27.9434 H   0  0  0  0  0  0  0  0  0  0  0  0
   21.5388   18.2975   27.7451 H   0  0  0  0  0  0  0  0  0  0  0  0
   20.7358   17.7084   26.4295 H   0  0  0  0  0  0  0  0  0  0  0  0
  1  2  1  0  0  0  0
  1  3  1  0  0  0  0
  1  4  1  0  0  0  0
  1  5  1  0  0  0  0
  5  6  1  0  0  0  0
  5  7  1  0  0  0  0
  5  8  1  0  0  0  0
  8  9  1  0  0  0  0
  8 10  1  0  0  0  0
  8 11  1  0  0  0  0
 11 12  1  0  0  0  0
 11 13  1  0  0  0  0
 11 14  1  0  0  0  0
 14 15  1  0  0  0  0
 14 16  1  0  0  0  0
 14 17  1  0  0  0  0
 17 18  1  0  0  0  0
 17 19  1  0  0  0  0
 17 20  1  0  0  0  0
 20 21  1  0  0  0  0
 20 22  1  0  0  0  0
 20 23  1  0  0  0  0
 23 24  1  0  0  0  0
 23 25  1  0  0  0  0
 23 26  1  0  0  0  0
 26 27  1  0  0  0  0
 26 28  1  0  0  0  0
 26 29  1  0  0  0  0
M  END
> <VM2 Rank>
62

> <Conf_Id>
649

> <Probability>
0.44

> <Sum Probability>
70.25

> <Delta G>
1.493

> <G>
59.642

> <E>
22.060

> <-TS>
37.581

> <U+W>
-2.084

> <U>
49.771

> <W>
-51.855

> <W(PB)>
-54.329

> <W(SA)>
2.474

> <Valence>
3.472

> <Coulomb>
45.376

> <VdW>
0.923

> <VdW6>
-8.870

> <VdW12>
9.793

> <Bond>
0.226

> <Angle>
0.872

> <Pdih>
2.373

> <Idih>
0.000

> <Tether>
0.000

$$$$
VeraChem MOL file


 29 28  0  0  0  0  0  0  0  0999 V2000     
   19.8645   18.2673   19.4442 C   0  0  0  0  0  0  0  0  0  0  0  0
   19.1813   17.9982   18.6282 H   0  0  0  0  0  0  0  0  0  0  0  0
   20.5105   19.0807   19.0886 H   0  0  0  0  0  0  0  0  0  0  0  0
   20.4973   17.3955   19.6556 H   0  0  0  0  0  0  0  0  0  0  0  0
   19.0735   18.6955   20.6983 C   0  0  0  0  0  0  0  0  0  0  0  0
   18.4123   17.8748   21.0101 H   0  0  0  0  0  0  0  0  0  0  0  0
   18.4255   19.5470   20.4476 H   0  0  0  0  0  0  0  0  0  0  0  0
   20.0124   19.0800   21.8630 C   0  0  0  0  0  0  0  0  0  0  0  0
   20.6594   18.2266   22.1090 H   0  0  0  0  0  0  0  0  0  0  0  0
   20.6730   19.8987   21.5455 H   0  0  0  0  0  0  0  0  0  0  0  0
   19.2238   19.5094   23.1206 C   0  0  0  0  0  0  0  0  0  0  0  0
   18.5619   18.6885   23.4261 H   0  0  0  0  0  0  0  0  0  0  0  0
   18.5802   20.3655   22.8755 H   0  0  0  0  0  0  0  0  0  0  0  0
   20.1668   19.8891   24.2871 C   0  0  0  0  0  0  0  0  0  0  0  0
   20.7835   19.0228   24.5612 H   0  0  0  0  0  0  0  0  0  0  0  0
   20.8671   20.6628   23.9432 H   0  0  0  0  0  0  0  0  0  0  0  0
   19.4206   20.4265   25.5356 C   0  0  0  0  0  0  0  0  0  0  0  0
   18.8864   21.3477   25.2649 H   0  0  0  0  0  0  0  0  0  0  0  0
   20.1613   20.7239   26.2900 H   0  0  0  0  0  0  0  0  0  0  0  0
   18.4132   19.4333   26.1720 C   0  0  0  0  0  0  0  0  0  0  0  0
   17.9778   19.8882   27.0716 H   0  0  0  0  0  0  0  0  0  0  0  0
   17.5738   19.2673   25.4847 H   0  0  0  0  0  0  0  0  0  0  0  0
   19.0289   18.0697   26.5441 C   0  0  0  0  0  0  0  0  0  0  0  0
   19.4346   17.5916   25.6487 H   0  0  0  0  0  0  0  0  0  0  0  0
   18.2519   17.4195   26.9550 H   0  0  0  0  0  0  0  0  0  0  0  0
   20.1402   18.1671   27.5701 N   0  3  0  0  0  0  0  0  0  0  0  0
   20.9143   18.7476   27.2324 H   0  0  0  0  0  0  0  0  0  0  0  0
   20.5297   17.2462   27.7995 H   0  0  0  0  0  0  0  0  0  0  0  0
   19.8111   18.5814   28.4483 H   0  0  0  0  0  0  0  0  0  0  0  0
  1  2  1  0  0  0  0
  1  3  1  0  0  0  0
  1  4  1  0  0  0  0
  1  5  1  0  0  0  0
  5  6  1  0  0  0  0
  5  7  1  0  0  0  0
  5  8  1  0  0  0  0
  8  9  1  0  0  0  0
  8 10  1  0  0  0  0
  8 11  1  0  0  0  0
 11 12  1  0  0  0  0
 11 13  1  0  0  0  0
 11 14  1  0  0  0  0
 14 15  1  0  0  0  0
 14 16  1  0  0  0  0
 14 17  1  0  0  0  0
 17 18  1  0  0  0  0
 17 19  1  0  0  0  0
 17 20  1  0  0  0  0
 20 21  1  0  0  0  0
 20 22  1  0  0  0  0
 20 23  1  0  0  0  0
 23 24  1  0  0  0  0
 23 25  1  0  0  0  0
 23 26  1  0  0  0  0
 26 27  1  0  0  0  0
 26 28  1  0  0  0  0
 26 29  1  0  0  0  0
M  END
> <VM2 Rank>
63

> <Conf_Id>
1230

> <Probability>
0.43

> <Sum Probability>
70.67

> <Delta G>
1.508

> <G>
59.656

> <E>
21.921

> <-TS>
37.735

> <U+W>
-2.223

> <U>
49.647

> <W>
-51.871

> <W(PB)>
-54.359

> <W(SA)>
2.488

> <Valence>
3.442

> <Coulomb>
45.477

> <VdW>
0.729

> <VdW6>
-9.235

> <VdW12>
9.964

> <Bond>
0.237

> <Angle>
0.960

> <Pdih>
2.245

> <Idih>
0.000

> <Tether>
0.000

$$$$
VeraChem MOL file


 29 28  0  0  0  0  0  0  0  0999 V2000     
   19.6274   19.7060   19.6399 C   0  0  0  0  0  0  0  0  0  0  0  0
   20.7146   19.5825   19.5518 H   0  0  0  0  0  0  0  0  0  0  0  0
   19.2188   19.8159   18.6270 H   0  0  0  0  0  0  0  0  0  0  0  0
   19.4296   20.6410   20.1784 H   0  0  0  0  0  0  0  0  0  0  0  0
   18.9865   18.4937   20.3528 C   0  0  0  0  0  0  0  0  0  0  0  0
   19.1061   17.6054   19.7170 H   0  0  0  0  0  0  0  0  0  0  0  0
   17.9042   18.6550   20.4554 H   0  0  0  0  0  0  0  0  0  0  0  0
   19.6054   18.1982   21.7402 C   0  0  0  0  0  0  0  0  0  0  0  0
   19.1730   17.2633   22.1227 H   0  0  0  0  0  0  0  0  0  0  0  0
   20.6836   18.0178   21.6299 H   0  0  0  0  0  0  0  0  0  0  0  0
   19.3679   19.3249   22.7740 C   0  0  0  0  0  0  0  0  0  0  0  0
   18.2923   19.5382   22.8433 H   0  0  0  0  0  0  0  0  0  0  0  0
   19.8559   20.2491   22.4377 H   0  0  0  0  0  0  0  0  0  0  0  0
   19.9099   18.9452   24.1704 C   0  0  0  0  0  0  0  0  0  0  0  0
   19.4232   18.0202   24.5068 H   0  0  0  0  0  0  0  0  0  0  0  0
   20.9855   18.7320   24.0998 H   0  0  0  0  0  0  0  0  0  0  0  0
   19.6740   20.0728   25.2035 C   0  0  0  0  0  0  0  0  0  0  0  0
   18.5981   20.2735   25.2952 H   0  0  0  0  0  0  0  0  0  0  0  0
   20.1268   21.0023   24.8316 H   0  0  0  0  0  0  0  0  0  0  0  0
   20.2722   19.7574   26.5973 C   0  0  0  0  0  0  0  0  0  0  0  0
   21.3609   19.6454   26.5068 H   0  0  0  0  0  0  0  0  0  0  0  0
   20.1071   20.6133   27.2652 H   0  0  0  0  0  0  0  0  0  0  0  0
   19.6973   18.4864   27.2547 C   0  0  0  0  0  0  0  0  0  0  0  0
   20.1874   18.3225   28.2182 H   0  0  0  0  0  0  0  0  0  0  0  0
   19.8972   17.6189   26.6205 H   0  0  0  0  0  0  0  0  0  0  0  0
   18.2035   18.5533   27.5023 N   0  3  0  0  0  0  0  0  0  0  0  0
   17.9549   19.3348   28.1177 H   0  0  0  0  0  0  0  0  0  0  0  0
   17.8517   17.6978   27.9458 H   0  0  0  0  0  0  0  0  0  0  0  0
   17.6822   18.6772   26.6286 H   0  0  0  0  0  0  0  0  0  0  0  0
  1  2  1  0  0  0  0
  1  3  1  0  0  0  0
  1  4  1  0  0  0  0
  1  5  1  0  0  0  0
  5  6  1  0  0  0  0
  5  7  1  0  0  0  0
  5  8  1  0  0  0  0
  8  9  1  0  0  0  0
  8 10  1  0  0  0  0
  8 11  1  0  0  0  0
 11 12  1  0  0  0  0
 11 13  1  0  0  0  0
 11 14  1  0  0  0  0
 14 15  1  0  0  0  0
 14 16  1  0  0  0  0
 14 17  1  0  0  0  0
 17 18  1  0  0  0  0
 17 19  1  0  0  0  0
 17 20  1  0  0  0  0
 20 21  1  0  0  0  0
 20 22  1  0  0  0  0
 20 23  1  0  0  0  0
 23 24  1  0  0  0  0
 23 25  1  0  0  0  0
 23 26  1  0  0  0  0
 26 27  1  0  0  0  0
 26 28  1  0  0  0  0
 26 29  1  0  0  0  0
M  END
> <VM2 Rank>
64

> <Conf_Id>
685

> <Probability>
0.42

> <Sum Probability>
71.09

> <Delta G>
1.519

> <G>
59.667

> <E>
22.085

> <-TS>
37.582

> <U+W>
-2.059

> <U>
49.716

> <W>
-51.775

> <W(PB)>
-54.284

> <W(SA)>
2.508

> <Valence>
3.471

> <Coulomb>
45.316

> <VdW>
0.929

> <VdW6>
-8.866

> <VdW12>
9.795

> <Bond>
0.226

> <Angle>
0.873

> <Pdih>
2.372

> <Idih>
0.000

> <Tether>
0.000

$$$$
VeraChem MOL file


 29 28  0  0  0  0  0  0  0  0999 V2000     
   20.5923   18.2183   19.8474 C   0  0  0  0  0  0  0  0  0  0  0  0
   21.2819   19.0573   19.6874 H   0  0  0  0  0  0  0  0  0  0  0  0
   21.1598   17.2869   19.7231 H   0  0  0  0  0  0  0  0  0  0  0  0
   19.8246   18.2522   19.0633 H   0  0  0  0  0  0  0  0  0  0  0  0
   19.9551   18.2848   21.2515 C   0  0  0  0  0  0  0  0  0  0  0  0
   20.7488   18.2070   22.0062 H   0  0  0  0  0  0  0  0  0  0  0  0
   19.2940   17.4184   21.3928 H   0  0  0  0  0  0  0  0  0  0  0  0
   19.1529   19.5923   21.4517 C   0  0  0  0  0  0  0  0  0  0  0  0
   19.8256   20.4567   21.3646 H   0  0  0  0  0  0  0  0  0  0  0  0
   18.4202   19.6889   20.6387 H   0  0  0  0  0  0  0  0  0  0  0  0
   18.3976   19.6564   22.8019 C   0  0  0  0  0  0  0  0  0  0  0  0
   17.7152   18.7990   22.8823 H   0  0  0  0  0  0  0  0  0  0  0  0
   17.7653   20.5550   22.8033 H   0  0  0  0  0  0  0  0  0  0  0  0
   19.3336   19.6968   24.0336 C   0  0  0  0  0  0  0  0  0  0  0  0
   19.9219   18.7721   24.0793 H   0  0  0  0  0  0  0  0  0  0  0  0
   20.0468   20.5255   23.9247 H   0  0  0  0  0  0  0  0  0  0  0  0
   18.5387   19.8704   25.3499 C   0  0  0  0  0  0  0  0  0  0  0  0
   17.8381   19.0338   25.4735 H   0  0  0  0  0  0  0  0  0  0  0  0
   17.9219   20.7771   25.2816 H   0  0  0  0  0  0  0  0  0  0  0  0
   19.4468   19.9869   26.5998 C   0  0  0  0  0  0  0  0  0  0  0  0
   20.0823   20.8773   26.5035 H   0  0  0  0  0  0  0  0  0  0  0  0
   18.8222   20.1513   27.4878 H   0  0  0  0  0  0  0  0  0  0  0  0
   20.3489   18.7590   26.8382 C   0  0  0  0  0  0  0  0  0  0  0  0
   20.9709   18.9314   27.7208 H   0  0  0  0  0  0  0  0  0  0  0  0
   21.0104   18.6134   25.9804 H   0  0  0  0  0  0  0  0  0  0  0  0
   19.5780   17.4731   27.0609 N   0  3  0  0  0  0  0  0  0  0  0  0
   18.9577   17.5382   27.8746 H   0  0  0  0  0  0  0  0  0  0  0  0
   20.2038   16.6765   27.2230 H   0  0  0  0  0  0  0  0  0  0  0  0
   18.9941   17.2392   26.2518 H   0  0  0  0  0  0  0  0  0  0  0  0
  1  2  1  0  0  0  0
  1  3  1  0  0  0  0
  1  4  1  0  0  0  0
  1  5  1  0  0  0  0
  5  6  1  0  0  0  0
  5  7  1  0  0  0  0
  5  8  1  0  0  0  0
  8  9  1  0  0  0  0
  8 10  1  0  0  0  0
  8 11  1  0  0  0  0
 11 12  1  0  0  0  0
 11 13  1  0  0  0  0
 11 14  1  0  0  0  0
 14 15  1  0  0  0  0
 14 16  1  0  0  0  0
 14 17  1  0  0  0  0
 17 18  1  0  0  0  0
 17 19  1  0  0  0  0
 17 20  1  0  0  0  0
 20 21  1  0  0  0  0
 20 22  1  0  0  0  0
 20 23  1  0  0  0  0
 23 24  1  0  0  0  0
 23 25  1  0  0  0  0
 23 26  1  0  0  0  0
 26 27  1  0  0  0  0
 26 28  1  0  0  0  0
 26 29  1  0  0  0  0
M  END
> <VM2 Rank>
65

> <Conf_Id>
286

> <Probability>
0.41

> <Sum Probability>
71.50

> <Delta G>
1.535

> <G>
59.683

> <E>
22.112

> <-TS>
37.571

> <U+W>
-2.033

> <U>
50.142

> <W>
-52.174

> <W(PB)>
-54.650

> <W(SA)>
2.475

> <Valence>
3.507

> <Coulomb>
45.743

> <VdW>
0.893

> <VdW6>
-8.958

> <VdW12>
9.850

> <Bond>
0.232

> <Angle>
0.893

> <Pdih>
2.381

> <Idih>
0.000

> <Tether>
0.000

$$$$
VeraChem MOL file


 29 28  0  0  0  0  0  0  0  0999 V2000     
   20.3420   19.6091   19.4740 C   0  0  0  0  0  0  0  0  0  0  0  0
   20.3339   18.5854   19.0774 H   0  0  0  0  0  0  0  0  0  0  0  0
   19.9940   20.2813   18.6790 H   0  0  0  0  0  0  0  0  0  0  0  0
   21.3803   19.8760   19.7107 H   0  0  0  0  0  0  0  0  0  0  0  0
   19.4409   19.7277   20.7213 C   0  0  0  0  0  0  0  0  0  0  0  0
   18.4042   19.4876   20.4463 H   0  0  0  0  0  0  0  0  0  0  0  0
   19.4425   20.7684   21.0745 H   0  0  0  0  0  0  0  0  0  0  0  0
   19.9095   18.7909   21.8565 C   0  0  0  0  0  0  0  0  0  0  0  0
   19.9089   17.7523   21.4976 H   0  0  0  0  0  0  0  0  0  0  0  0
   20.9466   19.0333   22.1268 H   0  0  0  0  0  0  0  0  0  0  0  0
   19.0094   18.9067   23.1071 C   0  0  0  0  0  0  0  0  0  0  0  0
   17.9732   18.6601   22.8375 H   0  0  0  0  0  0  0  0  0  0  0  0
   19.0104   19.9483   23.4542 H   0  0  0  0  0  0  0  0  0  0  0  0
   19.4841   17.9710   24.2443 C   0  0  0  0  0  0  0  0  0  0  0  0
   19.5433   16.9433   23.8602 H   0  0  0  0  0  0  0  0  0  0  0  0
   20.5054   18.2415   24.5438 H   0  0  0  0  0  0  0  0  0  0  0  0
   18.5486   17.9765   25.4808 C   0  0  0  0  0  0  0  0  0  0  0  0
   18.9242   17.2486   26.2124 H   0  0  0  0  0  0  0  0  0  0  0  0
   17.5566   17.6114   25.1813 H   0  0  0  0  0  0  0  0  0  0  0  0
   18.3858   19.3566   26.1703 C   0  0  0  0  0  0  0  0  0  0  0  0
   17.8498   20.0425   25.5020 H   0  0  0  0  0  0  0  0  0  0  0  0
   17.7482   19.2437   27.0571 H   0  0  0  0  0  0  0  0  0  0  0  0
   19.7191   20.0088   26.5876 C   0  0  0  0  0  0  0  0  0  0  0  0
   19.5216   20.9867   27.0351 H   0  0  0  0  0  0  0  0  0  0  0  0
   20.3482   20.1585   25.7063 H   0  0  0  0  0  0  0  0  0  0  0  0
   20.5045   19.1907   27.5931 N   0  3  0  0  0  0  0  0  0  0  0  0
   20.7429   18.2658   27.2216 H   0  0  0  0  0  0  0  0  0  0  0  0
   19.9753   19.0428   28.4586 H   0  0  0  0  0  0  0  0  0  0  0  0
   21.3848   19.6488   27.8535 H   0  0  0  0  0  0  0  0  0  0  0  0
  1  2  1  0  0  0  0
  1  3  1  0  0  0  0
  1  4  1  0  0  0  0
  1  5  1  0  0  0  0
  5  6  1  0  0  0  0
  5  7  1  0  0  0  0
  5  8  1  0  0  0  0
  8  9  1  0  0  0  0
  8 10  1  0  0  0  0
  8 11  1  0  0  0  0
 11 12  1  0  0  0  0
 11 13  1  0  0  0  0
 11 14  1  0  0  0  0
 14 15  1  0  0  0  0
 14 16  1  0  0  0  0
 14 17  1  0  0  0  0
 17 18  1  0  0  0  0
 17 19  1  0  0  0  0
 17 20  1  0  0  0  0
 20 21  1  0  0  0  0
 20 22  1  0  0  0  0
 20 23  1  0  0  0  0
 23 24  1  0  0  0  0
 23 25  1  0  0  0  0
 23 26  1  0  0  0  0
 26 27  1  0  0  0  0
 26 28  1  0  0  0  0
 26 29  1  0  0  0  0
M  END
> <VM2 Rank>
66

> <Conf_Id>
1372

> <Probability>
0.41

> <Sum Probability>
71.91

> <Delta G>
1.537

> <G>
59.685

> <E>
21.950

> <-TS>
37.735

> <U+W>
-2.194

> <U>
49.647

> <W>
-51.842

> <W(PB)>
-54.341

> <W(SA)>
2.499

> <Valence>
3.442

> <Coulomb>
45.477

> <VdW>
0.729

> <VdW6>
-9.235

> <VdW12>
9.964

> <Bond>
0.237

> <Angle>
0.960

> <Pdih>
2.245

> <Idih>
0.000

> <Tether>
0.000

$$$$
VeraChem MOL file


 29 28  0  0  0  0  0  0  0  0999 V2000     
   21.0985   19.0271   20.5481 C   0  0  0  0  0  0  0  0  0  0  0  0
   21.7670   18.3148   20.0474 H   0  0  0  0  0  0  0  0  0  0  0  0
   21.1438   19.9754   19.9971 H   0  0  0  0  0  0  0  0  0  0  0  0
   21.4927   19.1964   21.5579 H   0  0  0  0  0  0  0  0  0  0  0  0
   19.6548   18.4775   20.5894 C   0  0  0  0  0  0  0  0  0  0  0  0
   19.6310   17.5409   21.1623 H   0  0  0  0  0  0  0  0  0  0  0  0
   19.3480   18.2124   19.5680 H   0  0  0  0  0  0  0  0  0  0  0  0
   18.6280   19.4850   21.1665 C   0  0  0  0  0  0  0  0  0  0  0  0
   18.5817   20.3616   20.5058 H   0  0  0  0  0  0  0  0  0  0  0  0
   17.6286   19.0300   21.1325 H   0  0  0  0  0  0  0  0  0  0  0  0
   18.9130   19.9673   22.6123 C   0  0  0  0  0  0  0  0  0  0  0  0
   18.1316   20.6854   22.8966 H   0  0  0  0  0  0  0  0  0  0  0  0
   19.8592   20.5236   22.6416 H   0  0  0  0  0  0  0  0  0  0  0  0
   18.9463   18.8214   23.6516 C   0  0  0  0  0  0  0  0  0  0  0  0
   18.0164   18.2400   23.5861 H   0  0  0  0  0  0  0  0  0  0  0  0
   19.7708   18.1335   23.4223 H   0  0  0  0  0  0  0  0  0  0  0  0
   19.1213   19.3573   25.0903 C   0  0  0  0  0  0  0  0  0  0  0  0
   18.2944   20.0398   25.3312 H   0  0  0  0  0  0  0  0  0  0  0  0
   20.0471   19.9452   25.1465 H   0  0  0  0  0  0  0  0  0  0  0  0
   19.1617   18.2113   26.1286 C   0  0  0  0  0  0  0  0  0  0  0  0
   18.2493   17.6068   26.0386 H   0  0  0  0  0  0  0  0  0  0  0  0
   20.0046   17.5402   25.9161 H   0  0  0  0  0  0  0  0  0  0  0  0
   19.2655   18.7246   27.5776 C   0  0  0  0  0  0  0  0  0  0  0  0
   19.2060   17.8784   28.2675 H   0  0  0  0  0  0  0  0  0  0  0  0
   18.4307   19.3978   27.7905 H   0  0  0  0  0  0  0  0  0  0  0  0
   20.5547   19.4666   27.8706 N   0  3  0  0  0  0  0  0  0  0  0  0
   21.3779   18.8766   27.7107 H   0  0  0  0  0  0  0  0  0  0  0  0
   20.5980   19.7844   28.8451 H   0  0  0  0  0  0  0  0  0  0  0  0
   20.6569   20.2970   27.2789 H   0  0  0  0  0  0  0  0  0  0  0  0
  1  2  1  0  0  0  0
  1  3  1  0  0  0  0
  1  4  1  0  0  0  0
  1  5  1  0  0  0  0
  5  6  1  0  0  0  0
  5  7  1  0  0  0  0
  5  8  1  0  0  0  0
  8  9  1  0  0  0  0
  8 10  1  0  0  0  0
  8 11  1  0  0  0  0
 11 12  1  0  0  0  0
 11 13  1  0  0  0  0
 11 14  1  0  0  0  0
 14 15  1  0  0  0  0
 14 16  1  0  0  0  0
 14 17  1  0  0  0  0
 17 18  1  0  0  0  0
 17 19  1  0  0  0  0
 17 20  1  0  0  0  0
 20 21  1  0  0  0  0
 20 22  1  0  0  0  0
 20 23  1  0  0  0  0
 23 24  1  0  0  0  0
 23 25  1  0  0  0  0
 23 26  1  0  0  0  0
 26 27  1  0  0  0  0
 26 28  1  0  0  0  0
 26 29  1  0  0  0  0
M  END
> <VM2 Rank>
67

> <Conf_Id>
1024

> <Probability>
0.41

> <Sum Probability>
72.32

> <Delta G>
1.538

> <G>
59.686

> <E>
21.967

> <-TS>
37.720

> <U+W>
-2.178

> <U>
49.569

> <W>
-51.747

> <W(PB)>
-54.226

> <W(SA)>
2.479

> <Valence>
3.641

> <Coulomb>
45.000

> <VdW>
0.928

> <VdW6>
-9.033

> <VdW12>
9.961

> <Bond>
0.244

> <Angle>
1.081

> <Pdih>
2.316

> <Idih>
0.000

> <Tether>
0.000

$$$$
VeraChem MOL file


 29 28  0  0  0  0  0  0  0  0999 V2000     
   20.2893   20.1656   20.0857 C   0  0  0  0  0  0  0  0  0  0  0  0
   19.3189   20.6611   20.2139 H   0  0  0  0  0  0  0  0  0  0  0  0
   21.0329   20.7040   20.6876 H   0  0  0  0  0  0  0  0  0  0  0  0
   20.5746   20.2662   19.0305 H   0  0  0  0  0  0  0  0  0  0  0  0
   20.2224   18.6751   20.4883 C   0  0  0  0  0  0  0  0  0  0  0  0
   21.1782   18.1957   20.2343 H   0  0  0  0  0  0  0  0  0  0  0  0
   19.4541   18.1650   19.8906 H   0  0  0  0  0  0  0  0  0  0  0  0
   19.9427   18.4592   21.9951 C   0  0  0  0  0  0  0  0  0  0  0  0
   20.0120   17.3845   22.2128 H   0  0  0  0  0  0  0  0  0  0  0  0
   20.7335   18.9473   22.5795 H   0  0  0  0  0  0  0  0  0  0  0  0
   18.5524   18.9782   22.4411 C   0  0  0  0  0  0  0  0  0  0  0  0
   17.7867   18.5784   21.7622 H   0  0  0  0  0  0  0  0  0  0  0  0
   18.5104   20.0713   22.3465 H   0  0  0  0  0  0  0  0  0  0  0  0
   18.1806   18.5785   23.8900 C   0  0  0  0  0  0  0  0  0  0  0  0
   17.1444   18.8902   24.0812 H   0  0  0  0  0  0  0  0  0  0  0  0
   18.1958   17.4840   23.9852 H   0  0  0  0  0  0  0  0  0  0  0  0
   19.1034   19.2089   24.9605 C   0  0  0  0  0  0  0  0  0  0  0  0
   19.1249   20.2998   24.8298 H   0  0  0  0  0  0  0  0  0  0  0  0
   20.1303   18.8489   24.8207 H   0  0  0  0  0  0  0  0  0  0  0  0
   18.6296   18.8716   26.3940 C   0  0  0  0  0  0  0  0  0  0  0  0
   17.5912   19.2049   26.5221 H   0  0  0  0  0  0  0  0  0  0  0  0
   18.6305   17.7837   26.5442 H   0  0  0  0  0  0  0  0  0  0  0  0
   19.4933   19.5418   27.4798 C   0  0  0  0  0  0  0  0  0  0  0  0
   19.0613   19.3386   28.4635 H   0  0  0  0  0  0  0  0  0  0  0  0
   19.5012   20.6245   27.3277 H   0  0  0  0  0  0  0  0  0  0  0  0
   20.9303   19.0590   27.5007 N   0  3  0  0  0  0  0  0  0  0  0  0
   21.4739   19.5142   28.2422 H   0  0  0  0  0  0  0  0  0  0  0  0
   21.4084   19.2530   26.6153 H   0  0  0  0  0  0  0  0  0  0  0  0
   20.9895   18.0483   27.6628 H   0  0  0  0  0  0  0  0  0  0  0  0
  1  2  1  0  0  0  0
  1  3  1  0  0  0  0
  1  4  1  0  0  0  0
  1  5  1  0  0  0  0
  5  6  1  0  0  0  0
  5  7  1  0  0  0  0
  5  8  1  0  0  0  0
  8  9  1  0  0  0  0
  8 10  1  0  0  0  0
  8 11  1  0  0  0  0
 11 12  1  0  0  0  0
 11 13  1  0  0  0  0
 11 14  1  0  0  0  0
 14 15  1  0  0  0  0
 14 16  1  0  0  0  0
 14 17  1  0  0  0  0
 17 18  1  0  0  0  0
 17 19  1  0  0  0  0
 17 20  1  0  0  0  0
 20 21  1  0  0  0  0
 20 22  1  0  0  0  0
 20 23  1  0  0  0  0
 23 24  1  0  0  0  0
 23 25  1  0  0  0  0
 23 26  1  0  0  0  0
 26 27  1  0  0  0  0
 26 28  1  0  0  0  0
 26 29  1  0  0  0  0
M  END
> <VM2 Rank>
68

> <Conf_Id>
1269

> <Probability>
0.41

> <Sum Probability>
72.72

> <Delta G>
1.541

> <G>
59.689

> <E>
22.167

> <-TS>
37.521

> <U+W>
-1.977

> <U>
50.020

> <W>
-51.998

> <W(PB)>
-54.490

> <W(SA)>
2.492

> <Valence>
3.698

> <Coulomb>
45.280

> <VdW>
1.043

> <VdW6>
-8.789

> <VdW12>
9.832

> <Bond>
0.241

> <Angle>
0.886

> <Pdih>
2.571

> <Idih>
0.000

> <Tether>
0.000

$$$$
VeraChem MOL file


 29 28  0  0  0  0  0  0  0  0999 V2000     
   19.5839   20.3635   20.2788 C   0  0  0  0  0  0  0  0  0  0  0  0
   18.6592   20.2704   19.6948 H   0  0  0  0  0  0  0  0  0  0  0  0
   19.3522   20.8996   21.2076 H   0  0  0  0  0  0  0  0  0  0  0  0
   20.2835   20.9844   19.7045 H   0  0  0  0  0  0  0  0  0  0  0  0
   20.2013   18.9762   20.5657 C   0  0  0  0  0  0  0  0  0  0  0  0
   21.1125   19.0933   21.1675 H   0  0  0  0  0  0  0  0  0  0  0  0
   20.5249   18.5298   19.6151 H   0  0  0  0  0  0  0  0  0  0  0  0
   19.2214   17.9975   21.2616 C   0  0  0  0  0  0  0  0  0  0  0  0
   18.3774   17.8008   20.5863 H   0  0  0  0  0  0  0  0  0  0  0  0
   19.7260   17.0315   21.4011 H   0  0  0  0  0  0  0  0  0  0  0  0
   18.6639   18.4762   22.6269 C   0  0  0  0  0  0  0  0  0  0  0  0
   17.9732   17.7101   23.0051 H   0  0  0  0  0  0  0  0  0  0  0  0
   18.0613   19.3835   22.4879 H   0  0  0  0  0  0  0  0  0  0  0  0
   19.7609   18.7333   23.6875 C   0  0  0  0  0  0  0  0  0  0  0  0
   20.3890   17.8377   23.7903 H   0  0  0  0  0  0  0  0  0  0  0  0
   20.4173   19.5482   23.3550 H   0  0  0  0  0  0  0  0  0  0  0  0
   19.1555   19.1002   25.0612 C   0  0  0  0  0  0  0  0  0  0  0  0
   18.4996   18.2859   25.3968 H   0  0  0  0  0  0  0  0  0  0  0  0
   18.5262   19.9950   24.9570 H   0  0  0  0  0  0  0  0  0  0  0  0
   20.2523   19.3624   26.1201 C   0  0  0  0  0  0  0  0  0  0  0  0
   20.8689   18.4635   26.2539 H   0  0  0  0  0  0  0  0  0  0  0  0
   20.9243   20.1526   25.7598 H   0  0  0  0  0  0  0  0  0  0  0  0
   19.6742   19.7969   27.4806 C   0  0  0  0  0  0  0  0  0  0  0  0
   19.0545   20.6881   27.3495 H   0  0  0  0  0  0  0  0  0  0  0  0
   20.4937   20.0479   28.1596 H   0  0  0  0  0  0  0  0  0  0  0  0
   18.8304   18.7317   28.1525 N   0  3  0  0  0  0  0  0  0  0  0  0
   18.0196   18.4741   27.5811 H   0  0  0  0  0  0  0  0  0  0  0  0
   18.4708   19.0472   29.0601 H   0  0  0  0  0  0  0  0  0  0  0  0
   19.3658   17.8742   28.3237 H   0  0  0  0  0  0  0  0  0  0  0  0
  1  2  1  0  0  0  0
  1  3  1  0  0  0  0
  1  4  1  0  0  0  0
  1  5  1  0  0  0  0
  5  6  1  0  0  0  0
  5  7  1  0  0  0  0
  5  8  1  0  0  0  0
  8  9  1  0  0  0  0
  8 10  1  0  0  0  0
  8 11  1  0  0  0  0
 11 12  1  0  0  0  0
 11 13  1  0  0  0  0
 11 14  1  0  0  0  0
 14 15  1  0  0  0  0
 14 16  1  0  0  0  0
 14 17  1  0  0  0  0
 17 18  1  0  0  0  0
 17 19  1  0  0  0  0
 17 20  1  0  0  0  0
 20 21  1  0  0  0  0
 20 22  1  0  0  0  0
 20 23  1  0  0  0  0
 23 24  1  0  0  0  0
 23 25  1  0  0  0  0
 23 26  1  0  0  0  0
 26 27  1  0  0  0  0
 26 28  1  0  0  0  0
 26 29  1  0  0  0  0
M  END
> <VM2 Rank>
69

> <Conf_Id>
925

> <Probability>
0.40

> <Sum Probability>
73.13

> <Delta G>
1.548

> <G>
59.696

> <E>
21.976

> <-TS>
37.720

> <U+W>
-2.169

> <U>
49.446

> <W>
-51.615

> <W(PB)>
-54.086

> <W(SA)>
2.470

> <Valence>
3.641

> <Coulomb>
44.872

> <VdW>
0.934

> <VdW6>
-9.029

> <VdW12>
9.963

> <Bond>
0.244

> <Angle>
1.082

> <Pdih>
2.315

> <Idih>
0.000

> <Tether>
0.000

$$$$
VeraChem MOL file


 29 28  0  0  0  0  0  0  0  0999 V2000     
   20.2446   18.2441   19.6234 C   0  0  0  0  0  0  0  0  0  0  0  0
   20.2383   19.0945   18.9292 H   0  0  0  0  0  0  0  0  0  0  0  0
   21.2895   17.9975   19.8529 H   0  0  0  0  0  0  0  0  0  0  0  0
   19.8009   17.3836   19.1059 H   0  0  0  0  0  0  0  0  0  0  0  0
   19.4572   18.5716   20.9098 C   0  0  0  0  0  0  0  0  0  0  0  0
   19.4516   17.6859   21.5588 H   0  0  0  0  0  0  0  0  0  0  0  0
   18.4106   18.7851   20.6518 H   0  0  0  0  0  0  0  0  0  0  0  0
   20.0674   19.7795   21.6593 C   0  0  0  0  0  0  0  0  0  0  0  0
   21.0967   19.5449   21.9638 H   0  0  0  0  0  0  0  0  0  0  0  0
   20.1371   20.6303   20.9675 H   0  0  0  0  0  0  0  0  0  0  0  0
   19.2474   20.2199   22.8967 C   0  0  0  0  0  0  0  0  0  0  0  0
   18.2232   20.4712   22.5883 H   0  0  0  0  0  0  0  0  0  0  0  0
   19.6864   21.1462   23.2924 H   0  0  0  0  0  0  0  0  0  0  0  0
   19.2090   19.1594   24.0230 C   0  0  0  0  0  0  0  0  0  0  0  0
   18.6991   18.2545   23.6678 H   0  0  0  0  0  0  0  0  0  0  0  0
   20.2364   18.8688   24.2793 H   0  0  0  0  0  0  0  0  0  0  0  0
   18.4795   19.6886   25.2809 C   0  0  0  0  0  0  0  0  0  0  0  0
   17.4717   20.0228   24.9983 H   0  0  0  0  0  0  0  0  0  0  0  0
   18.9984   20.5766   25.6659 H   0  0  0  0  0  0  0  0  0  0  0  0
   18.3501   18.6270   26.4019 C   0  0  0  0  0  0  0  0  0  0  0  0
   17.7892   19.0546   27.2436 H   0  0  0  0  0  0  0  0  0  0  0  0
   17.7525   17.7826   26.0334 H   0  0  0  0  0  0  0  0  0  0  0  0
   19.7007   18.0895   26.9168 C   0  0  0  0  0  0  0  0  0  0  0  0
   20.2488   17.6192   26.0964 H   0  0  0  0  0  0  0  0  0  0  0  0
   19.5212   17.3313   27.6838 H   0  0  0  0  0  0  0  0  0  0  0  0
   20.5881   19.1583   27.5231 N   0  3  0  0  0  0  0  0  0  0  0  0
   20.8182   19.8879   26.8412 H   0  0  0  0  0  0  0  0  0  0  0  0
   21.4752   18.7703   27.8621 H   0  0  0  0  0  0  0  0  0  0  0  0
   20.1374   19.6190   28.3205 H   0  0  0  0  0  0  0  0  0  0  0  0
  1  2  1  0  0  0  0
  1  3  1  0  0  0  0
  1  4  1  0  0  0  0
  1  5  1  0  0  0  0
  5  6  1  0  0  0  0
  5  7  1  0  0  0  0
  5  8  1  0  0  0  0
  8  9  1  0  0  0  0
  8 10  1  0  0  0  0
  8 11  1  0  0  0  0
 11 12  1  0  0  0  0
 11 13  1  0  0  0  0
 11 14  1  0  0  0  0
 14 15  1  0  0  0  0
 14 16  1  0  0  0  0
 14 17  1  0  0  0  0
 17 18  1  0  0  0  0
 17 19  1  0  0  0  0
 17 20  1  0  0  0  0
 20 21  1  0  0  0  0
 20 22  1  0  0  0  0
 20 23  1  0  0  0  0
 23 24  1  0  0  0  0
 23 25  1  0  0  0  0
 23 26  1  0  0  0  0
 26 27  1  0  0  0  0
 26 28  1  0  0  0  0
 26 29  1  0  0  0  0
M  END
> <VM2 Rank>
70

> <Conf_Id>
1596

> <Probability>
0.40

> <Sum Probability>
73.53

> <Delta G>
1.548

> <G>
59.696

> <E>
22.122

> <-TS>
37.573

> <U+W>
-2.022

> <U>
49.868

> <W>
-51.891

> <W(PB)>
-54.394

> <W(SA)>
2.503

> <Valence>
3.510

> <Coulomb>
45.457

> <VdW>
0.901

> <VdW6>
-8.930

> <VdW12>
9.831

> <Bond>
0.230

> <Angle>
0.893

> <Pdih>
2.387

> <Idih>
0.000

> <Tether>
0.000

$$$$
VeraChem MOL file


 29 28  0  0  0  0  0  0  0  0999 V2000     
   20.6492   19.3796   19.6488 C   0  0  0  0  0  0  0  0  0  0  0  0
   20.8566   20.3465   19.1722 H   0  0  0  0  0  0  0  0  0  0  0  0
   21.6113   18.9008   19.8729 H   0  0  0  0  0  0  0  0  0  0  0  0
   20.1165   18.7530   18.9215 H   0  0  0  0  0  0  0  0  0  0  0  0
   19.8140   19.5728   20.9322 C   0  0  0  0  0  0  0  0  0  0  0  0
   18.8718   20.0794   20.6809 H   0  0  0  0  0  0  0  0  0  0  0  0
   20.3604   20.2360   21.6158 H   0  0  0  0  0  0  0  0  0  0  0  0
   19.5127   18.2226   21.6245 C   0  0  0  0  0  0  0  0  0  0  0  0
   19.0387   17.5476   20.8986 H   0  0  0  0  0  0  0  0  0  0  0  0
   20.4541   17.7414   21.9235 H   0  0  0  0  0  0  0  0  0  0  0  0
   18.5815   18.3509   22.8550 C   0  0  0  0  0  0  0  0  0  0  0  0
   18.3306   17.3409   23.2074 H   0  0  0  0  0  0  0  0  0  0  0  0
   17.6335   18.8161   22.5513 H   0  0  0  0  0  0  0  0  0  0  0  0
   19.2061   19.1513   24.0228 C   0  0  0  0  0  0  0  0  0  0  0  0
   20.1822   18.7168   24.2759 H   0  0  0  0  0  0  0  0  0  0  0  0
   19.3880   20.1880   23.7110 H   0  0  0  0  0  0  0  0  0  0  0  0
   18.2887   19.1529   25.2690 C   0  0  0  0  0  0  0  0  0  0  0  0
   18.1241   18.1224   25.6111 H   0  0  0  0  0  0  0  0  0  0  0  0
   17.3005   19.5424   24.9876 H   0  0  0  0  0  0  0  0  0  0  0  0
   18.8434   20.0119   26.4329 C   0  0  0  0  0  0  0  0  0  0  0  0
   18.9191   21.0577   26.1066 H   0  0  0  0  0  0  0  0  0  0  0  0
   18.1267   20.0020   27.2648 H   0  0  0  0  0  0  0  0  0  0  0  0
   20.2224   19.5540   26.9495 C   0  0  0  0  0  0  0  0  0  0  0  0
   20.5516   20.2239   27.7484 H   0  0  0  0  0  0  0  0  0  0  0  0
   20.9559   19.6042   26.1407 H   0  0  0  0  0  0  0  0  0  0  0  0
   20.2261   18.1419   27.5003 N   0  3  0  0  0  0  0  0  0  0  0  0
   19.5745   18.0385   28.2852 H   0  0  0  0  0  0  0  0  0  0  0  0
   21.1539   17.8682   27.8418 H   0  0  0  0  0  0  0  0  0  0  0  0
   19.9530   17.4588   26.7868 H   0  0  0  0  0  0  0  0  0  0  0  0
  1  2  1  0  0  0  0
  1  3  1  0  0  0  0
  1  4  1  0  0  0  0
  1  5  1  0  0  0  0
  5  6  1  0  0  0  0
  5  7  1  0  0  0  0
  5  8  1  0  0  0  0
  8  9  1  0  0  0  0
  8 10  1  0  0  0  0
  8 11  1  0  0  0  0
 11 12  1  0  0  0  0
 11 13  1  0  0  0  0
 11 14  1  0  0  0  0
 14 15  1  0  0  0  0
 14 16  1  0  0  0  0
 14 17  1  0  0  0  0
 17 18  1  0  0  0  0
 17 19  1  0  0  0  0
 17 20  1  0  0  0  0
 20 21  1  0  0  0  0
 20 22  1  0  0  0  0
 20 23  1  0  0  0  0
 23 24  1  0  0  0  0
 23 25  1  0  0  0  0
 23 26  1  0  0  0  0
 26 27  1  0  0  0  0
 26 28  1  0  0  0  0
 26 29  1  0  0  0  0
M  END
> <VM2 Rank>
71

> <Conf_Id>
1325

> <Probability>
0.40

> <Sum Probability>
73.92

> <Delta G>
1.550

> <G>
59.698

> <E>
22.124

> <-TS>
37.574

> <U+W>
-2.021

> <U>
49.868

> <W>
-51.889

> <W(PB)>
-54.368

> <W(SA)>
2.479

> <Valence>
3.510

> <Coulomb>
45.457

> <VdW>
0.901

> <VdW6>
-8.930

> <VdW12>
9.831

> <Bond>
0.230

> <Angle>
0.893

> <Pdih>
2.387

> <Idih>
0.000

> <Tether>
0.000

$$$$
VeraChem MOL file


 29 28  0  0  0  0  0  0  0  0999 V2000     
   21.3282   18.7053   20.5661 C   0  0  0  0  0  0  0  0  0  0  0  0
   21.1675   19.2976   19.6559 H   0  0  0  0  0  0  0  0  0  0  0  0
   22.0766   19.2206   21.1821 H   0  0  0  0  0  0  0  0  0  0  0  0
   21.7471   17.7356   20.2674 H   0  0  0  0  0  0  0  0  0  0  0  0
   20.0087   18.5126   21.3431 C   0  0  0  0  0  0  0  0  0  0  0  0
   20.2019   17.8840   22.2225 H   0  0  0  0  0  0  0  0  0  0  0  0
   19.2904   17.9690   20.7136 H   0  0  0  0  0  0  0  0  0  0  0  0
   19.4008   19.8664   21.7788 C   0  0  0  0  0  0  0  0  0  0  0  0
   20.1015   20.3928   22.4401 H   0  0  0  0  0  0  0  0  0  0  0  0
   19.2852   20.5066   20.8933 H   0  0  0  0  0  0  0  0  0  0  0  0
   18.0177   19.7340   22.4675 C   0  0  0  0  0  0  0  0  0  0  0  0
   17.2991   19.3233   21.7450 H   0  0  0  0  0  0  0  0  0  0  0  0
   17.6509   20.7391   22.7170 H   0  0  0  0  0  0  0  0  0  0  0  0
   17.9916   18.8581   23.7468 C   0  0  0  0  0  0  0  0  0  0  0  0
   16.9627   18.8424   24.1322 H   0  0  0  0  0  0  0  0  0  0  0  0
   18.2338   17.8174   23.4941 H   0  0  0  0  0  0  0  0  0  0  0  0
   18.9399   19.3609   24.8614 C   0  0  0  0  0  0  0  0  0  0  0  0
   18.7207   20.4149   25.0817 H   0  0  0  0  0  0  0  0  0  0  0  0
   19.9781   19.3157   24.5093 H   0  0  0  0  0  0  0  0  0  0  0  0
   18.7977   18.5235   26.1542 C   0  0  0  0  0  0  0  0  0  0  0  0
   17.7521   18.5456   26.4891 H   0  0  0  0  0  0  0  0  0  0  0  0
   19.0393   17.4720   25.9498 H   0  0  0  0  0  0  0  0  0  0  0  0
   19.6870   19.0425   27.3004 C   0  0  0  0  0  0  0  0  0  0  0  0
   19.4807   18.4687   28.2079 H   0  0  0  0  0  0  0  0  0  0  0  0
   19.4550   20.0921   27.5002 H   0  0  0  0  0  0  0  0  0  0  0  0
   21.1724   18.9347   27.0167 N   0  3  0  0  0  0  0  0  0  0  0  0
   21.7357   19.2762   27.8033 H   0  0  0  0  0  0  0  0  0  0  0  0
   21.4420   19.4827   26.1938 H   0  0  0  0  0  0  0  0  0  0  0  0
   21.4569   17.9651   26.8428 H   0  0  0  0  0  0  0  0  0  0  0  0
  1  2  1  0  0  0  0
  1  3  1  0  0  0  0
  1  4  1  0  0  0  0
  1  5  1  0  0  0  0
  5  6  1  0  0  0  0
  5  7  1  0  0  0  0
  5  8  1  0  0  0  0
  8  9  1  0  0  0  0
  8 10  1  0  0  0  0
  8 11  1  0  0  0  0
 11 12  1  0  0  0  0
 11 13  1  0  0  0  0
 11 14  1  0  0  0  0
 14 15  1  0  0  0  0
 14 16  1  0  0  0  0
 14 17  1  0  0  0  0
 17 18  1  0  0  0  0
 17 19  1  0  0  0  0
 17 20  1  0  0  0  0
 20 21  1  0  0  0  0
 20 22  1  0  0  0  0
 20 23  1  0  0  0  0
 23 24  1  0  0  0  0
 23 25  1  0  0  0  0
 23 26  1  0  0  0  0
 26 27  1  0  0  0  0
 26 28  1  0  0  0  0
 26 29  1  0  0  0  0
M  END
> <VM2 Rank>
72

> <Conf_Id>
2142

> <Probability>
0.39

> <Sum Probability>
74.32

> <Delta G>
1.556

> <G>
59.704

> <E>
21.961

> <-TS>
37.743

> <U+W>
-2.183

> <U>
50.198

> <W>
-52.381

> <W(PB)>
-54.854

> <W(SA)>
2.473

> <Valence>
3.666

> <Coulomb>
45.691

> <VdW>
0.841

> <VdW6>
-9.219

> <VdW12>
10.060

> <Bond>
0.250

> <Angle>
1.116

> <Pdih>
2.300

> <Idih>
0.000

> <Tether>
0.000

$$$$
VeraChem MOL file


 29 28  0  0  0  0  0  0  0  0999 V2000     
   19.4620   17.8455   20.0342 C   0  0  0  0  0  0  0  0  0  0  0  0
   19.6891   16.9350   20.6039 H   0  0  0  0  0  0  0  0  0  0  0  0
   18.3953   18.0708   20.1565 H   0  0  0  0  0  0  0  0  0  0  0  0
   19.6341   17.6288   18.9720 H   0  0  0  0  0  0  0  0  0  0  0  0
   20.3471   19.0251   20.4961 C   0  0  0  0  0  0  0  0  0  0  0  0
   20.0829   19.9291   19.9298 H   0  0  0  0  0  0  0  0  0  0  0  0
   21.3940   18.8016   20.2477 H   0  0  0  0  0  0  0  0  0  0  0  0
   20.2460   19.3097   22.0139 C   0  0  0  0  0  0  0  0  0  0  0  0
   20.5416   18.4089   22.5675 H   0  0  0  0  0  0  0  0  0  0  0  0
   20.9762   20.0887   22.2728 H   0  0  0  0  0  0  0  0  0  0  0  0
   18.8347   19.7698   22.4588 C   0  0  0  0  0  0  0  0  0  0  0  0
   18.1121   18.9545   22.3217 H   0  0  0  0  0  0  0  0  0  0  0  0
   18.5040   20.5903   21.8072 H   0  0  0  0  0  0  0  0  0  0  0  0
   18.7792   20.2568   23.9275 C   0  0  0  0  0  0  0  0  0  0  0  0
   19.4821   21.0899   24.0657 H   0  0  0  0  0  0  0  0  0  0  0  0
   17.7770   20.6637   24.1208 H   0  0  0  0  0  0  0  0  0  0  0  0
   19.0798   19.1430   24.9590 C   0  0  0  0  0  0  0  0  0  0  0  0
   20.1045   18.7770   24.8189 H   0  0  0  0  0  0  0  0  0  0  0  0
   18.4079   18.2911   24.7852 H   0  0  0  0  0  0  0  0  0  0  0  0
   18.9066   19.6470   26.4113 C   0  0  0  0  0  0  0  0  0  0  0  0
   19.5938   20.4816   26.6044 H   0  0  0  0  0  0  0  0  0  0  0  0
   17.8900   20.0416   26.5410 H   0  0  0  0  0  0  0  0  0  0  0  0
   19.1356   18.5392   27.4574 C   0  0  0  0  0  0  0  0  0  0  0  0
   18.4584   17.7033   27.2628 H   0  0  0  0  0  0  0  0  0  0  0  0
   18.9164   18.9310   28.4544 H   0  0  0  0  0  0  0  0  0  0  0  0
   20.5531   18.0018   27.4767 N   0  3  0  0  0  0  0  0  0  0  0  0
   20.6753   17.2764   28.1918 H   0  0  0  0  0  0  0  0  0  0  0  0
   21.2367   18.7391   27.6777 H   0  0  0  0  0  0  0  0  0  0  0  0
   20.8125   17.5841   26.5776 H   0  0  0  0  0  0  0  0  0  0  0  0
  1  2  1  0  0  0  0
  1  3  1  0  0  0  0
  1  4  1  0  0  0  0
  1  5  1  0  0  0  0
  5  6  1  0  0  0  0
  5  7  1  0  0  0  0
  5  8  1  0  0  0  0
  8  9  1  0  0  0  0
  8 10  1  0  0  0  0
  8 11  1  0  0  0  0
 11 12  1  0  0  0  0
 11 13  1  0  0  0  0
 11 14  1  0  0  0  0
 14 15  1  0  0  0  0
 14 16  1  0  0  0  0
 14 17  1  0  0  0  0
 17 18  1  0  0  0  0
 17 19  1  0  0  0  0
 17 20  1  0  0  0  0
 20 21  1  0  0  0  0
 20 22  1  0  0  0  0
 20 23  1  0  0  0  0
 23 24  1  0  0  0  0
 23 25  1  0  0  0  0
 23 26  1  0  0  0  0
 26 27  1  0  0  0  0
 26 28  1  0  0  0  0
 26 29  1  0  0  0  0
M  END
> <VM2 Rank>
73

> <Conf_Id>
2152

> <Probability>
0.39

> <Sum Probability>
74.71

> <Delta G>
1.558

> <G>
59.706

> <E>
22.185

> <-TS>
37.522

> <U+W>
-1.960

> <U>
50.021

> <W>
-51.980

> <W(PB)>
-54.506

> <W(SA)>
2.526

> <Valence>
3.697

> <Coulomb>
45.280

> <VdW>
1.043

> <VdW6>
-8.789

> <VdW12>
9.832

> <Bond>
0.241

> <Angle>
0.886

> <Pdih>
2.571

> <Idih>
0.000

> <Tether>
0.000

$$$$
VeraChem MOL file


 29 28  0  0  0  0  0  0  0  0999 V2000     
   18.7891   18.1301   20.2291 C   0  0  0  0  0  0  0  0  0  0  0  0
   18.2579   17.8246   21.1392 H   0  0  0  0  0  0  0  0  0  0  0  0
   18.1391   18.8093   19.6623 H   0  0  0  0  0  0  0  0  0  0  0  0
   18.9475   17.2303   19.6209 H   0  0  0  0  0  0  0  0  0  0  0  0
   20.1397   18.8033   20.5619 C   0  0  0  0  0  0  0  0  0  0  0  0
   20.6858   18.9824   19.6252 H   0  0  0  0  0  0  0  0  0  0  0  0
   20.7638   18.1136   21.1456 H   0  0  0  0  0  0  0  0  0  0  0  0
   19.9882   20.1525   21.3097 C   0  0  0  0  0  0  0  0  0  0  0  0
   20.9874   20.5765   21.4801 H   0  0  0  0  0  0  0  0  0  0  0  0
   19.4675   20.8644   20.6546 H   0  0  0  0  0  0  0  0  0  0  0  0
   19.2345   20.0797   22.6628 C   0  0  0  0  0  0  0  0  0  0  0  0
   18.1964   19.7631   22.4965 H   0  0  0  0  0  0  0  0  0  0  0  0
   19.1775   21.0943   23.0806 H   0  0  0  0  0  0  0  0  0  0  0  0
   19.9079   19.1461   23.6968 C   0  0  0  0  0  0  0  0  0  0  0  0
   19.9071   18.1137   23.3230 H   0  0  0  0  0  0  0  0  0  0  0  0
   20.9588   19.4392   23.8260 H   0  0  0  0  0  0  0  0  0  0  0  0
   19.1875   19.1896   25.0631 C   0  0  0  0  0  0  0  0  0  0  0  0
   18.1361   18.8979   24.9324 H   0  0  0  0  0  0  0  0  0  0  0  0
   19.1881   20.2211   25.4400 H   0  0  0  0  0  0  0  0  0  0  0  0
   19.8576   18.2523   26.0953 C   0  0  0  0  0  0  0  0  0  0  0  0
   19.8851   17.2303   25.6945 H   0  0  0  0  0  0  0  0  0  0  0  0
   20.9011   18.5542   26.2561 H   0  0  0  0  0  0  0  0  0  0  0  0
   19.1156   18.2266   27.4454 C   0  0  0  0  0  0  0  0  0  0  0  0
   19.5832   17.4881   28.1024 H   0  0  0  0  0  0  0  0  0  0  0  0
   18.0745   17.9324   27.2878 H   0  0  0  0  0  0  0  0  0  0  0  0
   19.1238   19.5577   28.1709 N   0  3  0  0  0  0  0  0  0  0  0  0
   18.6329   19.5043   29.0702 H   0  0  0  0  0  0  0  0  0  0  0  0
   18.6656   20.2916   27.6216 H   0  0  0  0  0  0  0  0  0  0  0  0
   20.0778   19.8774   28.3685 H   0  0  0  0  0  0  0  0  0  0  0  0
  1  2  1  0  0  0  0
  1  3  1  0  0  0  0
  1  4  1  0  0  0  0
  1  5  1  0  0  0  0
  5  6  1  0  0  0  0
  5  7  1  0  0  0  0
  5  8  1  0  0  0  0
  8  9  1  0  0  0  0
  8 10  1  0  0  0  0
  8 11  1  0  0  0  0
 11 12  1  0  0  0  0
 11 13  1  0  0  0  0
 11 14  1  0  0  0  0
 14 15  1  0  0  0  0
 14 16  1  0  0  0  0
 14 17  1  0  0  0  0
 17 18  1  0  0  0  0
 17 19  1  0  0  0  0
 17 20  1  0  0  0  0
 20 21  1  0  0  0  0
 20 22  1  0  0  0  0
 20 23  1  0  0  0  0
 23 24  1  0  0  0  0
 23 25  1  0  0  0  0
 23 26  1  0  0  0  0
 26 27  1  0  0  0  0
 26 28  1  0  0  0  0
 26 29  1  0  0  0  0
M  END
> <VM2 Rank>
74

> <Conf_Id>
2146

> <Probability>
0.39

> <Sum Probability>
75.10

> <Delta G>
1.568

> <G>
59.716

> <E>
21.996

> <-TS>
37.720

> <U+W>
-2.149

> <U>
49.446

> <W>
-51.595

> <W(PB)>
-54.068

> <W(SA)>
2.472

> <Valence>
3.641

> <Coulomb>
44.872

> <VdW>
0.934

> <VdW6>
-9.029

> <VdW12>
9.963

> <Bond>
0.244

> <Angle>
1.082

> <Pdih>
2.315

> <Idih>
0.000

> <Tether>
0.000

$$$$
VeraChem MOL file


 29 28  0  0  0  0  0  0  0  0999 V2000     
   20.6802   17.9722   20.3681 C   0  0  0  0  0  0  0  0  0  0  0  0
   20.7830   17.2745   19.5270 H   0  0  0  0  0  0  0  0  0  0  0  0
   21.4870   18.7126   20.2908 H   0  0  0  0  0  0  0  0  0  0  0  0
   20.8264   17.3986   21.2917 H   0  0  0  0  0  0  0  0  0  0  0  0
   19.2942   18.6555   20.3373 C   0  0  0  0  0  0  0  0  0  0  0  0
   18.5060   17.8979   20.4483 H   0  0  0  0  0  0  0  0  0  0  0  0
   19.1461   19.1106   19.3480 H   0  0  0  0  0  0  0  0  0  0  0  0
   19.1235   19.7506   21.4176 C   0  0  0  0  0  0  0  0  0  0  0  0
   19.9017   20.5158   21.2907 H   0  0  0  0  0  0  0  0  0  0  0  0
   18.1624   20.2566   21.2514 H   0  0  0  0  0  0  0  0  0  0  0  0
   19.1627   19.2017   22.8640 C   0  0  0  0  0  0  0  0  0  0  0  0
   20.1440   18.7516   23.0571 H   0  0  0  0  0  0  0  0  0  0  0  0
   18.4155   18.4038   22.9733 H   0  0  0  0  0  0  0  0  0  0  0  0
   18.8884   20.3133   23.9052 C   0  0  0  0  0  0  0  0  0  0  0  0
   19.6628   21.0893   23.8314 H   0  0  0  0  0  0  0  0  0  0  0  0
   17.9358   20.8043   23.6628 H   0  0  0  0  0  0  0  0  0  0  0  0
   18.8135   19.7916   25.3611 C   0  0  0  0  0  0  0  0  0  0  0  0
   18.0229   19.0329   25.4338 H   0  0  0  0  0  0  0  0  0  0  0  0
   18.5074   20.6217   26.0129 H   0  0  0  0  0  0  0  0  0  0  0  0
   20.1540   19.2137   25.8795 C   0  0  0  0  0  0  0  0  0  0  0  0
   20.4294   18.3148   25.3137 H   0  0  0  0  0  0  0  0  0  0  0  0
   20.9544   19.9474   25.7159 H   0  0  0  0  0  0  0  0  0  0  0  0
   20.1076   18.8688   27.3803 C   0  0  0  0  0  0  0  0  0  0  0  0
   19.8366   19.7589   27.9545 H   0  0  0  0  0  0  0  0  0  0  0  0
   21.0972   18.5392   27.7082 H   0  0  0  0  0  0  0  0  0  0  0  0
   19.1200   17.7705   27.7217 N   0  3  0  0  0  0  0  0  0  0  0  0
   18.1615   18.0313   27.4694 H   0  0  0  0  0  0  0  0  0  0  0  0
   19.1195   17.5573   28.7253 H   0  0  0  0  0  0  0  0  0  0  0  0
   19.3366   16.8975   27.2296 H   0  0  0  0  0  0  0  0  0  0  0  0
  1  2  1  0  0  0  0
  1  3  1  0  0  0  0
  1  4  1  0  0  0  0
  1  5  1  0  0  0  0
  5  6  1  0  0  0  0
  5  7  1  0  0  0  0
  5  8  1  0  0  0  0
  8  9  1  0  0  0  0
  8 10  1  0  0  0  0
  8 11  1  0  0  0  0
 11 12  1  0  0  0  0
 11 13  1  0  0  0  0
 11 14  1  0  0  0  0
 14 15  1  0  0  0  0
 14 16  1  0  0  0  0
 14 17  1  0  0  0  0
 17 18  1  0  0  0  0
 17 19  1  0  0  0  0
 17 20  1  0  0  0  0
 20 21  1  0  0  0  0
 20 22  1  0  0  0  0
 20 23  1  0  0  0  0
 23 24  1  0  0  0  0
 23 25  1  0  0  0  0
 23 26  1  0  0  0  0
 26 27  1  0  0  0  0
 26 28  1  0  0  0  0
 26 29  1  0  0  0  0
M  END
> <VM2 Rank>
75

> <Conf_Id>
2239

> <Probability>
0.38

> <Sum Probability>
75.48

> <Delta G>
1.573

> <G>
59.721

> <E>
22.212

> <-TS>
37.508

> <U+W>
-1.932

> <U>
49.862

> <W>
-51.794

> <W(PB)>
-54.284

> <W(SA)>
2.490

> <Valence>
3.720

> <Coulomb>
45.090

> <VdW>
1.051

> <VdW6>
-8.777

> <VdW12>
9.828

> <Bond>
0.242

> <Angle>
0.912

> <Pdih>
2.566

> <Idih>
0.000

> <Tether>
0.000

$$$$
VeraChem MOL file


 29 28  0  0  0  0  0  0  0  0999 V2000     
   21.1483   19.2847   20.3979 C   0  0  0  0  0  0  0  0  0  0  0  0
   21.3065   18.2048   20.2803 H   0  0  0  0  0  0  0  0  0  0  0  0
   21.6811   19.7928   19.5838 H   0  0  0  0  0  0  0  0  0  0  0  0
   21.6109   19.5998   21.3414 H   0  0  0  0  0  0  0  0  0  0  0  0
   19.6431   19.6332   20.3591 C   0  0  0  0  0  0  0  0  0  0  0  0
   19.2549   19.4136   19.3547 H   0  0  0  0  0  0  0  0  0  0  0  0
   19.5098   20.7134   20.5109 H   0  0  0  0  0  0  0  0  0  0  0  0
   18.8030   18.8512   21.3975 C   0  0  0  0  0  0  0  0  0  0  0  0
   17.7410   19.0739   21.2247 H   0  0  0  0  0  0  0  0  0  0  0  0
   18.9239   17.7721   21.2296 H   0  0  0  0  0  0  0  0  0  0  0  0
   19.1599   19.1941   22.8638 C   0  0  0  0  0  0  0  0  0  0  0  0
   19.0843   20.2796   23.0149 H   0  0  0  0  0  0  0  0  0  0  0  0
   20.2017   18.9139   23.0610 H   0  0  0  0  0  0  0  0  0  0  0  0
   18.2295   18.4666   23.8639 C   0  0  0  0  0  0  0  0  0  0  0  0
   17.1847   18.6991   23.6157 H   0  0  0  0  0  0  0  0  0  0  0  0
   18.3392   17.3794   23.7485 H   0  0  0  0  0  0  0  0  0  0  0  0
   18.4809   18.8599   25.3403 C   0  0  0  0  0  0  0  0  0  0  0  0
   17.7093   18.3861   25.9629 H   0  0  0  0  0  0  0  0  0  0  0  0
   18.3482   19.9441   25.4540 H   0  0  0  0  0  0  0  0  0  0  0  0
   19.8769   18.4376   25.8624 C   0  0  0  0  0  0  0  0  0  0  0  0
   20.0342   17.3701   25.6590 H   0  0  0  0  0  0  0  0  0  0  0  0
   20.6671   18.9804   25.3286 H   0  0  0  0  0  0  0  0  0  0  0  0
   20.0380   18.6749   27.3761 C   0  0  0  0  0  0  0  0  0  0  0  0
   21.0077   18.2900   27.7031 H   0  0  0  0  0  0  0  0  0  0  0  0
   19.2563   18.1361   27.9184 H   0  0  0  0  0  0  0  0  0  0  0  0
   19.9645   20.1359   27.7740 N   0  3  0  0  0  0  0  0  0  0  0  0
   19.0614   20.5513   27.5247 H   0  0  0  0  0  0  0  0  0  0  0  0
   20.6921   20.6926   27.3137 H   0  0  0  0  0  0  0  0  0  0  0  0
   20.0848   20.2617   28.7850 H   0  0  0  0  0  0  0  0  0  0  0  0
  1  2  1  0  0  0  0
  1  3  1  0  0  0  0
  1  4  1  0  0  0  0
  1  5  1  0  0  0  0
  5  6  1  0  0  0  0
  5  7  1  0  0  0  0
  5  8  1  0  0  0  0
  8  9  1  0  0  0  0
  8 10  1  0  0  0  0
  8 11  1  0  0  0  0
 11 12  1  0  0  0  0
 11 13  1  0  0  0  0
 11 14  1  0  0  0  0
 14 15  1  0  0  0  0
 14 16  1  0  0  0  0
 14 17  1  0  0  0  0
 17 18  1  0  0  0  0
 17 19  1  0  0  0  0
 17 20  1  0  0  0  0
 20 21  1  0  0  0  0
 20 22  1  0  0  0  0
 20 23  1  0  0  0  0
 23 24  1  0  0  0  0
 23 25  1  0  0  0  0
 23 26  1  0  0  0  0
 26 27  1  0  0  0  0
 26 28  1  0  0  0  0
 26 29  1  0  0  0  0
M  END
> <VM2 Rank>
76

> <Conf_Id>
2318

> <Probability>
0.38

> <Sum Probability>
75.87

> <Delta G>
1.574

> <G>
59.722

> <E>
22.213

> <-TS>
37.509

> <U+W>
-1.931

> <U>
49.862

> <W>
-51.794

> <W(PB)>
-54.296

> <W(SA)>
2.502

> <Valence>
3.720

> <Coulomb>
45.091

> <VdW>
1.051

> <VdW6>
-8.777

> <VdW12>
9.828

> <Bond>
0.242

> <Angle>
0.912

> <Pdih>
2.566

> <Idih>
0.000

> <Tether>
0.000

$$$$
VeraChem MOL file


 29 28  0  0  0  0  0  0  0  0999 V2000     
   19.4304   19.4341   19.2763 C   0  0  0  0  0  0  0  0  0  0  0  0
   20.3781   19.8934   18.9662 H   0  0  0  0  0  0  0  0  0  0  0  0
   19.4317   18.3883   18.9423 H   0  0  0  0  0  0  0  0  0  0  0  0
   18.6172   19.9541   18.7535 H   0  0  0  0  0  0  0  0  0  0  0  0
   19.2425   19.5272   20.8053 C   0  0  0  0  0  0  0  0  0  0  0  0
   18.2686   19.0952   21.0716 H   0  0  0  0  0  0  0  0  0  0  0  0
   19.2155   20.5840   21.1054 H   0  0  0  0  0  0  0  0  0  0  0  0
   20.3757   18.7974   21.5643 C   0  0  0  0  0  0  0  0  0  0  0  0
   20.3700   17.7305   21.3018 H   0  0  0  0  0  0  0  0  0  0  0  0
   21.3438   19.1925   21.2268 H   0  0  0  0  0  0  0  0  0  0  0  0
   20.2904   18.9544   23.1023 C   0  0  0  0  0  0  0  0  0  0  0  0
   20.3226   20.0219   23.3568 H   0  0  0  0  0  0  0  0  0  0  0  0
   21.1863   18.5013   23.5485 H   0  0  0  0  0  0  0  0  0  0  0  0
   19.0304   18.2967   23.7195 C   0  0  0  0  0  0  0  0  0  0  0  0
   18.1266   18.8202   23.3809 H   0  0  0  0  0  0  0  0  0  0  0  0
   18.9478   17.2647   23.3516 H   0  0  0  0  0  0  0  0  0  0  0  0
   19.0495   18.2666   25.2673 C   0  0  0  0  0  0  0  0  0  0  0  0
   19.9351   17.7139   25.6083 H   0  0  0  0  0  0  0  0  0  0  0  0
   18.1760   17.6982   25.6160 H   0  0  0  0  0  0  0  0  0  0  0  0
   19.0224   19.6758   25.9098 C   0  0  0  0  0  0  0  0  0  0  0  0
   19.9364   20.2293   25.6595 H   0  0  0  0  0  0  0  0  0  0  0  0
   18.1828   20.2491   25.4949 H   0  0  0  0  0  0  0  0  0  0  0  0
   18.8682   19.6240   27.4418 C   0  0  0  0  0  0  0  0  0  0  0  0
   17.9587   19.0759   27.7020 H   0  0  0  0  0  0  0  0  0  0  0  0
   18.7774   20.6412   27.8325 H   0  0  0  0  0  0  0  0  0  0  0  0
   20.0346   18.9619   28.1485 N   0  3  0  0  0  0  0  0  0  0  0  0
   19.9071   18.9517   29.1664 H   0  0  0  0  0  0  0  0  0  0  0  0
   20.9180   19.4475   27.9615 H   0  0  0  0  0  0  0  0  0  0  0  0
   20.1545   17.9886   27.8508 H   0  0  0  0  0  0  0  0  0  0  0  0
  1  2  1  0  0  0  0
  1  3  1  0  0  0  0
  1  4  1  0  0  0  0
  1  5  1  0  0  0  0
  5  6  1  0  0  0  0
  5  7  1  0  0  0  0
  5  8  1  0  0  0  0
  8  9  1  0  0  0  0
  8 10  1  0  0  0  0
  8 11  1  0  0  0  0
 11 12  1  0  0  0  0
 11 13  1  0  0  0  0
 11 14  1  0  0  0  0
 14 15  1  0  0  0  0
 14 16  1  0  0  0  0
 14 17  1  0  0  0  0
 17 18  1  0  0  0  0
 17 19  1  0  0  0  0
 17 20  1  0  0  0  0
 20 21  1  0  0  0  0
 20 22  1  0  0  0  0
 20 23  1  0  0  0  0
 23 24  1  0  0  0  0
 23 25  1  0  0  0  0
 23 26  1  0  0  0  0
 26 27  1  0  0  0  0
 26 28  1  0  0  0  0
 26 29  1  0  0  0  0
M  END
> <VM2 Rank>
77

> <Conf_Id>
1566

> <Probability>
0.38

> <Sum Probability>
76.25

> <Delta G>
1.580

> <G>
59.728

> <E>
22.200

> <-TS>
37.527

> <U+W>
-1.944

> <U>
49.798

> <W>
-51.742

> <W(PB)>
-54.234

> <W(SA)>
2.492

> <Valence>
3.728

> <Coulomb>
45.048

> <VdW>
1.022

> <VdW6>
-8.813

> <VdW12>
9.835

> <Bond>
0.243

> <Angle>
0.890

> <Pdih>
2.595

> <Idih>
0.000

> <Tether>
0.000

$$$$
VeraChem MOL file


 29 28  0  0  0  0  0  0  0  0999 V2000     
   20.9316   19.1702   19.8685 C   0  0  0  0  0  0  0  0  0  0  0  0
   20.3268   19.6608   19.0947 H   0  0  0  0  0  0  0  0  0  0  0  0
   21.9620   19.5365   19.7732 H   0  0  0  0  0  0  0  0  0  0  0  0
   20.9371   18.0913   19.6655 H   0  0  0  0  0  0  0  0  0  0  0  0
   20.3764   19.4660   21.2779 C   0  0  0  0  0  0  0  0  0  0  0  0
   20.4105   20.5487   21.4629 H   0  0  0  0  0  0  0  0  0  0  0  0
   21.0296   18.9941   22.0236 H   0  0  0  0  0  0  0  0  0  0  0  0
   18.9252   18.9542   21.4374 C   0  0  0  0  0  0  0  0  0  0  0  0
   18.3082   19.3752   20.6317 H   0  0  0  0  0  0  0  0  0  0  0  0
   18.9005   17.8636   21.3065 H   0  0  0  0  0  0  0  0  0  0  0  0
   18.2808   19.3288   22.7946 C   0  0  0  0  0  0  0  0  0  0  0  0
   17.2227   19.0336   22.7694 H   0  0  0  0  0  0  0  0  0  0  0  0
   18.2934   20.4204   22.9186 H   0  0  0  0  0  0  0  0  0  0  0  0
   18.9628   18.6566   24.0103 C   0  0  0  0  0  0  0  0  0  0  0  0
   18.9927   17.5688   23.8583 H   0  0  0  0  0  0  0  0  0  0  0  0
   20.0026   18.9982   24.0843 H   0  0  0  0  0  0  0  0  0  0  0  0
   18.2187   18.9726   25.3298 C   0  0  0  0  0  0  0  0  0  0  0  0
   17.1686   18.6637   25.2343 H   0  0  0  0  0  0  0  0  0  0  0  0
   18.2032   20.0579   25.4966 H   0  0  0  0  0  0  0  0  0  0  0  0
   18.8309   18.2585   26.5610 C   0  0  0  0  0  0  0  0  0  0  0  0
   18.2305   18.4907   27.4506 H   0  0  0  0  0  0  0  0  0  0  0  0
   18.7616   17.1716   26.4203 H   0  0  0  0  0  0  0  0  0  0  0  0
   20.3026   18.6288   26.8353 C   0  0  0  0  0  0  0  0  0  0  0  0
   20.9192   18.3576   25.9746 H   0  0  0  0  0  0  0  0  0  0  0  0
   20.6630   18.0671   27.7014 H   0  0  0  0  0  0  0  0  0  0  0  0
   20.5151   20.1023   27.1201 N   0  3  0  0  0  0  0  0  0  0  0  0
   21.5011   20.3167   27.3049 H   0  0  0  0  0  0  0  0  0  0  0  0
   19.9818   20.4116   27.9394 H   0  0  0  0  0  0  0  0  0  0  0  0
   20.2220   20.6848   26.3294 H   0  0  0  0  0  0  0  0  0  0  0  0
  1  2  1  0  0  0  0
  1  3  1  0  0  0  0
  1  4  1  0  0  0  0
  1  5  1  0  0  0  0
  5  6  1  0  0  0  0
  5  7  1  0  0  0  0
  5  8  1  0  0  0  0
  8  9  1  0  0  0  0
  8 10  1  0  0  0  0
  8 11  1  0  0  0  0
 11 12  1  0  0  0  0
 11 13  1  0  0  0  0
 11 14  1  0  0  0  0
 14 15  1  0  0  0  0
 14 16  1  0  0  0  0
 14 17  1  0  0  0  0
 17 18  1  0  0  0  0
 17 19  1  0  0  0  0
 17 20  1  0  0  0  0
 20 21  1  0  0  0  0
 20 22  1  0  0  0  0
 20 23  1  0  0  0  0
 23 24  1  0  0  0  0
 23 25  1  0  0  0  0
 23 26  1  0  0  0  0
 26 27  1  0  0  0  0
 26 28  1  0  0  0  0
 26 29  1  0  0  0  0
M  END
> <VM2 Rank>
78

> <Conf_Id>
1363

> <Probability>
0.38

> <Sum Probability>
76.62

> <Delta G>
1.585

> <G>
59.733

> <E>
22.162

> <-TS>
37.571

> <U+W>
-1.983

> <U>
50.142

> <W>
-52.124

> <W(PB)>
-54.604

> <W(SA)>
2.480

> <Valence>
3.507

> <Coulomb>
45.743

> <VdW>
0.893

> <VdW6>
-8.958

> <VdW12>
9.850

> <Bond>
0.232

> <Angle>
0.893

> <Pdih>
2.382

> <Idih>
0.000

> <Tether>
0.000

$$$$
VeraChem MOL file


 29 28  0  0  0  0  0  0  0  0999 V2000     
   20.5202   17.9144   20.2203 C   0  0  0  0  0  0  0  0  0  0  0  0
   20.7880   17.3635   21.1304 H   0  0  0  0  0  0  0  0  0  0  0  0
   20.4743   17.1894   19.3974 H   0  0  0  0  0  0  0  0  0  0  0  0
   21.3271   18.6246   19.9976 H   0  0  0  0  0  0  0  0  0  0  0  0
   19.1660   18.6428   20.3755 C   0  0  0  0  0  0  0  0  0  0  0  0
   18.3819   17.9152   20.6275 H   0  0  0  0  0  0  0  0  0  0  0  0
   18.8837   19.0756   19.4056 H   0  0  0  0  0  0  0  0  0  0  0  0
   19.1926   19.7716   21.4340 C   0  0  0  0  0  0  0  0  0  0  0  0
   19.9622   20.5082   21.1650 H   0  0  0  0  0  0  0  0  0  0  0  0
   18.2313   20.3028   21.4017 H   0  0  0  0  0  0  0  0  0  0  0  0
   19.4389   19.2608   22.8738 C   0  0  0  0  0  0  0  0  0  0  0  0
   20.4303   18.7941   22.9398 H   0  0  0  0  0  0  0  0  0  0  0  0
   18.7009   18.4830   23.1093 H   0  0  0  0  0  0  0  0  0  0  0  0
   19.3479   20.4067   23.9100 C   0  0  0  0  0  0  0  0  0  0  0  0
   20.0359   21.2110   23.6147 H   0  0  0  0  0  0  0  0  0  0  0  0
   18.3393   20.8423   23.8942 H   0  0  0  0  0  0  0  0  0  0  0  0
   19.6995   19.9653   25.3518 C   0  0  0  0  0  0  0  0  0  0  0  0
   19.7149   20.8562   25.9948 H   0  0  0  0  0  0  0  0  0  0  0  0
   20.7179   19.5546   25.3667 H   0  0  0  0  0  0  0  0  0  0  0  0
   18.7030   18.9365   25.9419 C   0  0  0  0  0  0  0  0  0  0  0  0
   17.6794   19.3202   25.8381 H   0  0  0  0  0  0  0  0  0  0  0  0
   18.7454   17.9948   25.3801 H   0  0  0  0  0  0  0  0  0  0  0  0
   18.9666   18.6461   27.4317 C   0  0  0  0  0  0  0  0  0  0  0  0
   18.1913   17.9767   27.8142 H   0  0  0  0  0  0  0  0  0  0  0  0
   18.9243   19.5782   28.0016 H   0  0  0  0  0  0  0  0  0  0  0  0
   20.3094   17.9939   27.6960 N   0  3  0  0  0  0  0  0  0  0  0  0
   21.0859   18.5885   27.3899 H   0  0  0  0  0  0  0  0  0  0  0  0
   20.4007   17.0986   27.2049 H   0  0  0  0  0  0  0  0  0  0  0  0
   20.4508   17.8045   28.6944 H   0  0  0  0  0  0  0  0  0  0  0  0
  1  2  1  0  0  0  0
  1  3  1  0  0  0  0
  1  4  1  0  0  0  0
  1  5  1  0  0  0  0
  5  6  1  0  0  0  0
  5  7  1  0  0  0  0
  5  8  1  0  0  0  0
  8  9  1  0  0  0  0
  8 10  1  0  0  0  0
  8 11  1  0  0  0  0
 11 12  1  0  0  0  0
 11 13  1  0  0  0  0
 11 14  1  0  0  0  0
 14 15  1  0  0  0  0
 14 16  1  0  0  0  0
 14 17  1  0  0  0  0
 17 18  1  0  0  0  0
 17 19  1  0  0  0  0
 17 20  1  0  0  0  0
 20 21  1  0  0  0  0
 20 22  1  0  0  0  0
 20 23  1  0  0  0  0
 23 24  1  0  0  0  0
 23 25  1  0  0  0  0
 23 26  1  0  0  0  0
 26 27  1  0  0  0  0
 26 28  1  0  0  0  0
 26 29  1  0  0  0  0
M  END
> <VM2 Rank>
79

> <Conf_Id>
1016

> <Probability>
0.38

> <Sum Probability>
77.00

> <Delta G>
1.586

> <G>
59.734

> <E>
22.221

> <-TS>
37.514

> <U+W>
-1.924

> <U>
49.857

> <W>
-51.781

> <W(PB)>
-54.284

> <W(SA)>
2.503

> <Valence>
3.719

> <Coulomb>
45.090

> <VdW>
1.048

> <VdW6>
-8.764

> <VdW12>
9.812

> <Bond>
0.240

> <Angle>
0.911

> <Pdih>
2.568

> <Idih>
0.000

> <Tether>
0.000

$$$$
VeraChem MOL file


 29 28  0  0  0  0  0  0  0  0999 V2000     
   21.0826   19.4659   20.2614 C   0  0  0  0  0  0  0  0  0  0  0  0
   20.9014   18.7800   19.4236 H   0  0  0  0  0  0  0  0  0  0  0  0
   21.3578   20.4429   19.8434 H   0  0  0  0  0  0  0  0  0  0  0  0
   21.9414   19.0893   20.8323 H   0  0  0  0  0  0  0  0  0  0  0  0
   19.8325   19.5895   21.1579 C   0  0  0  0  0  0  0  0  0  0  0  0
   18.9991   19.9958   20.5681 H   0  0  0  0  0  0  0  0  0  0  0  0
   20.0387   20.3118   21.9589 H   0  0  0  0  0  0  0  0  0  0  0  0
   19.4274   18.2247   21.7626 C   0  0  0  0  0  0  0  0  0  0  0  0
   19.2997   17.4980   20.9485 H   0  0  0  0  0  0  0  0  0  0  0  0
   20.2444   17.8373   22.3855 H   0  0  0  0  0  0  0  0  0  0  0  0
   18.1119   18.2741   22.5820 C   0  0  0  0  0  0  0  0  0  0  0  0
   17.8853   17.2625   22.9458 H   0  0  0  0  0  0  0  0  0  0  0  0
   17.2849   18.5434   21.9106 H   0  0  0  0  0  0  0  0  0  0  0  0
   18.1136   19.2518   23.7855 C   0  0  0  0  0  0  0  0  0  0  0  0
   18.2130   20.2855   23.4289 H   0  0  0  0  0  0  0  0  0  0  0  0
   17.1322   19.1959   24.2764 H   0  0  0  0  0  0  0  0  0  0  0  0
   19.2160   18.9484   24.8282 C   0  0  0  0  0  0  0  0  0  0  0  0
   20.2067   19.0757   24.3721 H   0  0  0  0  0  0  0  0  0  0  0  0
   19.1385   17.8986   25.1408 H   0  0  0  0  0  0  0  0  0  0  0  0
   19.1066   19.8751   26.0619 C   0  0  0  0  0  0  0  0  0  0  0  0
   19.1435   20.9224   25.7339 H   0  0  0  0  0  0  0  0  0  0  0  0
   18.1350   19.7345   26.5539 H   0  0  0  0  0  0  0  0  0  0  0  0
   20.2378   19.6432   27.0820 C   0  0  0  0  0  0  0  0  0  0  0  0
   20.1567   20.3785   27.8872 H   0  0  0  0  0  0  0  0  0  0  0  0
   21.2069   19.7771   26.5939 H   0  0  0  0  0  0  0  0  0  0  0  0
   20.2155   18.2653   27.7137 N   0  3  0  0  0  0  0  0  0  0  0  0
   19.3355   18.0883   28.2091 H   0  0  0  0  0  0  0  0  0  0  0  0
   20.9729   18.1467   28.3955 H   0  0  0  0  0  0  0  0  0  0  0  0
   20.3233   17.5253   27.0129 H   0  0  0  0  0  0  0  0  0  0  0  0
  1  2  1  0  0  0  0
  1  3  1  0  0  0  0
  1  4  1  0  0  0  0
  1  5  1  0  0  0  0
  5  6  1  0  0  0  0
  5  7  1  0  0  0  0
  5  8  1  0  0  0  0
  8  9  1  0  0  0  0
  8 10  1  0  0  0  0
  8 11  1  0  0  0  0
 11 12  1  0  0  0  0
 11 13  1  0  0  0  0
 11 14  1  0  0  0  0
 14 15  1  0  0  0  0
 14 16  1  0  0  0  0
 14 17  1  0  0  0  0
 17 18  1  0  0  0  0
 17 19  1  0  0  0  0
 17 20  1  0  0  0  0
 20 21  1  0  0  0  0
 20 22  1  0  0  0  0
 20 23  1  0  0  0  0
 23 24  1  0  0  0  0
 23 25  1  0  0  0  0
 23 26  1  0  0  0  0
 26 27  1  0  0  0  0
 26 28  1  0  0  0  0
 26 29  1  0  0  0  0
M  END
> <VM2 Rank>
80

> <Conf_Id>
942

> <Probability>
0.37

> <Sum Probability>
77.37

> <Delta G>
1.600

> <G>
59.748

> <E>
22.007

> <-TS>
37.740

> <U+W>
-2.137

> <U>
49.772

> <W>
-51.909

> <W(PB)>
-54.379

> <W(SA)>
2.470

> <Valence>
3.673

> <Coulomb>
45.240

> <VdW>
0.859

> <VdW6>
-9.177

> <VdW12>
10.036

> <Bond>
0.248

> <Angle>
1.115

> <Pdih>
2.310

> <Idih>
0.000

> <Tether>
0.000

$$$$
VeraChem MOL file


 29 28  0  0  0  0  0  0  0  0999 V2000     
   20.8026   18.1969   20.5295 C   0  0  0  0  0  0  0  0  0  0  0  0
   20.2460   17.4564   19.9407 H   0  0  0  0  0  0  0  0  0  0  0  0
   21.7779   18.3452   20.0482 H   0  0  0  0  0  0  0  0  0  0  0  0
   20.9866   17.7766   21.5262 H   0  0  0  0  0  0  0  0  0  0  0  0
   20.0312   19.5333   20.6130 C   0  0  0  0  0  0  0  0  0  0  0  0
   19.9757   19.9729   19.6074 H   0  0  0  0  0  0  0  0  0  0  0  0
   20.5968   20.2503   21.2229 H   0  0  0  0  0  0  0  0  0  0  0  0
   18.5907   19.3800   21.1641 C   0  0  0  0  0  0  0  0  0  0  0  0
   18.1046   20.3653   21.1623 H   0  0  0  0  0  0  0  0  0  0  0  0
   18.0098   18.7572   20.4699 H   0  0  0  0  0  0  0  0  0  0  0  0
   18.4860   18.7694   22.5855 C   0  0  0  0  0  0  0  0  0  0  0  0
   18.8668   17.7395   22.5794 H   0  0  0  0  0  0  0  0  0  0  0  0
   17.4226   18.6965   22.8521 H   0  0  0  0  0  0  0  0  0  0  0  0
   19.2216   19.5938   23.6688 C   0  0  0  0  0  0  0  0  0  0  0  0
   20.2984   19.6139   23.4554 H   0  0  0  0  0  0  0  0  0  0  0  0
   18.8697   20.6342   23.6396 H   0  0  0  0  0  0  0  0  0  0  0  0
   18.9979   19.0115   25.0826 C   0  0  0  0  0  0  0  0  0  0  0  0
   19.3426   17.9690   25.1023 H   0  0  0  0  0  0  0  0  0  0  0  0
   17.9225   18.9967   25.3078 H   0  0  0  0  0  0  0  0  0  0  0  0
   19.7391   19.8315   26.1648 C   0  0  0  0  0  0  0  0  0  0  0  0
   20.8193   19.8263   25.9671 H   0  0  0  0  0  0  0  0  0  0  0  0
   19.4158   20.8796   26.1118 H   0  0  0  0  0  0  0  0  0  0  0  0
   19.4746   19.3112   27.5908 C   0  0  0  0  0  0  0  0  0  0  0  0
   18.3993   19.3095   27.7885 H   0  0  0  0  0  0  0  0  0  0  0  0
   19.9537   19.9763   28.3144 H   0  0  0  0  0  0  0  0  0  0  0  0
   20.0002   17.9105   27.8358 N   0  3  0  0  0  0  0  0  0  0  0  0
   19.5628   17.2267   27.2103 H   0  0  0  0  0  0  0  0  0  0  0  0
   19.8191   17.5985   28.7963 H   0  0  0  0  0  0  0  0  0  0  0  0
   21.0131   17.8529   27.6878 H   0  0  0  0  0  0  0  0  0  0  0  0
  1  2  1  0  0  0  0
  1  3  1  0  0  0  0
  1  4  1  0  0  0  0
  1  5  1  0  0  0  0
  5  6  1  0  0  0  0
  5  7  1  0  0  0  0
  5  8  1  0  0  0  0
  8  9  1  0  0  0  0
  8 10  1  0  0  0  0
  8 11  1  0  0  0  0
 11 12  1  0  0  0  0
 11 13  1  0  0  0  0
 11 14  1  0  0  0  0
 14 15  1  0  0  0  0
 14 16  1  0  0  0  0
 14 17  1  0  0  0  0
 17 18  1  0  0  0  0
 17 19  1  0  0  0  0
 17 20  1  0  0  0  0
 20 21  1  0  0  0  0
 20 22  1  0  0  0  0
 20 23  1  0  0  0  0
 23 24  1  0  0  0  0
 23 25  1  0  0  0  0
 23 26  1  0  0  0  0
 26 27  1  0  0  0  0
 26 28  1  0  0  0  0
 26 29  1  0  0  0  0
M  END
> <VM2 Rank>
81

> <Conf_Id>
1972

> <Probability>
0.37

> <Sum Probability>
77.73

> <Delta G>
1.602

> <G>
59.750

> <E>
22.030

> <-TS>
37.720

> <U+W>
-2.115

> <U>
49.569

> <W>
-51.684

> <W(PB)>
-54.164

> <W(SA)>
2.480

> <Valence>
3.641

> <Coulomb>
45.000

> <VdW>
0.928

> <VdW6>
-9.033

> <VdW12>
9.961

> <Bond>
0.244

> <Angle>
1.081

> <Pdih>
2.316

> <Idih>
0.000

> <Tether>
0.000

$$$$
VeraChem MOL file


 29 28  0  0  0  0  0  0  0  0999 V2000     
   19.7821   18.9537   19.4885 C   0  0  0  0  0  0  0  0  0  0  0  0
   20.8282   18.6215   19.5067 H   0  0  0  0  0  0  0  0  0  0  0  0
   19.3704   18.7118   18.5001 H   0  0  0  0  0  0  0  0  0  0  0  0
   19.7656   20.0455   19.5932 H   0  0  0  0  0  0  0  0  0  0  0  0
   18.9599   18.2625   20.5999 C   0  0  0  0  0  0  0  0  0  0  0  0
   18.9007   17.1879   20.3773 H   0  0  0  0  0  0  0  0  0  0  0  0
   17.9269   18.6370   20.5836 H   0  0  0  0  0  0  0  0  0  0  0  0
   19.5600   18.4423   22.0154 C   0  0  0  0  0  0  0  0  0  0  0  0
   18.9907   17.8081   22.7067 H   0  0  0  0  0  0  0  0  0  0  0  0
   20.5920   18.0657   22.0266 H   0  0  0  0  0  0  0  0  0  0  0  0
   19.5326   19.9093   22.5149 C   0  0  0  0  0  0  0  0  0  0  0  0
   18.5001   20.2847   22.5081 H   0  0  0  0  0  0  0  0  0  0  0  0
   20.0961   20.5422   21.8174 H   0  0  0  0  0  0  0  0  0  0  0  0
   20.1429   20.0951   23.9262 C   0  0  0  0  0  0  0  0  0  0  0  0
   21.1740   19.7155   23.9340 H   0  0  0  0  0  0  0  0  0  0  0  0
   20.2096   21.1719   24.1347 H   0  0  0  0  0  0  0  0  0  0  0  0
   19.3262   19.4155   25.0517 C   0  0  0  0  0  0  0  0  0  0  0  0
   19.3167   18.3294   24.8986 H   0  0  0  0  0  0  0  0  0  0  0  0
   18.2825   19.7559   25.0046 H   0  0  0  0  0  0  0  0  0  0  0  0
   19.9076   19.7320   26.4500 C   0  0  0  0  0  0  0  0  0  0  0  0
   20.9428   19.3714   26.5174 H   0  0  0  0  0  0  0  0  0  0  0  0
   19.9451   20.8204   26.5910 H   0  0  0  0  0  0  0  0  0  0  0  0
   19.0745   19.1217   27.5935 C   0  0  0  0  0  0  0  0  0  0  0  0
   18.0412   19.4723   27.5240 H   0  0  0  0  0  0  0  0  0  0  0  0
   19.4820   19.4493   28.5538 H   0  0  0  0  0  0  0  0  0  0  0  0
   19.0581   17.6058   27.5948 N   0  3  0  0  0  0  0  0  0  0  0  0
   18.6513   17.2302   26.7324 H   0  0  0  0  0  0  0  0  0  0  0  0
   18.5067   17.2318   28.3751 H   0  0  0  0  0  0  0  0  0  0  0  0
   20.0022   17.2152   27.6806 H   0  0  0  0  0  0  0  0  0  0  0  0
  1  2  1  0  0  0  0
  1  3  1  0  0  0  0
  1  4  1  0  0  0  0
  1  5  1  0  0  0  0
  5  6  1  0  0  0  0
  5  7  1  0  0  0  0
  5  8  1  0  0  0  0
  8  9  1  0  0  0  0
  8 10  1  0  0  0  0
  8 11  1  0  0  0  0
 11 12  1  0  0  0  0
 11 13  1  0  0  0  0
 11 14  1  0  0  0  0
 14 15  1  0  0  0  0
 14 16  1  0  0  0  0
 14 17  1  0  0  0  0
 17 18  1  0  0  0  0
 17 19  1  0  0  0  0
 17 20  1  0  0  0  0
 20 21  1  0  0  0  0
 20 22  1  0  0  0  0
 20 23  1  0  0  0  0
 23 24  1  0  0  0  0
 23 25  1  0  0  0  0
 23 26  1  0  0  0  0
 26 27  1  0  0  0  0
 26 28  1  0  0  0  0
 26 29  1  0  0  0  0
M  END
> <VM2 Rank>
82

> <Conf_Id>
235

> <Probability>
0.36

> <Sum Probability>
78.10

> <Delta G>
1.608

> <G>
59.756

> <E>
22.321

> <-TS>
37.435

> <U+W>
-1.824

> <U>
50.173

> <W>
-51.996

> <W(PB)>
-54.483

> <W(SA)>
2.487

> <Valence>
3.804

> <Coulomb>
45.246

> <VdW>
1.123

> <VdW6>
-8.691

> <VdW12>
9.815

> <Bond>
0.250

> <Angle>
0.987

> <Pdih>
2.567

> <Idih>
0.000

> <Tether>
0.000

$$$$
VeraChem MOL file


 29 28  0  0  0  0  0  0  0  0999 V2000     
   19.7098   19.2128   19.4520 C   0  0  0  0  0  0  0  0  0  0  0  0
   20.6556   19.7124   19.6952 H   0  0  0  0  0  0  0  0  0  0  0  0
   19.9101   18.1419   19.3182 H   0  0  0  0  0  0  0  0  0  0  0  0
   19.3647   19.6124   18.4896 H   0  0  0  0  0  0  0  0  0  0  0  0
   18.6445   19.4465   20.5471 C   0  0  0  0  0  0  0  0  0  0  0  0
   17.6854   19.0391   20.1979 H   0  0  0  0  0  0  0  0  0  0  0  0
   18.4874   20.5252   20.6868 H   0  0  0  0  0  0  0  0  0  0  0  0
   18.9972   18.7887   21.9032 C   0  0  0  0  0  0  0  0  0  0  0  0
   18.1279   18.8914   22.5650 H   0  0  0  0  0  0  0  0  0  0  0  0
   19.1517   17.7107   21.7584 H   0  0  0  0  0  0  0  0  0  0  0  0
   20.2437   19.4094   22.5839 C   0  0  0  0  0  0  0  0  0  0  0  0
   20.0881   20.4868   22.7317 H   0  0  0  0  0  0  0  0  0  0  0  0
   21.1100   19.3109   21.9173 H   0  0  0  0  0  0  0  0  0  0  0  0
   20.6050   18.7470   23.9363 C   0  0  0  0  0  0  0  0  0  0  0  0
   20.7598   17.6693   23.7880 H   0  0  0  0  0  0  0  0  0  0  0  0
   21.5686   19.1530   24.2740 H   0  0  0  0  0  0  0  0  0  0  0  0
   19.5485   18.9772   25.0436 C   0  0  0  0  0  0  0  0  0  0  0  0
   18.5995   18.5023   24.7624 H   0  0  0  0  0  0  0  0  0  0  0  0
   19.3533   20.0535   25.1392 H   0  0  0  0  0  0  0  0  0  0  0  0
   20.0129   18.4046   26.4037 C   0  0  0  0  0  0  0  0  0  0  0  0
   20.2454   17.3375   26.2882 H   0  0  0  0  0  0  0  0  0  0  0  0
   20.9424   18.8954   26.7217 H   0  0  0  0  0  0  0  0  0  0  0  0
   18.9485   18.5554   27.5075 C   0  0  0  0  0  0  0  0  0  0  0  0
   19.2978   18.0615   28.4183 H   0  0  0  0  0  0  0  0  0  0  0  0
   18.0198   18.0723   27.1919 H   0  0  0  0  0  0  0  0  0  0  0  0
   18.6339   19.9964   27.8578 N   0  3  0  0  0  0  0  0  0  0  0  0
   17.9315   20.0625   28.6027 H   0  0  0  0  0  0  0  0  0  0  0  0
   18.2660   20.5109   27.0514 H   0  0  0  0  0  0  0  0  0  0  0  0
   19.4658   20.4988   28.1845 H   0  0  0  0  0  0  0  0  0  0  0  0
  1  2  1  0  0  0  0
  1  3  1  0  0  0  0
  1  4  1  0  0  0  0
  1  5  1  0  0  0  0
  5  6  1  0  0  0  0
  5  7  1  0  0  0  0
  5  8  1  0  0  0  0
  8  9  1  0  0  0  0
  8 10  1  0  0  0  0
  8 11  1  0  0  0  0
 11 12  1  0  0  0  0
 11 13  1  0  0  0  0
 11 14  1  0  0  0  0
 14 15  1  0  0  0  0
 14 16  1  0  0  0  0
 14 17  1  0  0  0  0
 17 18  1  0  0  0  0
 17 19  1  0  0  0  0
 17 20  1  0  0  0  0
 20 21  1  0  0  0  0
 20 22  1  0  0  0  0
 20 23  1  0  0  0  0
 23 24  1  0  0  0  0
 23 25  1  0  0  0  0
 23 26  1  0  0  0  0
 26 27  1  0  0  0  0
 26 28  1  0  0  0  0
 26 29  1  0  0  0  0
M  END
> <VM2 Rank>
83

> <Conf_Id>
541

> <Probability>
0.36

> <Sum Probability>
78.46

> <Delta G>
1.609

> <G>
59.757

> <E>
22.313

> <-TS>
37.444

> <U+W>
-1.831

> <U>
49.938

> <W>
-51.769

> <W(PB)>
-54.249

> <W(SA)>
2.481

> <Valence>
3.804

> <Coulomb>
45.009

> <VdW>
1.125

> <VdW6>
-8.684

> <VdW12>
9.808

> <Bond>
0.248

> <Angle>
0.989

> <Pdih>
2.567

> <Idih>
0.000

> <Tether>
0.000

$$$$
VeraChem MOL file


 29 28  0  0  0  0  0  0  0  0999 V2000     
   21.0625   19.4367   20.2539 C   0  0  0  0  0  0  0  0  0  0  0  0
   21.2417   18.3859   19.9919 H   0  0  0  0  0  0  0  0  0  0  0  0
   21.4966   20.0594   19.4610 H   0  0  0  0  0  0  0  0  0  0  0  0
   21.6055   19.6578   21.1812 H   0  0  0  0  0  0  0  0  0  0  0  0
   19.5507   19.7229   20.3995 C   0  0  0  0  0  0  0  0  0  0  0  0
   19.0719   19.6048   19.4174 H   0  0  0  0  0  0  0  0  0  0  0  0
   19.3995   20.7715   20.6912 H   0  0  0  0  0  0  0  0  0  0  0  0
   18.8430   18.7906   21.4121 C   0  0  0  0  0  0  0  0  0  0  0  0
   17.7629   18.9884   21.3725 H   0  0  0  0  0  0  0  0  0  0  0  0
   18.9774   17.7447   21.1033 H   0  0  0  0  0  0  0  0  0  0  0  0
   19.3366   18.9731   22.8673 C   0  0  0  0  0  0  0  0  0  0  0  0
   19.2533   20.0322   23.1438 H   0  0  0  0  0  0  0  0  0  0  0  0
   20.3988   18.7048   22.9375 H   0  0  0  0  0  0  0  0  0  0  0  0
   18.5272   18.1028   23.8585 C   0  0  0  0  0  0  0  0  0  0  0  0
   17.4707   18.4039   23.8397 H   0  0  0  0  0  0  0  0  0  0  0  0
   18.5559   17.0572   23.5220 H   0  0  0  0  0  0  0  0  0  0  0  0
   19.0583   18.1652   25.3116 C   0  0  0  0  0  0  0  0  0  0  0  0
   20.1066   17.8385   25.3285 H   0  0  0  0  0  0  0  0  0  0  0  0
   18.4979   17.4407   25.9186 H   0  0  0  0  0  0  0  0  0  0  0  0
   18.9283   19.5679   25.9558 C   0  0  0  0  0  0  0  0  0  0  0  0
   19.5649   20.2918   25.4315 H   0  0  0  0  0  0  0  0  0  0  0  0
   17.8944   19.9225   25.8509 H   0  0  0  0  0  0  0  0  0  0  0  0
   19.2944   19.5670   27.4523 C   0  0  0  0  0  0  0  0  0  0  0  0
   18.6639   18.8502   27.9851 H   0  0  0  0  0  0  0  0  0  0  0  0
   19.1118   20.5601   27.8717 H   0  0  0  0  0  0  0  0  0  0  0  0
   20.7430   19.2118   27.7240 N   0  3  0  0  0  0  0  0  0  0  0  0
   21.3871   19.8660   27.2676 H   0  0  0  0  0  0  0  0  0  0  0  0
   20.9727   18.2727   27.3838 H   0  0  0  0  0  0  0  0  0  0  0  0
   20.9577   19.2294   28.7270 H   0  0  0  0  0  0  0  0  0  0  0  0
  1  2  1  0  0  0  0
  1  3  1  0  0  0  0
  1  4  1  0  0  0  0
  1  5  1  0  0  0  0
  5  6  1  0  0  0  0
  5  7  1  0  0  0  0
  5  8  1  0  0  0  0
  8  9  1  0  0  0  0
  8 10  1  0  0  0  0
  8 11  1  0  0  0  0
 11 12  1  0  0  0  0
 11 13  1  0  0  0  0
 11 14  1  0  0  0  0
 14 15  1  0  0  0  0
 14 16  1  0  0  0  0
 14 17  1  0  0  0  0
 17 18  1  0  0  0  0
 17 19  1  0  0  0  0
 17 20  1  0  0  0  0
 20 21  1  0  0  0  0
 20 22  1  0  0  0  0
 20 23  1  0  0  0  0
 23 24  1  0  0  0  0
 23 25  1  0  0  0  0
 23 26  1  0  0  0  0
 26 27  1  0  0  0  0
 26 28  1  0  0  0  0
 26 29  1  0  0  0  0
M  END
> <VM2 Rank>
84

> <Conf_Id>
2321

> <Probability>
0.36

> <Sum Probability>
78.82

> <Delta G>
1.609

> <G>
59.757

> <E>
22.244

> <-TS>
37.513

> <U+W>
-1.901

> <U>
49.857

> <W>
-51.757

> <W(PB)>
-54.269

> <W(SA)>
2.511

> <Valence>
3.719

> <Coulomb>
45.090

> <VdW>
1.048

> <VdW6>
-8.764

> <VdW12>
9.812

> <Bond>
0.239

> <Angle>
0.912

> <Pdih>
2.568

> <Idih>
0.000

> <Tether>
0.000

$$$$
VeraChem MOL file


 29 28  0  0  0  0  0  0  0  0999 V2000     
   19.2712   18.9869   19.2662 C   0  0  0  0  0  0  0  0  0  0  0  0
   19.7200   18.0450   18.9248 H   0  0  0  0  0  0  0  0  0  0  0  0
   18.3199   19.1190   18.7347 H   0  0  0  0  0  0  0  0  0  0  0  0
   19.9376   19.8090   18.9741 H   0  0  0  0  0  0  0  0  0  0  0  0
   19.0451   18.9729   20.7929 C   0  0  0  0  0  0  0  0  0  0  0  0
   18.3524   18.1597   21.0510 H   0  0  0  0  0  0  0  0  0  0  0  0
   18.5594   19.9118   21.0898 H   0  0  0  0  0  0  0  0  0  0  0  0
   20.3737   18.7919   21.5642 C   0  0  0  0  0  0  0  0  0  0  0  0
   20.8792   17.8878   21.1977 H   0  0  0  0  0  0  0  0  0  0  0  0
   21.0470   19.6318   21.3443 H   0  0  0  0  0  0  0  0  0  0  0  0
   20.1866   18.6632   23.0957 C   0  0  0  0  0  0  0  0  0  0  0  0
   21.1609   18.4301   23.5469 H   0  0  0  0  0  0  0  0  0  0  0  0
   19.5334   17.8064   23.3073 H   0  0  0  0  0  0  0  0  0  0  0  0
   19.6170   19.9440   23.7563 C   0  0  0  0  0  0  0  0  0  0  0  0
   20.2103   20.8096   23.4308 H   0  0  0  0  0  0  0  0  0  0  0  0
   18.5907   20.1232   23.4100 H   0  0  0  0  0  0  0  0  0  0  0  0
   19.6290   19.8939   25.3037 C   0  0  0  0  0  0  0  0  0  0  0  0
   19.3062   20.8719   25.6869 H   0  0  0  0  0  0  0  0  0  0  0  0
   20.6597   19.7488   25.6537 H   0  0  0  0  0  0  0  0  0  0  0  0
   18.7087   18.7946   25.8901 C   0  0  0  0  0  0  0  0  0  0  0  0
   17.7016   18.8976   25.4647 H   0  0  0  0  0  0  0  0  0  0  0  0
   19.0709   17.7987   25.6053 H   0  0  0  0  0  0  0  0  0  0  0  0
   18.6002   18.8714   27.4250 C   0  0  0  0  0  0  0  0  0  0  0  0
   17.8817   18.1259   27.7763 H   0  0  0  0  0  0  0  0  0  0  0  0
   18.2379   19.8601   27.7195 H   0  0  0  0  0  0  0  0  0  0  0  0
   19.9125   18.6192   28.1409 N   0  3  0  0  0  0  0  0  0  0  0  0
   20.2931   17.6926   27.9224 H   0  0  0  0  0  0  0  0  0  0  0  0
   19.8057   18.6673   29.1601 H   0  0  0  0  0  0  0  0  0  0  0  0
   20.6246   19.3087   27.8804 H   0  0  0  0  0  0  0  0  0  0  0  0
  1  2  1  0  0  0  0
  1  3  1  0  0  0  0
  1  4  1  0  0  0  0
  1  5  1  0  0  0  0
  5  6  1  0  0  0  0
  5  7  1  0  0  0  0
  5  8  1  0  0  0  0
  8  9  1  0  0  0  0
  8 10  1  0  0  0  0
  8 11  1  0  0  0  0
 11 12  1  0  0  0  0
 11 13  1  0  0  0  0
 11 14  1  0  0  0  0
 14 15  1  0  0  0  0
 14 16  1  0  0  0  0
 14 17  1  0  0  0  0
 17 18  1  0  0  0  0
 17 19  1  0  0  0  0
 17 20  1  0  0  0  0
 20 21  1  0  0  0  0
 20 22  1  0  0  0  0
 20 23  1  0  0  0  0
 23 24  1  0  0  0  0
 23 25  1  0  0  0  0
 23 26  1  0  0  0  0
 26 27  1  0  0  0  0
 26 28  1  0  0  0  0
 26 29  1  0  0  0  0
M  END
> <VM2 Rank>
85

> <Conf_Id>
1970

> <Probability>
0.35

> <Sum Probability>
79.17

> <Delta G>
1.620

> <G>
59.768

> <E>
22.241

> <-TS>
37.527

> <U+W>
-1.904

> <U>
49.798

> <W>
-51.702

> <W(PB)>
-54.200

> <W(SA)>
2.498

> <Valence>
3.728

> <Coulomb>
45.048

> <VdW>
1.022

> <VdW6>
-8.813

> <VdW12>
9.835

> <Bond>
0.243

> <Angle>
0.890

> <Pdih>
2.595

> <Idih>
0.000

> <Tether>
0.000

$$$$
VeraChem MOL file


 29 28  0  0  0  0  0  0  0  0999 V2000     
   20.8127   19.8833   20.0010 C   0  0  0  0  0  0  0  0  0  0  0  0
   21.2828   18.9325   19.7178 H   0  0  0  0  0  0  0  0  0  0  0  0
   20.6506   20.4654   19.0845 H   0  0  0  0  0  0  0  0  0  0  0  0
   21.5181   20.4387   20.6328 H   0  0  0  0  0  0  0  0  0  0  0  0
   19.4779   19.6440   20.7378 C   0  0  0  0  0  0  0  0  0  0  0  0
   18.7820   19.1179   20.0693 H   0  0  0  0  0  0  0  0  0  0  0  0
   19.0158   20.6116   20.9788 H   0  0  0  0  0  0  0  0  0  0  0  0
   19.6781   18.8254   22.0322 C   0  0  0  0  0  0  0  0  0  0  0  0
   20.1372   17.8579   21.7867 H   0  0  0  0  0  0  0  0  0  0  0  0
   20.3818   19.3567   22.6862 H   0  0  0  0  0  0  0  0  0  0  0  0
   18.3414   18.5900   22.7754 C   0  0  0  0  0  0  0  0  0  0  0  0
   17.6254   18.1253   22.0837 H   0  0  0  0  0  0  0  0  0  0  0  0
   17.9000   19.5538   23.0613 H   0  0  0  0  0  0  0  0  0  0  0  0
   18.4758   17.6766   24.0214 C   0  0  0  0  0  0  0  0  0  0  0  0
   17.4814   17.5430   24.4690 H   0  0  0  0  0  0  0  0  0  0  0  0
   18.7943   16.6769   23.6953 H   0  0  0  0  0  0  0  0  0  0  0  0
   19.4552   18.1775   25.1145 C   0  0  0  0  0  0  0  0  0  0  0  0
   20.4791   18.2027   24.7185 H   0  0  0  0  0  0  0  0  0  0  0  0
   19.4643   17.4372   25.9253 H   0  0  0  0  0  0  0  0  0  0  0  0
   19.0827   19.5665   25.6905 C   0  0  0  0  0  0  0  0  0  0  0  0
   19.1143   20.3191   24.8928 H   0  0  0  0  0  0  0  0  0  0  0  0
   18.0526   19.5526   26.0706 H   0  0  0  0  0  0  0  0  0  0  0  0
   20.0388   20.0210   26.8100 C   0  0  0  0  0  0  0  0  0  0  0  0
   19.7875   21.0425   27.1083 H   0  0  0  0  0  0  0  0  0  0  0  0
   21.0675   20.0170   26.4399 H   0  0  0  0  0  0  0  0  0  0  0  0
   19.9815   19.1538   28.0523 N   0  3  0  0  0  0  0  0  0  0  0  0
   20.6188   19.4913   28.7820 H   0  0  0  0  0  0  0  0  0  0  0  0
   20.2430   18.1838   27.8502 H   0  0  0  0  0  0  0  0  0  0  0  0
   19.0410   19.1357   28.4603 H   0  0  0  0  0  0  0  0  0  0  0  0
  1  2  1  0  0  0  0
  1  3  1  0  0  0  0
  1  4  1  0  0  0  0
  1  5  1  0  0  0  0
  5  6  1  0  0  0  0
  5  7  1  0  0  0  0
  5  8  1  0  0  0  0
  8  9  1  0  0  0  0
  8 10  1  0  0  0  0
  8 11  1  0  0  0  0
 11 12  1  0  0  0  0
 11 13  1  0  0  0  0
 11 14  1  0  0  0  0
 14 15  1  0  0  0  0
 14 16  1  0  0  0  0
 14 17  1  0  0  0  0
 17 18  1  0  0  0  0
 17 19  1  0  0  0  0
 17 20  1  0  0  0  0
 20 21  1  0  0  0  0
 20 22  1  0  0  0  0
 20 23  1  0  0  0  0
 23 24  1  0  0  0  0
 23 25  1  0  0  0  0
 23 26  1  0  0  0  0
 26 27  1  0  0  0  0
 26 28  1  0  0  0  0
 26 29  1  0  0  0  0
M  END
> <VM2 Rank>
86

> <Conf_Id>
2611

> <Probability>
0.35

> <Sum Probability>
79.53

> <Delta G>
1.621

> <G>
59.769

> <E>
22.037

> <-TS>
37.732

> <U+W>
-2.108

> <U>
49.725

> <W>
-51.832

> <W(PB)>
-54.326

> <W(SA)>
2.493

> <Valence>
3.695

> <Coulomb>
45.138

> <VdW>
0.892

> <VdW6>
-9.155

> <VdW12>
10.047

> <Bond>
0.255

> <Angle>
1.154

> <Pdih>
2.287

> <Idih>
0.000

> <Tether>
0.000

$$$$
VeraChem MOL file


 29 28  0  0  0  0  0  0  0  0999 V2000     
   20.3716   20.3297   20.2156 C   0  0  0  0  0  0  0  0  0  0  0  0
   20.2458   21.0045   21.0714 H   0  0  0  0  0  0  0  0  0  0  0  0
   21.3847   19.9088   20.2547 H   0  0  0  0  0  0  0  0  0  0  0  0
   20.2948   20.9360   19.3038 H   0  0  0  0  0  0  0  0  0  0  0  0
   19.3049   19.2113   20.2126 C   0  0  0  0  0  0  0  0  0  0  0  0
   19.3938   18.6403   19.2778 H   0  0  0  0  0  0  0  0  0  0  0  0
   18.3009   19.6581   20.2057 H   0  0  0  0  0  0  0  0  0  0  0  0
   19.4344   18.2336   21.4054 C   0  0  0  0  0  0  0  0  0  0  0  0
   18.7166   17.4140   21.2629 H   0  0  0  0  0  0  0  0  0  0  0  0
   20.4329   17.7750   21.3973 H   0  0  0  0  0  0  0  0  0  0  0  0
   19.1771   18.8986   22.7789 C   0  0  0  0  0  0  0  0  0  0  0  0
   18.1979   19.3967   22.7669 H   0  0  0  0  0  0  0  0  0  0  0  0
   19.9309   19.6755   22.9544 H   0  0  0  0  0  0  0  0  0  0  0  0
   19.2179   17.8657   23.9308 C   0  0  0  0  0  0  0  0  0  0  0  0
   18.5123   17.0535   23.7072 H   0  0  0  0  0  0  0  0  0  0  0  0
   20.2137   17.4039   23.9797 H   0  0  0  0  0  0  0  0  0  0  0  0
   18.8537   18.4614   25.3131 C   0  0  0  0  0  0  0  0  0  0  0  0
   18.7799   17.6346   26.0319 H   0  0  0  0  0  0  0  0  0  0  0  0
   17.8557   18.9187   25.2651 H   0  0  0  0  0  0  0  0  0  0  0  0
   19.8798   19.5012   25.8294 C   0  0  0  0  0  0  0  0  0  0  0  0
   20.8849   19.0594   25.8523 H   0  0  0  0  0  0  0  0  0  0  0  0
   19.9259   20.3528   25.1395 H   0  0  0  0  0  0  0  0  0  0  0  0
   19.5243   20.0424   27.2276 C   0  0  0  0  0  0  0  0  0  0  0  0
   18.5161   20.4651   27.2134 H   0  0  0  0  0  0  0  0  0  0  0  0
   20.2241   20.8383   27.4965 H   0  0  0  0  0  0  0  0  0  0  0  0
   19.5804   18.9942   28.3215 N   0  3  0  0  0  0  0  0  0  0  0  0
   19.3523   19.3900   29.2402 H   0  0  0  0  0  0  0  0  0  0  0  0
   20.5127   18.5746   28.3989 H   0  0  0  0  0  0  0  0  0  0  0  0
   18.9178   18.2313   28.1505 H   0  0  0  0  0  0  0  0  0  0  0  0
  1  2  1  0  0  0  0
  1  3  1  0  0  0  0
  1  4  1  0  0  0  0
  1  5  1  0  0  0  0
  5  6  1  0  0  0  0
  5  7  1  0  0  0  0
  5  8  1  0  0  0  0
  8  9  1  0  0  0  0
  8 10  1  0  0  0  0
  8 11  1  0  0  0  0
 11 12  1  0  0  0  0
 11 13  1  0  0  0  0
 11 14  1  0  0  0  0
 14 15  1  0  0  0  0
 14 16  1  0  0  0  0
 14 17  1  0  0  0  0
 17 18  1  0  0  0  0
 17 19  1  0  0  0  0
 17 20  1  0  0  0  0
 20 21  1  0  0  0  0
 20 22  1  0  0  0  0
 20 23  1  0  0  0  0
 23 24  1  0  0  0  0
 23 25  1  0  0  0  0
 23 26  1  0  0  0  0
 26 27  1  0  0  0  0
 26 28  1  0  0  0  0
 26 29  1  0  0  0  0
M  END
> <VM2 Rank>
87

> <Conf_Id>
426

> <Probability>
0.35

> <Sum Probability>
79.88

> <Delta G>
1.621

> <G>
59.769

> <E>
22.295

> <-TS>
37.474

> <U+W>
-1.849

> <U>
49.690

> <W>
-51.539

> <W(PB)>
-54.030

> <W(SA)>
2.490

> <Valence>
3.753

> <Coulomb>
44.825

> <VdW>
1.112

> <VdW6>
-8.728

> <VdW12>
9.840

> <Bond>
0.247

> <Angle>
0.961

> <Pdih>
2.545

> <Idih>
0.000

> <Tether>
0.000

$$$$
VeraChem MOL file


 29 28  0  0  0  0  0  0  0  0999 V2000     
   20.0485   17.7370   19.9532 C   0  0  0  0  0  0  0  0  0  0  0  0
   21.0174   18.1874   19.7012 H   0  0  0  0  0  0  0  0  0  0  0  0
   20.2354   16.8364   20.5525 H   0  0  0  0  0  0  0  0  0  0  0  0
   19.5680   17.4250   19.0168 H   0  0  0  0  0  0  0  0  0  0  0  0
   19.1546   18.7363   20.7176 C   0  0  0  0  0  0  0  0  0  0  0  0
   18.1819   18.2695   20.9267 H   0  0  0  0  0  0  0  0  0  0  0  0
   18.9570   19.6097   20.0803 H   0  0  0  0  0  0  0  0  0  0  0  0
   19.8088   19.1925   22.0404 C   0  0  0  0  0  0  0  0  0  0  0  0
   20.0093   18.3106   22.6629 H   0  0  0  0  0  0  0  0  0  0  0  0
   20.7793   19.6611   21.8269 H   0  0  0  0  0  0  0  0  0  0  0  0
   18.9110   20.1896   22.8111 C   0  0  0  0  0  0  0  0  0  0  0  0
   17.9560   19.7110   23.0649 H   0  0  0  0  0  0  0  0  0  0  0  0
   18.6594   21.0291   22.1485 H   0  0  0  0  0  0  0  0  0  0  0  0
   19.5746   20.7625   24.0903 C   0  0  0  0  0  0  0  0  0  0  0  0
   20.4576   21.3482   23.7996 H   0  0  0  0  0  0  0  0  0  0  0  0
   18.8819   21.4764   24.5569 H   0  0  0  0  0  0  0  0  0  0  0  0
   20.0019   19.7127   25.1488 C   0  0  0  0  0  0  0  0  0  0  0  0
   20.4650   20.2480   25.9881 H   0  0  0  0  0  0  0  0  0  0  0  0
   20.7852   19.0622   24.7377 H   0  0  0  0  0  0  0  0  0  0  0  0
   18.8276   18.8498   25.6744 C   0  0  0  0  0  0  0  0  0  0  0  0
   18.0325   19.4960   26.0691 H   0  0  0  0  0  0  0  0  0  0  0  0
   18.3881   18.2787   24.8470 H   0  0  0  0  0  0  0  0  0  0  0  0
   19.2657   17.8496   26.7615 C   0  0  0  0  0  0  0  0  0  0  0  0
   20.0711   17.2176   26.3775 H   0  0  0  0  0  0  0  0  0  0  0  0
   18.4216   17.2055   27.0223 H   0  0  0  0  0  0  0  0  0  0  0  0
   19.7513   18.5080   28.0379 N   0  3  0  0  0  0  0  0  0  0  0  0
   19.0278   19.0997   28.4595 H   0  0  0  0  0  0  0  0  0  0  0  0
   20.5695   19.1020   27.8709 H   0  0  0  0  0  0  0  0  0  0  0  0
   20.0218   17.8152   28.7446 H   0  0  0  0  0  0  0  0  0  0  0  0
  1  2  1  0  0  0  0
  1  3  1  0  0  0  0
  1  4  1  0  0  0  0
  1  5  1  0  0  0  0
  5  6  1  0  0  0  0
  5  7  1  0  0  0  0
  5  8  1  0  0  0  0
  8  9  1  0  0  0  0
  8 10  1  0  0  0  0
  8 11  1  0  0  0  0
 11 12  1  0  0  0  0
 11 13  1  0  0  0  0
 11 14  1  0  0  0  0
 14 15  1  0  0  0  0
 14 16  1  0  0  0  0
 14 17  1  0  0  0  0
 17 18  1  0  0  0  0
 17 19  1  0  0  0  0
 17 20  1  0  0  0  0
 20 21  1  0  0  0  0
 20 22  1  0  0  0  0
 20 23  1  0  0  0  0
 23 24  1  0  0  0  0
 23 25  1  0  0  0  0
 23 26  1  0  0  0  0
 26 27  1  0  0  0  0
 26 28  1  0  0  0  0
 26 29  1  0  0  0  0
M  END
> <VM2 Rank>
88

> <Conf_Id>
291

> <Probability>
0.35

> <Sum Probability>
80.23

> <Delta G>
1.627

> <G>
59.775

> <E>
22.043

> <-TS>
37.732

> <U+W>
-2.102

> <U>
49.725

> <W>
-51.827

> <W(PB)>
-54.310

> <W(SA)>
2.483

> <Valence>
3.695

> <Coulomb>
45.138

> <VdW>
0.892

> <VdW6>
-9.156

> <VdW12>
10.047

> <Bond>
0.255

> <Angle>
1.154

> <Pdih>
2.287

> <Idih>
0.000

> <Tether>
0.000

$$$$
VeraChem MOL file


 29 28  0  0  0  0  0  0  0  0999 V2000     
   20.8125   19.0882   19.9284 C   0  0  0  0  0  0  0  0  0  0  0  0
   21.6268   18.4935   20.3624 H   0  0  0  0  0  0  0  0  0  0  0  0
   20.1553   18.4107   19.3677 H   0  0  0  0  0  0  0  0  0  0  0  0
   21.2549   19.7957   19.2150 H   0  0  0  0  0  0  0  0  0  0  0  0
   20.0284   19.8392   21.0253 C   0  0  0  0  0  0  0  0  0  0  0  0
   19.2441   20.4512   20.5583 H   0  0  0  0  0  0  0  0  0  0  0  0
   20.7036   20.5322   21.5465 H   0  0  0  0  0  0  0  0  0  0  0  0
   19.3943   18.8655   22.0429 C   0  0  0  0  0  0  0  0  0  0  0  0
   18.7184   18.1761   21.5185 H   0  0  0  0  0  0  0  0  0  0  0  0
   20.1861   18.2541   22.4950 H   0  0  0  0  0  0  0  0  0  0  0  0
   18.6122   19.6172   23.1462 C   0  0  0  0  0  0  0  0  0  0  0  0
   17.8673   20.2717   22.6730 H   0  0  0  0  0  0  0  0  0  0  0  0
   19.2912   20.2819   23.6964 H   0  0  0  0  0  0  0  0  0  0  0  0
   17.8762   18.6755   24.1338 C   0  0  0  0  0  0  0  0  0  0  0  0
   17.3064   19.2863   24.8470 H   0  0  0  0  0  0  0  0  0  0  0  0
   17.1266   18.0947   23.5788 H   0  0  0  0  0  0  0  0  0  0  0  0
   18.7877   17.6908   24.9147 C   0  0  0  0  0  0  0  0  0  0  0  0
   19.2231   16.9615   24.2188 H   0  0  0  0  0  0  0  0  0  0  0  0
   18.1617   17.1054   25.6023 H   0  0  0  0  0  0  0  0  0  0  0  0
   19.9256   18.3613   25.7235 C   0  0  0  0  0  0  0  0  0  0  0  0
   20.4933   17.5823   26.2495 H   0  0  0  0  0  0  0  0  0  0  0  0
   20.6329   18.8507   25.0418 H   0  0  0  0  0  0  0  0  0  0  0  0
   19.4018   19.3829   26.7495 C   0  0  0  0  0  0  0  0  0  0  0  0
   18.7086   18.8913   27.4373 H   0  0  0  0  0  0  0  0  0  0  0  0
   18.8654   20.1828   26.2325 H   0  0  0  0  0  0  0  0  0  0  0  0
   20.5053   20.0174   27.5707 N   0  3  0  0  0  0  0  0  0  0  0  0
   21.1785   20.5197   26.9826 H   0  0  0  0  0  0  0  0  0  0  0  0
   21.0329   19.3190   28.1049 H   0  0  0  0  0  0  0  0  0  0  0  0
   20.1355   20.6942   28.2473 H   0  0  0  0  0  0  0  0  0  0  0  0
  1  2  1  0  0  0  0
  1  3  1  0  0  0  0
  1  4  1  0  0  0  0
  1  5  1  0  0  0  0
  5  6  1  0  0  0  0
  5  7  1  0  0  0  0
  5  8  1  0  0  0  0
  8  9  1  0  0  0  0
  8 10  1  0  0  0  0
  8 11  1  0  0  0  0
 11 12  1  0  0  0  0
 11 13  1  0  0  0  0
 11 14  1  0  0  0  0
 14 15  1  0  0  0  0
 14 16  1  0  0  0  0
 14 17  1  0  0  0  0
 17 18  1  0  0  0  0
 17 19  1  0  0  0  0
 17 20  1  0  0  0  0
 20 21  1  0  0  0  0
 20 22  1  0  0  0  0
 20 23  1  0  0  0  0
 23 24  1  0  0  0  0
 23 25  1  0  0  0  0
 23 26  1  0  0  0  0
 26 27  1  0  0  0  0
 26 28  1  0  0  0  0
 26 29  1  0  0  0  0
M  END
> <VM2 Rank>
89

> <Conf_Id>
1429

> <Probability>
0.35

> <Sum Probability>
80.58

> <Delta G>
1.634

> <G>
59.782

> <E>
21.903

> <-TS>
37.879

> <U+W>
-2.241

> <U>
50.029

> <W>
-52.270

> <W(PB)>
-54.754

> <W(SA)>
2.484

> <Valence>
3.797

> <Coulomb>
45.605

> <VdW>
0.628

> <VdW6>
-9.561

> <VdW12>
10.189

> <Bond>
0.256

> <Angle>
1.236

> <Pdih>
2.305

> <Idih>
0.000

> <Tether>
0.000

$$$$
VeraChem MOL file


 29 28  0  0  0  0  0  0  0  0999 V2000     
   20.3071   19.2042   19.3786 C   0  0  0  0  0  0  0  0  0  0  0  0
   20.0351   19.6588   18.4172 H   0  0  0  0  0  0  0  0  0  0  0  0
   21.3005   19.5779   19.6592 H   0  0  0  0  0  0  0  0  0  0  0  0
   20.3795   18.1189   19.2298 H   0  0  0  0  0  0  0  0  0  0  0  0
   19.2598   19.5471   20.4592 C   0  0  0  0  0  0  0  0  0  0  0  0
   18.2718   19.1918   20.1344 H   0  0  0  0  0  0  0  0  0  0  0  0
   19.1862   20.6388   20.5623 H   0  0  0  0  0  0  0  0  0  0  0  0
   19.6186   18.9179   21.8236 C   0  0  0  0  0  0  0  0  0  0  0  0
   19.6887   17.8267   21.7160 H   0  0  0  0  0  0  0  0  0  0  0  0
   20.6108   19.2733   22.1306 H   0  0  0  0  0  0  0  0  0  0  0  0
   18.5712   19.2652   22.9088 C   0  0  0  0  0  0  0  0  0  0  0  0
   17.5747   18.9763   22.5470 H   0  0  0  0  0  0  0  0  0  0  0  0
   18.5405   20.3530   23.0602 H   0  0  0  0  0  0  0  0  0  0  0  0
   18.8221   18.5592   24.2639 C   0  0  0  0  0  0  0  0  0  0  0  0
   17.9606   18.7585   24.9146 H   0  0  0  0  0  0  0  0  0  0  0  0
   18.8487   17.4713   24.1119 H   0  0  0  0  0  0  0  0  0  0  0  0
   20.1221   19.0201   24.9708 C   0  0  0  0  0  0  0  0  0  0  0  0
   20.1111   20.1111   25.0948 H   0  0  0  0  0  0  0  0  0  0  0  0
   20.9873   18.7932   24.3347 H   0  0  0  0  0  0  0  0  0  0  0  0
   20.3449   18.3355   26.3429 C   0  0  0  0  0  0  0  0  0  0  0  0
   20.4294   17.2505   26.1963 H   0  0  0  0  0  0  0  0  0  0  0  0
   21.3067   18.6636   26.7590 H   0  0  0  0  0  0  0  0  0  0  0  0
   19.2317   18.6104   27.3742 C   0  0  0  0  0  0  0  0  0  0  0  0
   19.4573   18.0780   28.3022 H   0  0  0  0  0  0  0  0  0  0  0  0
   18.2756   18.2404   26.9953 H   0  0  0  0  0  0  0  0  0  0  0  0
   19.0665   20.0785   27.7131 N   0  3  0  0  0  0  0  0  0  0  0  0
   19.9268   20.4778   28.1022 H   0  0  0  0  0  0  0  0  0  0  0  0
   18.3250   20.2288   28.4060 H   0  0  0  0  0  0  0  0  0  0  0  0
   18.8226   20.6308   26.8850 H   0  0  0  0  0  0  0  0  0  0  0  0
  1  2  1  0  0  0  0
  1  3  1  0  0  0  0
  1  4  1  0  0  0  0
  1  5  1  0  0  0  0
  5  6  1  0  0  0  0
  5  7  1  0  0  0  0
  5  8  1  0  0  0  0
  8  9  1  0  0  0  0
  8 10  1  0  0  0  0
  8 11  1  0  0  0  0
 11 12  1  0  0  0  0
 11 13  1  0  0  0  0
 11 14  1  0  0  0  0
 14 15  1  0  0  0  0
 14 16  1  0  0  0  0
 14 17  1  0  0  0  0
 17 18  1  0  0  0  0
 17 19  1  0  0  0  0
 17 20  1  0  0  0  0
 20 21  1  0  0  0  0
 20 22  1  0  0  0  0
 20 23  1  0  0  0  0
 23 24  1  0  0  0  0
 23 25  1  0  0  0  0
 23 26  1  0  0  0  0
 26 27  1  0  0  0  0
 26 28  1  0  0  0  0
 26 29  1  0  0  0  0
M  END
> <VM2 Rank>
90

> <Conf_Id>
1603

> <Probability>
0.34

> <Sum Probability>
80.92

> <Delta G>
1.645

> <G>
59.793

> <E>
22.251

> <-TS>
37.542

> <U+W>
-1.893

> <U>
49.850

> <W>
-51.742

> <W(PB)>
-54.214

> <W(SA)>
2.472

> <Valence>
3.554

> <Coulomb>
45.337

> <VdW>
0.959

> <VdW6>
-8.885

> <VdW12>
9.844

> <Bond>
0.239

> <Angle>
0.938

> <Pdih>
2.377

> <Idih>
0.000

> <Tether>
0.000

$$$$
VeraChem MOL file


 29 28  0  0  0  0  0  0  0  0999 V2000     
   21.3162   19.1642   20.3647 C   0  0  0  0  0  0  0  0  0  0  0  0
   22.1214   19.2608   21.1047 H   0  0  0  0  0  0  0  0  0  0  0  0
   21.2703   18.1151   20.0442 H   0  0  0  0  0  0  0  0  0  0  0  0
   21.5863   19.7720   19.4914 H   0  0  0  0  0  0  0  0  0  0  0  0
   19.9651   19.6241   20.9518 C   0  0  0  0  0  0  0  0  0  0  0  0
   19.1874   19.5488   20.1788 H   0  0  0  0  0  0  0  0  0  0  0  0
   20.0316   20.6845   21.2327 H   0  0  0  0  0  0  0  0  0  0  0  0
   19.5609   18.7834   22.1828 C   0  0  0  0  0  0  0  0  0  0  0  0
   19.4922   17.7247   21.8972 H   0  0  0  0  0  0  0  0  0  0  0  0
   20.3499   18.8594   22.9422 H   0  0  0  0  0  0  0  0  0  0  0  0
   18.2097   19.2478   22.7769 C   0  0  0  0  0  0  0  0  0  0  0  0
   17.4482   19.2355   21.9850 H   0  0  0  0  0  0  0  0  0  0  0  0
   18.2870   20.2932   23.1036 H   0  0  0  0  0  0  0  0  0  0  0  0
   17.7087   18.3622   23.9471 C   0  0  0  0  0  0  0  0  0  0  0  0
   16.7349   18.7427   24.2849 H   0  0  0  0  0  0  0  0  0  0  0  0
   17.5197   17.3476   23.5700 H   0  0  0  0  0  0  0  0  0  0  0  0
   18.6627   18.2707   25.1659 C   0  0  0  0  0  0  0  0  0  0  0  0
   19.5939   17.7710   24.8699 H   0  0  0  0  0  0  0  0  0  0  0  0
   18.1978   17.6214   25.9207 H   0  0  0  0  0  0  0  0  0  0  0  0
   18.9751   19.6446   25.8091 C   0  0  0  0  0  0  0  0  0  0  0  0
   19.5291   20.2797   25.1061 H   0  0  0  0  0  0  0  0  0  0  0  0
   18.0338   20.1649   26.0303 H   0  0  0  0  0  0  0  0  0  0  0  0
   19.7817   19.5164   27.1154 C   0  0  0  0  0  0  0  0  0  0  0  0
   19.2384   18.8844   27.8230 H   0  0  0  0  0  0  0  0  0  0  0  0
   19.9041   20.5054   27.5652 H   0  0  0  0  0  0  0  0  0  0  0  0
   21.1639   18.9247   26.9214 N   0  3  0  0  0  0  0  0  0  0  0  0
   21.1192   17.9778   26.5322 H   0  0  0  0  0  0  0  0  0  0  0  0
   21.6784   18.8621   27.8068 H   0  0  0  0  0  0  0  0  0  0  0  0
   21.7333   19.4897   26.2828 H   0  0  0  0  0  0  0  0  0  0  0  0
  1  2  1  0  0  0  0
  1  3  1  0  0  0  0
  1  4  1  0  0  0  0
  1  5  1  0  0  0  0
  5  6  1  0  0  0  0
  5  7  1  0  0  0  0
  5  8  1  0  0  0  0
  8  9  1  0  0  0  0
  8 10  1  0  0  0  0
  8 11  1  0  0  0  0
 11 12  1  0  0  0  0
 11 13  1  0  0  0  0
 11 14  1  0  0  0  0
 14 15  1  0  0  0  0
 14 16  1  0  0  0  0
 14 17  1  0  0  0  0
 17 18  1  0  0  0  0
 17 19  1  0  0  0  0
 17 20  1  0  0  0  0
 20 21  1  0  0  0  0
 20 22  1  0  0  0  0
 20 23  1  0  0  0  0
 23 24  1  0  0  0  0
 23 25  1  0  0  0  0
 23 26  1  0  0  0  0
 26 27  1  0  0  0  0
 26 28  1  0  0  0  0
 26 29  1  0  0  0  0
M  END
> <VM2 Rank>
91

> <Conf_Id>
1482

> <Probability>
0.33

> <Sum Probability>
81.25

> <Delta G>
1.666

> <G>
59.814

> <E>
22.067

> <-TS>
37.746

> <U+W>
-2.077

> <U>
50.323

> <W>
-52.400

> <W(PB)>
-54.872

> <W(SA)>
2.472

> <Valence>
3.655

> <Coulomb>
45.885

> <VdW>
0.784

> <VdW6>
-9.262

> <VdW12>
10.046

> <Bond>
0.250

> <Angle>
1.077

> <Pdih>
2.328

> <Idih>
0.000

> <Tether>
0.000

$$$$
VeraChem MOL file


 29 28  0  0  0  0  0  0  0  0999 V2000     
   18.4376   18.7400   19.8918 C   0  0  0  0  0  0  0  0  0  0  0  0
   17.9067   19.1045   19.0028 H   0  0  0  0  0  0  0  0  0  0  0  0
   18.8632   17.7576   19.6495 H   0  0  0  0  0  0  0  0  0  0  0  0
   17.6946   18.6065   20.6878 H   0  0  0  0  0  0  0  0  0  0  0  0
   19.5427   19.7369   20.3083 C   0  0  0  0  0  0  0  0  0  0  0  0
   19.0889   20.7018   20.5742 H   0  0  0  0  0  0  0  0  0  0  0  0
   20.1902   19.9300   19.4416 H   0  0  0  0  0  0  0  0  0  0  0  0
   20.4187   19.2299   21.4792 C   0  0  0  0  0  0  0  0  0  0  0  0
   20.8884   18.2769   21.1995 H   0  0  0  0  0  0  0  0  0  0  0  0
   21.2385   19.9445   21.6363 H   0  0  0  0  0  0  0  0  0  0  0  0
   19.6378   19.0585   22.8042 C   0  0  0  0  0  0  0  0  0  0  0  0
   18.8631   18.2901   22.6838 H   0  0  0  0  0  0  0  0  0  0  0  0
   19.1241   19.9992   23.0408 H   0  0  0  0  0  0  0  0  0  0  0  0
   20.5729   18.6576   23.9704 C   0  0  0  0  0  0  0  0  0  0  0  0
   21.1410   17.7631   23.6799 H   0  0  0  0  0  0  0  0  0  0  0  0
   21.3136   19.4509   24.1421 H   0  0  0  0  0  0  0  0  0  0  0  0
   19.8237   18.3535   25.2911 C   0  0  0  0  0  0  0  0  0  0  0  0
   20.5507   17.9571   26.0122 H   0  0  0  0  0  0  0  0  0  0  0  0
   19.0894   17.5539   25.1217 H   0  0  0  0  0  0  0  0  0  0  0  0
   19.1168   19.5902   25.9005 C   0  0  0  0  0  0  0  0  0  0  0  0
   19.8400   20.4035   26.0468 H   0  0  0  0  0  0  0  0  0  0  0  0
   18.3575   19.9656   25.2034 H   0  0  0  0  0  0  0  0  0  0  0  0
   18.4190   19.2761   27.2379 C   0  0  0  0  0  0  0  0  0  0  0  0
   17.7124   18.4533   27.1003 H   0  0  0  0  0  0  0  0  0  0  0  0
   17.8590   20.1548   27.5693 H   0  0  0  0  0  0  0  0  0  0  0  0
   19.3747   18.8952   28.3516 N   0  3  0  0  0  0  0  0  0  0  0  0
   19.9093   18.0519   28.1210 H   0  0  0  0  0  0  0  0  0  0  0  0
   18.8796   18.7063   29.2301 H   0  0  0  0  0  0  0  0  0  0  0  0
   20.0519   19.6408   28.5434 H   0  0  0  0  0  0  0  0  0  0  0  0
  1  2  1  0  0  0  0
  1  3  1  0  0  0  0
  1  4  1  0  0  0  0
  1  5  1  0  0  0  0
  5  6  1  0  0  0  0
  5  7  1  0  0  0  0
  5  8  1  0  0  0  0
  8  9  1  0  0  0  0
  8 10  1  0  0  0  0
  8 11  1  0  0  0  0
 11 12  1  0  0  0  0
 11 13  1  0  0  0  0
 11 14  1  0  0  0  0
 14 15  1  0  0  0  0
 14 16  1  0  0  0  0
 14 17  1  0  0  0  0
 17 18  1  0  0  0  0
 17 19  1  0  0  0  0
 17 20  1  0  0  0  0
 20 21  1  0  0  0  0
 20 22  1  0  0  0  0
 20 23  1  0  0  0  0
 23 24  1  0  0  0  0
 23 25  1  0  0  0  0
 23 26  1  0  0  0  0
 26 27  1  0  0  0  0
 26 28  1  0  0  0  0
 26 29  1  0  0  0  0
M  END
> <VM2 Rank>
92

> <Conf_Id>
675

> <Probability>
0.33

> <Sum Probability>
81.57

> <Delta G>
1.669

> <G>
59.817

> <E>
22.335

> <-TS>
37.482

> <U+W>
-1.809

> <U>
49.648

> <W>
-51.457

> <W(PB)>
-53.943

> <W(SA)>
2.486

> <Valence>
3.752

> <Coulomb>
44.787

> <VdW>
1.108

> <VdW6>
-8.716

> <VdW12>
9.824

> <Bond>
0.245

> <Angle>
0.961

> <Pdih>
2.547

> <Idih>
0.000

> <Tether>
0.000

$$$$
VeraChem MOL file


 29 28  0  0  0  0  0  0  0  0999 V2000     
   19.5486   19.2045   19.1756 C   0  0  0  0  0  0  0  0  0  0  0  0
   20.4842   19.6979   18.8818 H   0  0  0  0  0  0  0  0  0  0  0  0
   19.6546   18.1286   18.9844 H   0  0  0  0  0  0  0  0  0  0  0  0
   18.7490   19.5850   18.5268 H   0  0  0  0  0  0  0  0  0  0  0  0
   19.2207   19.4739   20.6595 C   0  0  0  0  0  0  0  0  0  0  0  0
   18.2604   19.0005   20.9026 H   0  0  0  0  0  0  0  0  0  0  0  0
   19.0921   20.5544   20.8135 H   0  0  0  0  0  0  0  0  0  0  0  0
   20.3327   18.9415   21.5941 C   0  0  0  0  0  0  0  0  0  0  0  0
   20.4226   17.8523   21.4811 H   0  0  0  0  0  0  0  0  0  0  0  0
   21.2958   19.3643   21.2764 H   0  0  0  0  0  0  0  0  0  0  0  0
   20.1136   19.2927   23.0864 C   0  0  0  0  0  0  0  0  0  0  0  0
   20.0188   20.3816   23.1974 H   0  0  0  0  0  0  0  0  0  0  0  0
   21.0176   19.0031   23.6370 H   0  0  0  0  0  0  0  0  0  0  0  0
   18.8806   18.5926   23.7126 C   0  0  0  0  0  0  0  0  0  0  0  0
   17.9761   18.8832   23.1632 H   0  0  0  0  0  0  0  0  0  0  0  0
   18.9749   17.5038   23.5998 H   0  0  0  0  0  0  0  0  0  0  0  0
   18.6641   18.9426   25.2055 C   0  0  0  0  0  0  0  0  0  0  0  0
   17.7054   18.5127   25.5272 H   0  0  0  0  0  0  0  0  0  0  0  0
   18.5665   20.0313   25.3121 H   0  0  0  0  0  0  0  0  0  0  0  0
   19.7858   18.4151   26.1349 C   0  0  0  0  0  0  0  0  0  0  0  0
   19.9383   17.3436   25.9498 H   0  0  0  0  0  0  0  0  0  0  0  0
   20.7375   18.9127   25.9107 H   0  0  0  0  0  0  0  0  0  0  0  0
   19.4563   18.6104   27.6272 C   0  0  0  0  0  0  0  0  0  0  0  0
   20.2418   18.1537   28.2355 H   0  0  0  0  0  0  0  0  0  0  0  0
   18.5105   18.1154   27.8633 H   0  0  0  0  0  0  0  0  0  0  0  0
   19.3416   20.0647   28.0394 N   0  3  0  0  0  0  0  0  0  0  0  0
   18.5954   20.5457   27.5273 H   0  0  0  0  0  0  0  0  0  0  0  0
   20.2107   20.5795   27.8639 H   0  0  0  0  0  0  0  0  0  0  0  0
   19.1316   20.1618   29.0389 H   0  0  0  0  0  0  0  0  0  0  0  0
  1  2  1  0  0  0  0
  1  3  1  0  0  0  0
  1  4  1  0  0  0  0
  1  5  1  0  0  0  0
  5  6  1  0  0  0  0
  5  7  1  0  0  0  0
  5  8  1  0  0  0  0
  8  9  1  0  0  0  0
  8 10  1  0  0  0  0
  8 11  1  0  0  0  0
 11 12  1  0  0  0  0
 11 13  1  0  0  0  0
 11 14  1  0  0  0  0
 14 15  1  0  0  0  0
 14 16  1  0  0  0  0
 14 17  1  0  0  0  0
 17 18  1  0  0  0  0
 17 19  1  0  0  0  0
 17 20  1  0  0  0  0
 20 21  1  0  0  0  0
 20 22  1  0  0  0  0
 20 23  1  0  0  0  0
 23 24  1  0  0  0  0
 23 25  1  0  0  0  0
 23 26  1  0  0  0  0
 26 27  1  0  0  0  0
 26 28  1  0  0  0  0
 26 29  1  0  0  0  0
M  END
> <VM2 Rank>
93

> <Conf_Id>
1038

> <Probability>
0.32

> <Sum Probability>
81.90

> <Delta G>
1.676

> <G>
59.824

> <E>
22.386

> <-TS>
37.438

> <U+W>
-1.759

> <U>
49.985

> <W>
-51.744

> <W(PB)>
-54.257

> <W(SA)>
2.513

> <Valence>
3.839

> <Coulomb>
45.043

> <VdW>
1.103

> <VdW6>
-8.716

> <VdW12>
9.819

> <Bond>
0.253

> <Angle>
0.991

> <Pdih>
2.595

> <Idih>
0.000

> <Tether>
0.000

$$$$
VeraChem MOL file


 29 28  0  0  0  0  0  0  0  0999 V2000     
   20.9112   18.5117   19.9000 C   0  0  0  0  0  0  0  0  0  0  0  0
   21.8274   19.0427   20.1896 H   0  0  0  0  0  0  0  0  0  0  0  0
   21.0166   17.4603   20.1979 H   0  0  0  0  0  0  0  0  0  0  0  0
   20.8335   18.5457   18.8055 H   0  0  0  0  0  0  0  0  0  0  0  0
   19.6689   19.1519   20.5546 C   0  0  0  0  0  0  0  0  0  0  0  0
   18.7663   18.6210   20.2208 H   0  0  0  0  0  0  0  0  0  0  0  0
   19.5709   20.1912   20.2108 H   0  0  0  0  0  0  0  0  0  0  0  0
   19.7533   19.1177   22.0966 C   0  0  0  0  0  0  0  0  0  0  0  0
   19.8597   18.0758   22.4256 H   0  0  0  0  0  0  0  0  0  0  0  0
   20.6557   19.6512   22.4251 H   0  0  0  0  0  0  0  0  0  0  0  0
   18.5060   19.7559   22.7539 C   0  0  0  0  0  0  0  0  0  0  0  0
   17.6071   19.1920   22.4693 H   0  0  0  0  0  0  0  0  0  0  0  0
   18.3720   20.7711   22.3556 H   0  0  0  0  0  0  0  0  0  0  0  0
   18.5969   19.8433   24.2970 C   0  0  0  0  0  0  0  0  0  0  0  0
   19.4858   20.4258   24.5738 H   0  0  0  0  0  0  0  0  0  0  0  0
   17.7297   20.4089   24.6648 H   0  0  0  0  0  0  0  0  0  0  0  0
   18.6269   18.4589   24.9923 C   0  0  0  0  0  0  0  0  0  0  0  0
   19.5363   17.9128   24.7116 H   0  0  0  0  0  0  0  0  0  0  0  0
   17.7827   17.8557   24.6309 H   0  0  0  0  0  0  0  0  0  0  0  0
   18.5391   18.5549   26.5360 C   0  0  0  0  0  0  0  0  0  0  0  0
   17.5819   19.0143   26.8164 H   0  0  0  0  0  0  0  0  0  0  0  0
   18.5298   17.5433   26.9630 H   0  0  0  0  0  0  0  0  0  0  0  0
   19.6833   19.3645   27.1790 C   0  0  0  0  0  0  0  0  0  0  0  0
   19.5340   19.4077   28.2613 H   0  0  0  0  0  0  0  0  0  0  0  0
   19.6743   20.3874   26.7939 H   0  0  0  0  0  0  0  0  0  0  0  0
   21.0584   18.7793   26.9257 N   0  3  0  0  0  0  0  0  0  0  0  0
   21.1385   17.8252   27.2924 H   0  0  0  0  0  0  0  0  0  0  0  0
   21.7970   19.3352   27.3704 H   0  0  0  0  0  0  0  0  0  0  0  0
   21.2715   18.7390   25.9241 H   0  0  0  0  0  0  0  0  0  0  0  0
  1  2  1  0  0  0  0
  1  3  1  0  0  0  0
  1  4  1  0  0  0  0
  1  5  1  0  0  0  0
  5  6  1  0  0  0  0
  5  7  1  0  0  0  0
  5  8  1  0  0  0  0
  8  9  1  0  0  0  0
  8 10  1  0  0  0  0
  8 11  1  0  0  0  0
 11 12  1  0  0  0  0
 11 13  1  0  0  0  0
 11 14  1  0  0  0  0
 14 15  1  0  0  0  0
 14 16  1  0  0  0  0
 14 17  1  0  0  0  0
 17 18  1  0  0  0  0
 17 19  1  0  0  0  0
 17 20  1  0  0  0  0
 20 21  1  0  0  0  0
 20 22  1  0  0  0  0
 20 23  1  0  0  0  0
 23 24  1  0  0  0  0
 23 25  1  0  0  0  0
 23 26  1  0  0  0  0
 26 27  1  0  0  0  0
 26 28  1  0  0  0  0
 26 29  1  0  0  0  0
M  END
> <VM2 Rank>
94

> <Conf_Id>
1669

> <Probability>
0.32

> <Sum Probability>
82.21

> <Delta G>
1.686

> <G>
59.834

> <E>
22.248

> <-TS>
37.586

> <U+W>
-1.897

> <U>
50.207

> <W>
-52.103

> <W(PB)>
-54.586

> <W(SA)>
2.482

> <Valence>
3.485

> <Coulomb>
45.881

> <VdW>
0.841

> <VdW6>
-9.001

> <VdW12>
9.842

> <Bond>
0.232

> <Angle>
0.851

> <Pdih>
2.403

> <Idih>
0.000

> <Tether>
0.000

$$$$
VeraChem MOL file


 29 28  0  0  0  0  0  0  0  0999 V2000     
   19.4224   17.6615   20.1562 C   0  0  0  0  0  0  0  0  0  0  0  0
   20.4731   17.3465   20.1975 H   0  0  0  0  0  0  0  0  0  0  0  0
   18.8868   17.1843   20.9862 H   0  0  0  0  0  0  0  0  0  0  0  0
   18.9929   17.2765   19.2222 H   0  0  0  0  0  0  0  0  0  0  0  0
   19.3012   19.2012   20.2124 C   0  0  0  0  0  0  0  0  0  0  0  0
   18.2407   19.4892   20.2020 H   0  0  0  0  0  0  0  0  0  0  0  0
   19.7437   19.6244   19.2998 H   0  0  0  0  0  0  0  0  0  0  0  0
   20.0022   19.8295   21.4410 C   0  0  0  0  0  0  0  0  0  0  0  0
   21.0660   19.5547   21.4370 H   0  0  0  0  0  0  0  0  0  0  0  0
   19.9650   20.9231   21.3412 H   0  0  0  0  0  0  0  0  0  0  0  0
   19.3634   19.4226   22.7906 C   0  0  0  0  0  0  0  0  0  0  0  0
   19.4548   18.3381   22.9246 H   0  0  0  0  0  0  0  0  0  0  0  0
   18.2900   19.6557   22.7727 H   0  0  0  0  0  0  0  0  0  0  0  0
   20.0312   20.1511   23.9819 C   0  0  0  0  0  0  0  0  0  0  0  0
   21.0941   19.8778   24.0349 H   0  0  0  0  0  0  0  0  0  0  0  0
   20.0003   21.2344   23.8005 H   0  0  0  0  0  0  0  0  0  0  0  0
   19.3533   19.8651   25.3445 C   0  0  0  0  0  0  0  0  0  0  0  0
   18.2915   20.1432   25.2926 H   0  0  0  0  0  0  0  0  0  0  0  0
   19.8082   20.5232   26.0964 H   0  0  0  0  0  0  0  0  0  0  0  0
   19.4847   18.3914   25.8045 C   0  0  0  0  0  0  0  0  0  0  0  0
   18.9921   17.7303   25.0809 H   0  0  0  0  0  0  0  0  0  0  0  0
   20.5424   18.0977   25.8306 H   0  0  0  0  0  0  0  0  0  0  0  0
   18.8477   18.1414   27.1851 C   0  0  0  0  0  0  0  0  0  0  0  0
   18.8836   17.0725   27.4123 H   0  0  0  0  0  0  0  0  0  0  0  0
   17.7994   18.4515   27.1686 H   0  0  0  0  0  0  0  0  0  0  0  0
   19.5380   18.8741   28.3188 N   0  3  0  0  0  0  0  0  0  0  0  0
   19.5086   19.8901   28.1875 H   0  0  0  0  0  0  0  0  0  0  0  0
   20.5246   18.6070   28.3994 H   0  0  0  0  0  0  0  0  0  0  0  0
   19.0983   18.6752   29.2242 H   0  0  0  0  0  0  0  0  0  0  0  0
  1  2  1  0  0  0  0
  1  3  1  0  0  0  0
  1  4  1  0  0  0  0
  1  5  1  0  0  0  0
  5  6  1  0  0  0  0
  5  7  1  0  0  0  0
  5  8  1  0  0  0  0
  8  9  1  0  0  0  0
  8 10  1  0  0  0  0
  8 11  1  0  0  0  0
 11 12  1  0  0  0  0
 11 13  1  0  0  0  0
 11 14  1  0  0  0  0
 14 15  1  0  0  0  0
 14 16  1  0  0  0  0
 14 17  1  0  0  0  0
 17 18  1  0  0  0  0
 17 19  1  0  0  0  0
 17 20  1  0  0  0  0
 20 21  1  0  0  0  0
 20 22  1  0  0  0  0
 20 23  1  0  0  0  0
 23 24  1  0  0  0  0
 23 25  1  0  0  0  0
 23 26  1  0  0  0  0
 26 27  1  0  0  0  0
 26 28  1  0  0  0  0
 26 29  1  0  0  0  0
M  END
> <VM2 Rank>
95

> <Conf_Id>
425

> <Probability>
0.32

> <Sum Probability>
82.53

> <Delta G>
1.689

> <G>
59.837

> <E>
22.364

> <-TS>
37.473

> <U+W>
-1.781

> <U>
49.690

> <W>
-51.471

> <W(PB)>
-53.992

> <W(SA)>
2.521

> <Valence>
3.753

> <Coulomb>
44.825

> <VdW>
1.112

> <VdW6>
-8.728

> <VdW12>
9.840

> <Bond>
0.247

> <Angle>
0.961

> <Pdih>
2.544

> <Idih>
0.000

> <Tether>
0.000

$$$$
VeraChem MOL file


 29 28  0  0  0  0  0  0  0  0999 V2000     
   19.9793   19.2880   19.1726 C   0  0  0  0  0  0  0  0  0  0  0  0
   20.9487   18.7739   19.1349 H   0  0  0  0  0  0  0  0  0  0  0  0
   19.2310   18.6424   18.6947 H   0  0  0  0  0  0  0  0  0  0  0  0
   20.0614   20.2064   18.5769 H   0  0  0  0  0  0  0  0  0  0  0  0
   19.5822   19.6158   20.6275 C   0  0  0  0  0  0  0  0  0  0  0  0
   18.6242   20.1543   20.6307 H   0  0  0  0  0  0  0  0  0  0  0  0
   20.3312   20.2948   21.0555 H   0  0  0  0  0  0  0  0  0  0  0  0
   19.4649   18.3355   21.4880 C   0  0  0  0  0  0  0  0  0  0  0  0
   18.7749   17.6378   20.9937 H   0  0  0  0  0  0  0  0  0  0  0  0
   20.4380   17.8271   21.5314 H   0  0  0  0  0  0  0  0  0  0  0  0
   18.9499   18.5954   22.9253 C   0  0  0  0  0  0  0  0  0  0  0  0
   18.7628   17.6223   23.3965 H   0  0  0  0  0  0  0  0  0  0  0  0
   17.9801   19.1095   22.8805 H   0  0  0  0  0  0  0  0  0  0  0  0
   19.9366   19.4124   23.7982 C   0  0  0  0  0  0  0  0  0  0  0  0
   20.9062   18.8978   23.8440 H   0  0  0  0  0  0  0  0  0  0  0  0
   20.1247   20.3840   23.3239 H   0  0  0  0  0  0  0  0  0  0  0  0
   19.4216   19.6771   25.2346 C   0  0  0  0  0  0  0  0  0  0  0  0
   18.4439   20.1765   25.1889 H   0  0  0  0  0  0  0  0  0  0  0  0
   20.1076   20.3862   25.7164 H   0  0  0  0  0  0  0  0  0  0  0  0
   19.3153   18.3980   26.1027 C   0  0  0  0  0  0  0  0  0  0  0  0
   18.5958   17.7018   25.6549 H   0  0  0  0  0  0  0  0  0  0  0  0
   20.2824   17.8785   26.1282 H   0  0  0  0  0  0  0  0  0  0  0  0
   18.8536   18.6947   27.5426 C   0  0  0  0  0  0  0  0  0  0  0  0
   18.7027   17.7521   28.0759 H   0  0  0  0  0  0  0  0  0  0  0  0
   17.9007   19.2303   27.5207 H   0  0  0  0  0  0  0  0  0  0  0  0
   19.8405   19.5212   28.3435 N   0  3  0  0  0  0  0  0  0  0  0  0
   20.7521   19.0578   28.4185 H   0  0  0  0  0  0  0  0  0  0  0  0
   19.5092   19.6881   29.3000 H   0  0  0  0  0  0  0  0  0  0  0  0
   20.0010   20.4390   27.9169 H   0  0  0  0  0  0  0  0  0  0  0  0
  1  2  1  0  0  0  0
  1  3  1  0  0  0  0
  1  4  1  0  0  0  0
  1  5  1  0  0  0  0
  5  6  1  0  0  0  0
  5  7  1  0  0  0  0
  5  8  1  0  0  0  0
  8  9  1  0  0  0  0
  8 10  1  0  0  0  0
  8 11  1  0  0  0  0
 11 12  1  0  0  0  0
 11 13  1  0  0  0  0
 11 14  1  0  0  0  0
 14 15  1  0  0  0  0
 14 16  1  0  0  0  0
 14 17  1  0  0  0  0
 17 18  1  0  0  0  0
 17 19  1  0  0  0  0
 17 20  1  0  0  0  0
 20 21  1  0  0  0  0
 20 22  1  0  0  0  0
 20 23  1  0  0  0  0
 23 24  1  0  0  0  0
 23 25  1  0  0  0  0
 23 26  1  0  0  0  0
 26 27  1  0  0  0  0
 26 28  1  0  0  0  0
 26 29  1  0  0  0  0
M  END
> <VM2 Rank>
96

> <Conf_Id>
1521

> <Probability>
0.32

> <Sum Probability>
82.85

> <Delta G>
1.690

> <G>
59.838

> <E>
22.448

> <-TS>
37.390

> <U+W>
-1.696

> <U>
49.901

> <W>
-51.597

> <W(PB)>
-54.070

> <W(SA)>
2.473

> <Valence>
3.877

> <Coulomb>
44.864

> <VdW>
1.159

> <VdW6>
-8.668

> <VdW12>
9.827

> <Bond>
0.259

> <Angle>
1.041

> <Pdih>
2.578

> <Idih>
0.000

> <Tether>
0.000

$$$$
VeraChem MOL file


 29 28  0  0  0  0  0  0  0  0999 V2000     
   20.0278   18.5061   19.3323 C   0  0  0  0  0  0  0  0  0  0  0  0
   20.5624   17.6201   18.9659 H   0  0  0  0  0  0  0  0  0  0  0  0
   19.0577   18.5498   18.8202 H   0  0  0  0  0  0  0  0  0  0  0  0
   20.6072   19.3928   19.0438 H   0  0  0  0  0  0  0  0  0  0  0  0
   19.8449   18.4378   20.8633 C   0  0  0  0  0  0  0  0  0  0  0  0
   20.8322   18.3545   21.3368 H   0  0  0  0  0  0  0  0  0  0  0  0
   19.2884   17.5266   21.1233 H   0  0  0  0  0  0  0  0  0  0  0  0
   19.0967   19.6790   21.4038 C   0  0  0  0  0  0  0  0  0  0  0  0
   19.6783   20.5857   21.1870 H   0  0  0  0  0  0  0  0  0  0  0  0
   18.1459   19.7865   20.8636 H   0  0  0  0  0  0  0  0  0  0  0  0
   18.7943   19.6063   22.9206 C   0  0  0  0  0  0  0  0  0  0  0  0
   18.1907   18.7120   23.1233 H   0  0  0  0  0  0  0  0  0  0  0  0
   18.1722   20.4699   23.1932 H   0  0  0  0  0  0  0  0  0  0  0  0
   20.0685   19.6022   23.8027 C   0  0  0  0  0  0  0  0  0  0  0  0
   20.6387   18.6785   23.6384 H   0  0  0  0  0  0  0  0  0  0  0  0
   20.7211   20.4295   23.4915 H   0  0  0  0  0  0  0  0  0  0  0  0
   19.7728   19.7537   25.3150 C   0  0  0  0  0  0  0  0  0  0  0  0
   19.2174   20.6855   25.4900 H   0  0  0  0  0  0  0  0  0  0  0  0
   20.7303   19.8617   25.8413 H   0  0  0  0  0  0  0  0  0  0  0  0
   18.9884   18.5588   25.9129 C   0  0  0  0  0  0  0  0  0  0  0  0
   18.0133   18.4697   25.4183 H   0  0  0  0  0  0  0  0  0  0  0  0
   19.5262   17.6210   25.7204 H   0  0  0  0  0  0  0  0  0  0  0  0
   18.7415   18.7084   27.4265 C   0  0  0  0  0  0  0  0  0  0  0  0
   18.1048   17.8895   27.7723 H   0  0  0  0  0  0  0  0  0  0  0  0
   18.2227   19.6504   27.6236 H   0  0  0  0  0  0  0  0  0  0  0  0
   20.0091   18.6857   28.2580 N   0  3  0  0  0  0  0  0  0  0  0  0
   20.6396   19.4544   28.0095 H   0  0  0  0  0  0  0  0  0  0  0  0
   20.5311   17.8123   28.1320 H   0  0  0  0  0  0  0  0  0  0  0  0
   19.8085   18.7735   29.2603 H   0  0  0  0  0  0  0  0  0  0  0  0
  1  2  1  0  0  0  0
  1  3  1  0  0  0  0
  1  4  1  0  0  0  0
  1  5  1  0  0  0  0
  5  6  1  0  0  0  0
  5  7  1  0  0  0  0
  5  8  1  0  0  0  0
  8  9  1  0  0  0  0
  8 10  1  0  0  0  0
  8 11  1  0  0  0  0
 11 12  1  0  0  0  0
 11 13  1  0  0  0  0
 11 14  1  0  0  0  0
 14 15  1  0  0  0  0
 14 16  1  0  0  0  0
 14 17  1  0  0  0  0
 17 18  1  0  0  0  0
 17 19  1  0  0  0  0
 17 20  1  0  0  0  0
 20 21  1  0  0  0  0
 20 22  1  0  0  0  0
 20 23  1  0  0  0  0
 23 24  1  0  0  0  0
 23 25  1  0  0  0  0
 23 26  1  0  0  0  0
 26 27  1  0  0  0  0
 26 28  1  0  0  0  0
 26 29  1  0  0  0  0
M  END
> <VM2 Rank>
97

> <Conf_Id>
1315

> <Probability>
0.32

> <Sum Probability>
83.16

> <Delta G>
1.691

> <G>
59.839

> <E>
22.336

> <-TS>
37.502

> <U+W>
-1.808

> <U>
49.751

> <W>
-51.559

> <W(PB)>
-54.048

> <W(SA)>
2.489

> <Valence>
3.759

> <Coulomb>
44.916

> <VdW>
1.076

> <VdW6>
-8.772

> <VdW12>
9.848

> <Bond>
0.248

> <Angle>
0.934

> <Pdih>
2.577

> <Idih>
0.000

> <Tether>
0.000

$$$$
VeraChem MOL file


 29 28  0  0  0  0  0  0  0  0999 V2000     
   19.6255   18.9752   19.4466 C   0  0  0  0  0  0  0  0  0  0  0  0
   20.4580   19.6846   19.3528 H   0  0  0  0  0  0  0  0  0  0  0  0
   20.0412   17.9820   19.6563 H   0  0  0  0  0  0  0  0  0  0  0  0
   19.1194   18.9214   18.4741 H   0  0  0  0  0  0  0  0  0  0  0  0
   18.6358   19.4221   20.5465 C   0  0  0  0  0  0  0  0  0  0  0  0
   17.8318   18.6794   20.6452 H   0  0  0  0  0  0  0  0  0  0  0  0
   18.1533   20.3565   20.2275 H   0  0  0  0  0  0  0  0  0  0  0  0
   19.3051   19.6555   21.9226 C   0  0  0  0  0  0  0  0  0  0  0  0
   20.1069   20.3994   21.8188 H   0  0  0  0  0  0  0  0  0  0  0  0
   18.5564   20.0978   22.5920 H   0  0  0  0  0  0  0  0  0  0  0  0
   19.8711   18.3613   22.5605 C   0  0  0  0  0  0  0  0  0  0  0  0
   20.6147   17.9176   21.8862 H   0  0  0  0  0  0  0  0  0  0  0  0
   19.0687   17.6186   22.6676 H   0  0  0  0  0  0  0  0  0  0  0  0
   20.5503   18.5930   23.9329 C   0  0  0  0  0  0  0  0  0  0  0  0
   21.0369   17.6571   24.2406 H   0  0  0  0  0  0  0  0  0  0  0  0
   21.3523   19.3363   23.8252 H   0  0  0  0  0  0  0  0  0  0  0  0
   19.5699   19.0374   25.0450 C   0  0  0  0  0  0  0  0  0  0  0  0
   18.7381   18.3228   25.1006 H   0  0  0  0  0  0  0  0  0  0  0  0
   19.1374   20.0152   24.7962 H   0  0  0  0  0  0  0  0  0  0  0  0
   20.2724   19.1342   26.4199 C   0  0  0  0  0  0  0  0  0  0  0  0
   20.6791   18.1549   26.7052 H   0  0  0  0  0  0  0  0  0  0  0  0
   21.1276   19.8188   26.3435 H   0  0  0  0  0  0  0  0  0  0  0  0
   19.3362   19.6454   27.5318 C   0  0  0  0  0  0  0  0  0  0  0  0
   18.9251   20.6182   27.2487 H   0  0  0  0  0  0  0  0  0  0  0  0
   19.9059   19.7716   28.4564 H   0  0  0  0  0  0  0  0  0  0  0  0
   18.1778   18.7138   27.8292 N   0  3  0  0  0  0  0  0  0  0  0  0
   17.5791   18.5792   27.0083 H   0  0  0  0  0  0  0  0  0  0  0  0
   17.5809   19.0763   28.5808 H   0  0  0  0  0  0  0  0  0  0  0  0
   18.5014   17.7866   28.1241 H   0  0  0  0  0  0  0  0  0  0  0  0
  1  2  1  0  0  0  0
  1  3  1  0  0  0  0
  1  4  1  0  0  0  0
  1  5  1  0  0  0  0
  5  6  1  0  0  0  0
  5  7  1  0  0  0  0
  5  8  1  0  0  0  0
  8  9  1  0  0  0  0
  8 10  1  0  0  0  0
  8 11  1  0  0  0  0
 11 12  1  0  0  0  0
 11 13  1  0  0  0  0
 11 14  1  0  0  0  0
 14 15  1  0  0  0  0
 14 16  1  0  0  0  0
 14 17  1  0  0  0  0
 17 18  1  0  0  0  0
 17 19  1  0  0  0  0
 17 20  1  0  0  0  0
 20 21  1  0  0  0  0
 20 22  1  0  0  0  0
 20 23  1  0  0  0  0
 23 24  1  0  0  0  0
 23 25  1  0  0  0  0
 23 26  1  0  0  0  0
 26 27  1  0  0  0  0
 26 28  1  0  0  0  0
 26 29  1  0  0  0  0
M  END
> <VM2 Rank>
98

> <Conf_Id>
856

> <Probability>
0.31

> <Sum Probability>
83.47

> <Delta G>
1.696

> <G>
59.844

> <E>
22.400

> <-TS>
37.444

> <U+W>
-1.744

> <U>
49.938

> <W>
-51.682

> <W(PB)>
-54.166

> <W(SA)>
2.484

> <Valence>
3.804

> <Coulomb>
45.009

> <VdW>
1.125

> <VdW6>
-8.683

> <VdW12>
9.808

> <Bond>
0.248

> <Angle>
0.990

> <Pdih>
2.567

> <Idih>
0.000

> <Tether>
0.000

$$$$
VeraChem MOL file


 29 28  0  0  0  0  0  0  0  0999 V2000     
   20.5383   18.4693   20.1359 C   0  0  0  0  0  0  0  0  0  0  0  0
   20.7941   17.6817   20.8555 H   0  0  0  0  0  0  0  0  0  0  0  0
   19.6254   18.1683   19.6058 H   0  0  0  0  0  0  0  0  0  0  0  0
   21.3519   18.5214   19.4009 H   0  0  0  0  0  0  0  0  0  0  0  0
   20.3509   19.8358   20.8329 C   0  0  0  0  0  0  0  0  0  0  0  0
   20.2181   20.6101   20.0644 H   0  0  0  0  0  0  0  0  0  0  0  0
   21.2663   20.1000   21.3805 H   0  0  0  0  0  0  0  0  0  0  0  0
   19.1372   19.8755   21.7924 C   0  0  0  0  0  0  0  0  0  0  0  0
   19.0147   20.9045   22.1576 H   0  0  0  0  0  0  0  0  0  0  0  0
   18.2215   19.6339   21.2354 H   0  0  0  0  0  0  0  0  0  0  0  0
   19.2781   18.9233   23.0040 C   0  0  0  0  0  0  0  0  0  0  0  0
   20.2256   19.1340   23.5168 H   0  0  0  0  0  0  0  0  0  0  0  0
   19.3238   17.8824   22.6580 H   0  0  0  0  0  0  0  0  0  0  0  0
   18.0976   19.0774   23.9924 C   0  0  0  0  0  0  0  0  0  0  0  0
   18.0741   20.1027   24.3852 H   0  0  0  0  0  0  0  0  0  0  0  0
   17.1541   18.9412   23.4459 H   0  0  0  0  0  0  0  0  0  0  0  0
   18.1334   18.0621   25.1639 C   0  0  0  0  0  0  0  0  0  0  0  0
   18.0464   17.0438   24.7605 H   0  0  0  0  0  0  0  0  0  0  0  0
   17.2437   18.2158   25.7902 H   0  0  0  0  0  0  0  0  0  0  0  0
   19.3954   18.1423   26.0583 C   0  0  0  0  0  0  0  0  0  0  0  0
   19.3035   17.4048   26.8667 H   0  0  0  0  0  0  0  0  0  0  0  0
   20.2841   17.8561   25.4814 H   0  0  0  0  0  0  0  0  0  0  0  0
   19.6024   19.5391   26.6723 C   0  0  0  0  0  0  0  0  0  0  0  0
   18.7214   19.8186   27.2564 H   0  0  0  0  0  0  0  0  0  0  0  0
   19.7364   20.2759   25.8760 H   0  0  0  0  0  0  0  0  0  0  0  0
   20.8108   19.6133   27.5828 N   0  3  0  0  0  0  0  0  0  0  0  0
   20.7351   18.9618   28.3710 H   0  0  0  0  0  0  0  0  0  0  0  0
   20.9307   20.5512   27.9809 H   0  0  0  0  0  0  0  0  0  0  0  0
   21.6782   19.3863   27.0855 H   0  0  0  0  0  0  0  0  0  0  0  0
  1  2  1  0  0  0  0
  1  3  1  0  0  0  0
  1  4  1  0  0  0  0
  1  5  1  0  0  0  0
  5  6  1  0  0  0  0
  5  7  1  0  0  0  0
  5  8  1  0  0  0  0
  8  9  1  0  0  0  0
  8 10  1  0  0  0  0
  8 11  1  0  0  0  0
 11 12  1  0  0  0  0
 11 13  1  0  0  0  0
 11 14  1  0  0  0  0
 14 15  1  0  0  0  0
 14 16  1  0  0  0  0
 14 17  1  0  0  0  0
 17 18  1  0  0  0  0
 17 19  1  0  0  0  0
 17 20  1  0  0  0  0
 20 21  1  0  0  0  0
 20 22  1  0  0  0  0
 20 23  1  0  0  0  0
 23 24  1  0  0  0  0
 23 25  1  0  0  0  0
 23 26  1  0  0  0  0
 26 27  1  0  0  0  0
 26 28  1  0  0  0  0
 26 29  1  0  0  0  0
M  END
> <VM2 Rank>
99

> <Conf_Id>
1170

> <Probability>
0.31

> <Sum Probability>
83.78

> <Delta G>
1.702

> <G>
59.850

> <E>
22.211

> <-TS>
37.639

> <U+W>
-1.933

> <U>
50.132

> <W>
-52.066

> <W(PB)>
-54.534

> <W(SA)>
2.468

> <Valence>
3.843

> <Coulomb>
45.437

> <VdW>
0.852

> <VdW6>
-9.163

> <VdW12>
10.016

> <Bond>
0.247

> <Angle>
1.127

> <Pdih>
2.470

> <Idih>
0.000

> <Tether>
0.000

$$$$
VeraChem MOL file


 29 28  0  0  0  0  0  0  0  0999 V2000     
   20.7268   18.9978   20.1476 C   0  0  0  0  0  0  0  0  0  0  0  0
   20.2184   19.8295   19.6429 H   0  0  0  0  0  0  0  0  0  0  0  0
   21.4133   19.4161   20.8941 H   0  0  0  0  0  0  0  0  0  0  0  0
   21.3338   18.4717   19.3995 H   0  0  0  0  0  0  0  0  0  0  0  0
   19.7068   18.0324   20.7925 C   0  0  0  0  0  0  0  0  0  0  0  0
   20.2404   17.2269   21.3162 H   0  0  0  0  0  0  0  0  0  0  0  0
   19.1247   17.5484   19.9959 H   0  0  0  0  0  0  0  0  0  0  0  0
   18.7289   18.7321   21.7669 C   0  0  0  0  0  0  0  0  0  0  0  0
   18.1810   19.5206   21.2329 H   0  0  0  0  0  0  0  0  0  0  0  0
   17.9775   17.9996   22.0927 H   0  0  0  0  0  0  0  0  0  0  0  0
   19.4237   19.3308   23.0131 C   0  0  0  0  0  0  0  0  0  0  0  0
   20.1231   20.1202   22.7080 H   0  0  0  0  0  0  0  0  0  0  0  0
   20.0163   18.5477   23.5037 H   0  0  0  0  0  0  0  0  0  0  0  0
   18.3986   19.9201   24.0112 C   0  0  0  0  0  0  0  0  0  0  0  0
   17.7625   20.6445   23.4840 H   0  0  0  0  0  0  0  0  0  0  0  0
   17.7256   19.1269   24.3634 H   0  0  0  0  0  0  0  0  0  0  0  0
   19.0526   20.6358   25.2214 C   0  0  0  0  0  0  0  0  0  0  0  0
   18.2580   21.0556   25.8536 H   0  0  0  0  0  0  0  0  0  0  0  0
   19.6359   21.4940   24.8600 H   0  0  0  0  0  0  0  0  0  0  0  0
   19.9658   19.7392   26.0940 C   0  0  0  0  0  0  0  0  0  0  0  0
   20.8428   19.4205   25.5164 H   0  0  0  0  0  0  0  0  0  0  0  0
   20.3502   20.3355   26.9322 H   0  0  0  0  0  0  0  0  0  0  0  0
   19.2327   18.5042   26.6492 C   0  0  0  0  0  0  0  0  0  0  0  0
   18.8812   17.8814   25.8225 H   0  0  0  0  0  0  0  0  0  0  0  0
   18.3657   18.8229   27.2341 H   0  0  0  0  0  0  0  0  0  0  0  0
   20.1080   17.6456   27.5389 N   0  3  0  0  0  0  0  0  0  0  0  0
   20.9300   17.2915   27.0388 H   0  0  0  0  0  0  0  0  0  0  0  0
   19.6012   16.8289   27.8978 H   0  0  0  0  0  0  0  0  0  0  0  0
   20.4507   18.1659   28.3534 H   0  0  0  0  0  0  0  0  0  0  0  0
  1  2  1  0  0  0  0
  1  3  1  0  0  0  0
  1  4  1  0  0  0  0
  1  5  1  0  0  0  0
  5  6  1  0  0  0  0
  5  7  1  0  0  0  0
  5  8  1  0  0  0  0
  8  9  1  0  0  0  0
  8 10  1  0  0  0  0
  8 11  1  0  0  0  0
 11 12  1  0  0  0  0
 11 13  1  0  0  0  0
 11 14  1  0  0  0  0
 14 15  1  0  0  0  0
 14 16  1  0  0  0  0
 14 17  1  0  0  0  0
 17 18  1  0  0  0  0
 17 19  1  0  0  0  0
 17 20  1  0  0  0  0
 20 21  1  0  0  0  0
 20 22  1  0  0  0  0
 20 23  1  0  0  0  0
 23 24  1  0  0  0  0
 23 25  1  0  0  0  0
 23 26  1  0  0  0  0
 26 27  1  0  0  0  0
 26 28  1  0  0  0  0
 26 29  1  0  0  0  0
M  END
> <VM2 Rank>
100

> <Conf_Id>
2230

> <Probability>
0.31

> <Sum Probability>
84.09

> <Delta G>
1.709

> <G>
59.857

> <E>
22.219

> <-TS>
37.639

> <U+W>
-1.926

> <U>
50.132

> <W>
-52.058

> <W(PB)>
-54.557

> <W(SA)>
2.499

> <Valence>
3.843

> <Coulomb>
45.436

> <VdW>
0.853

> <VdW6>
-9.163

> <VdW12>
10.016

> <Bond>
0.247

> <Angle>
1.127

> <Pdih>
2.470

> <Idih>
0.000

> <Tether>
0.000

$$$$
VeraChem MOL file


 29 28  0  0  0  0  0  0  0  0999 V2000     
   20.8872   17.9608   20.3375 C   0  0  0  0  0  0  0  0  0  0  0  0
   20.7246   17.3544   19.4369 H   0  0  0  0  0  0  0  0  0  0  0  0
   21.5193   18.8143   20.0596 H   0  0  0  0  0  0  0  0  0  0  0  0
   21.4395   17.3476   21.0615 H   0  0  0  0  0  0  0  0  0  0  0  0
   19.5415   18.4356   20.9250 C   0  0  0  0  0  0  0  0  0  0  0  0
   18.9187   17.5618   21.1626 H   0  0  0  0  0  0  0  0  0  0  0  0
   18.9975   19.0162   20.1668 H   0  0  0  0  0  0  0  0  0  0  0  0
   19.7425   19.2928   22.1940 C   0  0  0  0  0  0  0  0  0  0  0  0
   20.2950   18.7050   22.9386 H   0  0  0  0  0  0  0  0  0  0  0  0
   20.3625   20.1668   21.9517 H   0  0  0  0  0  0  0  0  0  0  0  0
   18.3937   19.7639   22.7885 C   0  0  0  0  0  0  0  0  0  0  0  0
   17.7883   18.8931   23.0725 H   0  0  0  0  0  0  0  0  0  0  0  0
   17.8226   20.2861   22.0085 H   0  0  0  0  0  0  0  0  0  0  0  0
   18.5490   20.7196   23.9997 C   0  0  0  0  0  0  0  0  0  0  0  0
   19.0493   21.6391   23.6658 H   0  0  0  0  0  0  0  0  0  0  0  0
   17.5494   21.0275   24.3360 H   0  0  0  0  0  0  0  0  0  0  0  0
   19.3288   20.1391   25.2076 C   0  0  0  0  0  0  0  0  0  0  0  0
   19.3687   20.9056   25.9939 H   0  0  0  0  0  0  0  0  0  0  0  0
   20.3701   19.9486   24.9184 H   0  0  0  0  0  0  0  0  0  0  0  0
   18.6930   18.8532   25.7917 C   0  0  0  0  0  0  0  0  0  0  0  0
   17.6318   19.0371   26.0054 H   0  0  0  0  0  0  0  0  0  0  0  0
   18.7304   18.0392   25.0565 H   0  0  0  0  0  0  0  0  0  0  0  0
   19.3804   18.3909   27.0905 C   0  0  0  0  0  0  0  0  0  0  0  0
   18.8435   17.5306   27.4993 H   0  0  0  0  0  0  0  0  0  0  0  0
   19.3494   19.1956   27.8300 H   0  0  0  0  0  0  0  0  0  0  0  0
   20.8279   17.9821   26.9006 N   0  3  0  0  0  0  0  0  0  0  0  0
   21.3975   18.7583   26.5495 H   0  0  0  0  0  0  0  0  0  0  0  0
   20.9205   17.2100   26.2325 H   0  0  0  0  0  0  0  0  0  0  0  0
   21.2536   17.6705   27.7805 H   0  0  0  0  0  0  0  0  0  0  0  0
  1  2  1  0  0  0  0
  1  3  1  0  0  0  0
  1  4  1  0  0  0  0
  1  5  1  0  0  0  0
  5  6  1  0  0  0  0
  5  7  1  0  0  0  0
  5  8  1  0  0  0  0
  8  9  1  0  0  0  0
  8 10  1  0  0  0  0
  8 11  1  0  0  0  0
 11 12  1  0  0  0  0
 11 13  1  0  0  0  0
 11 14  1  0  0  0  0
 14 15  1  0  0  0  0
 14 16  1  0  0  0  0
 14 17  1  0  0  0  0
 17 18  1  0  0  0  0
 17 19  1  0  0  0  0
 17 20  1  0  0  0  0
 20 21  1  0  0  0  0
 20 22  1  0  0  0  0
 20 23  1  0  0  0  0
 23 24  1  0  0  0  0
 23 25  1  0  0  0  0
 23 26  1  0  0  0  0
 26 27  1  0  0  0  0
 26 28  1  0  0  0  0
 26 29  1  0  0  0  0
M  END
> <VM2 Rank>
101

> <Conf_Id>
2455

> <Probability>
0.30

> <Sum Probability>
84.39

> <Delta G>
1.718

> <G>
59.866

> <E>
22.120

> <-TS>
37.746

> <U+W>
-2.024

> <U>
50.323

> <W>
-52.347

> <W(PB)>
-54.826

> <W(SA)>
2.479

> <Valence>
3.655

> <Coulomb>
45.884

> <VdW>
0.784

> <VdW6>
-9.261

> <VdW12>
10.045

> <Bond>
0.250

> <Angle>
1.077

> <Pdih>
2.328

> <Idih>
0.000

> <Tether>
0.000

$$$$
VeraChem MOL file


 29 28  0  0  0  0  0  0  0  0999 V2000     
   21.3682   18.9957   20.8965 C   0  0  0  0  0  0  0  0  0  0  0  0
   21.6446   17.9676   21.1639 H   0  0  0  0  0  0  0  0  0  0  0  0
   21.9834   19.2965   20.0386 H   0  0  0  0  0  0  0  0  0  0  0  0
   21.6299   19.6520   21.7357 H   0  0  0  0  0  0  0  0  0  0  0  0
   19.8662   19.0940   20.5455 C   0  0  0  0  0  0  0  0  0  0  0  0
   19.6792   18.5195   19.6274 H   0  0  0  0  0  0  0  0  0  0  0  0
   19.6082   20.1367   20.3137 H   0  0  0  0  0  0  0  0  0  0  0  0
   18.9369   18.5606   21.6623 C   0  0  0  0  0  0  0  0  0  0  0  0
   17.9045   18.5621   21.2865 H   0  0  0  0  0  0  0  0  0  0  0  0
   19.1862   17.5124   21.8775 H   0  0  0  0  0  0  0  0  0  0  0  0
   19.0016   19.3905   22.9668 C   0  0  0  0  0  0  0  0  0  0  0  0
   18.7961   20.4458   22.7409 H   0  0  0  0  0  0  0  0  0  0  0  0
   20.0164   19.3418   23.3800 H   0  0  0  0  0  0  0  0  0  0  0  0
   17.9893   18.8804   24.0201 C   0  0  0  0  0  0  0  0  0  0  0  0
   16.9848   18.8681   23.5750 H   0  0  0  0  0  0  0  0  0  0  0  0
   18.2181   17.8378   24.2787 H   0  0  0  0  0  0  0  0  0  0  0  0
   17.9415   19.7470   25.3051 C   0  0  0  0  0  0  0  0  0  0  0  0
   17.1737   19.3384   25.9766 H   0  0  0  0  0  0  0  0  0  0  0  0
   17.6060   20.7601   25.0439 H   0  0  0  0  0  0  0  0  0  0  0  0
   19.2808   19.8448   26.0773 C   0  0  0  0  0  0  0  0  0  0  0  0
   20.0248   20.3800   25.4737 H   0  0  0  0  0  0  0  0  0  0  0  0
   19.1252   20.4501   26.9801 H   0  0  0  0  0  0  0  0  0  0  0  0
   19.8359   18.4673   26.4842 C   0  0  0  0  0  0  0  0  0  0  0  0
   20.0337   17.8706   25.5899 H   0  0  0  0  0  0  0  0  0  0  0  0
   19.0988   17.9394   27.0952 H   0  0  0  0  0  0  0  0  0  0  0  0
   21.1234   18.5577   27.2772 N   0  3  0  0  0  0  0  0  0  0  0  0
   21.8674   19.0221   26.7460 H   0  0  0  0  0  0  0  0  0  0  0  0
   21.4761   17.6302   27.5379 H   0  0  0  0  0  0  0  0  0  0  0  0
   20.9990   19.0853   28.1476 H   0  0  0  0  0  0  0  0  0  0  0  0
  1  2  1  0  0  0  0
  1  3  1  0  0  0  0
  1  4  1  0  0  0  0
  1  5  1  0  0  0  0
  5  6  1  0  0  0  0
  5  7  1  0  0  0  0
  5  8  1  0  0  0  0
  8  9  1  0  0  0  0
  8 10  1  0  0  0  0
  8 11  1  0  0  0  0
 11 12  1  0  0  0  0
 11 13  1  0  0  0  0
 11 14  1  0  0  0  0
 14 15  1  0  0  0  0
 14 16  1  0  0  0  0
 14 17  1  0  0  0  0
 17 18  1  0  0  0  0
 17 19  1  0  0  0  0
 17 20  1  0  0  0  0
 20 21  1  0  0  0  0
 20 22  1  0  0  0  0
 20 23  1  0  0  0  0
 23 24  1  0  0  0  0
 23 25  1  0  0  0  0
 23 26  1  0  0  0  0
 26 27  1  0  0  0  0
 26 28  1  0  0  0  0
 26 29  1  0  0  0  0
M  END
> <VM2 Rank>
102

> <Conf_Id>
574

> <Probability>
0.30

> <Sum Probability>
84.69

> <Delta G>
1.718

> <G>
59.866

> <E>
22.228

> <-TS>
37.638

> <U+W>
-1.916

> <U>
50.295

> <W>
-52.212

> <W(PB)>
-54.703

> <W(SA)>
2.491

> <Valence>
3.839

> <Coulomb>
45.618

> <VdW>
0.839

> <VdW6>
-9.210

> <VdW12>
10.049

> <Bond>
0.249

> <Angle>
1.131

> <Pdih>
2.459

> <Idih>
0.000

> <Tether>
0.000

$$$$
VeraChem MOL file


 29 28  0  0  0  0  0  0  0  0999 V2000     
   19.5091   19.0939   19.1731 C   0  0  0  0  0  0  0  0  0  0  0  0
   20.2731   19.8679   19.0233 H   0  0  0  0  0  0  0  0  0  0  0  0
   19.9274   18.1327   18.8468 H   0  0  0  0  0  0  0  0  0  0  0  0
   18.6580   19.3295   18.5211 H   0  0  0  0  0  0  0  0  0  0  0  0
   19.0640   19.0332   20.6497 C   0  0  0  0  0  0  0  0  0  0  0  0
   18.2802   18.2712   20.7625 H   0  0  0  0  0  0  0  0  0  0  0  0
   18.6145   19.9963   20.9249 H   0  0  0  0  0  0  0  0  0  0  0  0
   20.2492   18.7068   21.5888 C   0  0  0  0  0  0  0  0  0  0  0  0
   20.7338   17.7840   21.2410 H   0  0  0  0  0  0  0  0  0  0  0  0
   21.0079   19.4983   21.5178 H   0  0  0  0  0  0  0  0  0  0  0  0
   19.8367   18.5139   23.0690 C   0  0  0  0  0  0  0  0  0  0  0  0
   20.7129   18.1459   23.6179 H   0  0  0  0  0  0  0  0  0  0  0  0
   19.0744   17.7258   23.1382 H   0  0  0  0  0  0  0  0  0  0  0  0
   19.3136   19.8097   23.7398 C   0  0  0  0  0  0  0  0  0  0  0  0
   20.0754   20.5981   23.6689 H   0  0  0  0  0  0  0  0  0  0  0  0
   18.4365   20.1772   23.1921 H   0  0  0  0  0  0  0  0  0  0  0  0
   18.9037   19.6160   25.2205 C   0  0  0  0  0  0  0  0  0  0  0  0
   18.1394   18.8301   25.2853 H   0  0  0  0  0  0  0  0  0  0  0  0
   18.4269   20.5414   25.5724 H   0  0  0  0  0  0  0  0  0  0  0  0
   20.0934   19.2799   26.1542 C   0  0  0  0  0  0  0  0  0  0  0  0
   20.5206   18.3026   25.8972 H   0  0  0  0  0  0  0  0  0  0  0  0
   20.8906   20.0211   26.0096 H   0  0  0  0  0  0  0  0  0  0  0  0
   19.6936   19.2775   27.6421 C   0  0  0  0  0  0  0  0  0  0  0  0
   19.2692   20.2486   27.9109 H   0  0  0  0  0  0  0  0  0  0  0  0
   20.5824   19.1114   28.2569 H   0  0  0  0  0  0  0  0  0  0  0  0
   18.6808   18.2071   27.9979 N   0  3  0  0  0  0  0  0  0  0  0  0
   17.8058   18.3258   27.4778 H   0  0  0  0  0  0  0  0  0  0  0  0
   18.4426   18.2248   28.9957 H   0  0  0  0  0  0  0  0  0  0  0  0
   19.0323   17.2666   27.7900 H   0  0  0  0  0  0  0  0  0  0  0  0
  1  2  1  0  0  0  0
  1  3  1  0  0  0  0
  1  4  1  0  0  0  0
  1  5  1  0  0  0  0
  5  6  1  0  0  0  0
  5  7  1  0  0  0  0
  5  8  1  0  0  0  0
  8  9  1  0  0  0  0
  8 10  1  0  0  0  0
  8 11  1  0  0  0  0
 11 12  1  0  0  0  0
 11 13  1  0  0  0  0
 11 14  1  0  0  0  0
 14 15  1  0  0  0  0
 14 16  1  0  0  0  0
 14 17  1  0  0  0  0
 17 18  1  0  0  0  0
 17 19  1  0  0  0  0
 17 20  1  0  0  0  0
 20 21  1  0  0  0  0
 20 22  1  0  0  0  0
 20 23  1  0  0  0  0
 23 24  1  0  0  0  0
 23 25  1  0  0  0  0
 23 26  1  0  0  0  0
 26 27  1  0  0  0  0
 26 28  1  0  0  0  0
 26 29  1  0  0  0  0
M  END
> <VM2 Rank>
103

> <Conf_Id>
1973

> <Probability>
0.30

> <Sum Probability>
84.99

> <Delta G>
1.719

> <G>
59.867

> <E>
22.429

> <-TS>
37.438

> <U+W>
-1.715

> <U>
49.985

> <W>
-51.700

> <W(PB)>
-54.217

> <W(SA)>
2.516

> <Valence>
3.839

> <Coulomb>
45.043

> <VdW>
1.103

> <VdW6>
-8.716

> <VdW12>
9.819

> <Bond>
0.253

> <Angle>
0.991

> <Pdih>
2.595

> <Idih>
0.000

> <Tether>
0.000

$$$$
VeraChem MOL file


 29 28  0  0  0  0  0  0  0  0999 V2000     
   20.2623   19.0828   19.6904 C   0  0  0  0  0  0  0  0  0  0  0  0
   21.1894   19.5802   20.0036 H   0  0  0  0  0  0  0  0  0  0  0  0
   20.3539   18.0125   19.9133 H   0  0  0  0  0  0  0  0  0  0  0  0
   20.1766   19.1871   18.6010 H   0  0  0  0  0  0  0  0  0  0  0  0
   19.0338   19.7049   20.3917 C   0  0  0  0  0  0  0  0  0  0  0  0
   18.1230   19.1735   20.0821 H   0  0  0  0  0  0  0  0  0  0  0  0
   18.9165   20.7421   20.0479 H   0  0  0  0  0  0  0  0  0  0  0  0
   19.1425   19.7021   21.9355 C   0  0  0  0  0  0  0  0  0  0  0  0
   20.0394   20.2611   22.2328 H   0  0  0  0  0  0  0  0  0  0  0  0
   18.2835   20.2494   22.3473 H   0  0  0  0  0  0  0  0  0  0  0  0
   19.1758   18.2780   22.5454 C   0  0  0  0  0  0  0  0  0  0  0  0
   20.0932   17.7583   22.2390 H   0  0  0  0  0  0  0  0  0  0  0  0
   18.3382   17.6945   22.1391 H   0  0  0  0  0  0  0  0  0  0  0  0
   19.0777   18.2686   24.0905 C   0  0  0  0  0  0  0  0  0  0  0  0
   18.1437   18.7587   24.3964 H   0  0  0  0  0  0  0  0  0  0  0  0
   19.0050   17.2256   24.4282 H   0  0  0  0  0  0  0  0  0  0  0  0
   20.2868   18.9424   24.7871 C   0  0  0  0  0  0  0  0  0  0  0  0
   20.3147   20.0128   24.5438 H   0  0  0  0  0  0  0  0  0  0  0  0
   21.2174   18.5084   24.3962 H   0  0  0  0  0  0  0  0  0  0  0  0
   20.2677   18.7745   26.3244 C   0  0  0  0  0  0  0  0  0  0  0  0
   20.2756   17.7064   26.5795 H   0  0  0  0  0  0  0  0  0  0  0  0
   21.1881   19.2044   26.7417 H   0  0  0  0  0  0  0  0  0  0  0  0
   19.0514   19.4545   26.9801 C   0  0  0  0  0  0  0  0  0  0  0  0
   18.1287   19.0057   26.6034 H   0  0  0  0  0  0  0  0  0  0  0  0
   19.0449   20.5186   26.7289 H   0  0  0  0  0  0  0  0  0  0  0  0
   19.0460   19.3302   28.4899 N   0  3  0  0  0  0  0  0  0  0  0  0
   19.0255   18.3505   28.7922 H   0  0  0  0  0  0  0  0  0  0  0  0
   18.2287   19.7891   28.9071 H   0  0  0  0  0  0  0  0  0  0  0  0
   19.8768   19.7589   28.9112 H   0  0  0  0  0  0  0  0  0  0  0  0
  1  2  1  0  0  0  0
  1  3  1  0  0  0  0
  1  4  1  0  0  0  0
  1  5  1  0  0  0  0
  5  6  1  0  0  0  0
  5  7  1  0  0  0  0
  5  8  1  0  0  0  0
  8  9  1  0  0  0  0
  8 10  1  0  0  0  0
  8 11  1  0  0  0  0
 11 12  1  0  0  0  0
 11 13  1  0  0  0  0
 11 14  1  0  0  0  0
 14 15  1  0  0  0  0
 14 16  1  0  0  0  0
 14 17  1  0  0  0  0
 17 18  1  0  0  0  0
 17 19  1  0  0  0  0
 17 20  1  0  0  0  0
 20 21  1  0  0  0  0
 20 22  1  0  0  0  0
 20 23  1  0  0  0  0
 23 24  1  0  0  0  0
 23 25  1  0  0  0  0
 23 26  1  0  0  0  0
 26 27  1  0  0  0  0
 26 28  1  0  0  0  0
 26 29  1  0  0  0  0
M  END
> <VM2 Rank>
104

> <Conf_Id>
1498

> <Probability>
0.30

> <Sum Probability>
85.29

> <Delta G>
1.726

> <G>
59.874

> <E>
22.343

> <-TS>
37.530

> <U+W>
-1.801

> <U>
49.749

> <W>
-51.550

> <W(PB)>
-54.049

> <W(SA)>
2.499

> <Valence>
3.885

> <Coulomb>
44.883

> <VdW>
0.980

> <VdW6>
-8.856

> <VdW12>
9.836

> <Bond>
0.242

> <Angle>
0.947

> <Pdih>
2.696

> <Idih>
0.000

> <Tether>
0.000

$$$$
VeraChem MOL file


 29 28  0  0  0  0  0  0  0  0999 V2000     
   20.5517   18.3552   19.9123 C   0  0  0  0  0  0  0  0  0  0  0  0
   20.4576   17.5562   19.1654 H   0  0  0  0  0  0  0  0  0  0  0  0
   20.4787   19.3170   19.3882 H   0  0  0  0  0  0  0  0  0  0  0  0
   21.5523   18.2837   20.3582 H   0  0  0  0  0  0  0  0  0  0  0  0
   19.4539   18.2261   20.9894 C   0  0  0  0  0  0  0  0  0  0  0  0
   19.5316   17.2424   21.4732 H   0  0  0  0  0  0  0  0  0  0  0  0
   18.4660   18.2666   20.5095 H   0  0  0  0  0  0  0  0  0  0  0  0
   19.5634   19.3402   22.0536 C   0  0  0  0  0  0  0  0  0  0  0  0
   20.5569   19.2951   22.5185 H   0  0  0  0  0  0  0  0  0  0  0  0
   19.4827   20.3217   21.5665 H   0  0  0  0  0  0  0  0  0  0  0  0
   18.4666   19.2090   23.1371 C   0  0  0  0  0  0  0  0  0  0  0  0
   18.5649   18.2436   23.6509 H   0  0  0  0  0  0  0  0  0  0  0  0
   17.4825   19.1919   22.6488 H   0  0  0  0  0  0  0  0  0  0  0  0
   18.4773   20.3638   24.1715 C   0  0  0  0  0  0  0  0  0  0  0  0
   18.2713   21.3090   23.6506 H   0  0  0  0  0  0  0  0  0  0  0  0
   17.6398   20.2228   24.8679 H   0  0  0  0  0  0  0  0  0  0  0  0
   19.7949   20.5192   24.9780 C   0  0  0  0  0  0  0  0  0  0  0  0
   19.6699   21.3405   25.6970 H   0  0  0  0  0  0  0  0  0  0  0  0
   20.6029   20.8362   24.3054 H   0  0  0  0  0  0  0  0  0  0  0  0
   20.2418   19.2490   25.7432 C   0  0  0  0  0  0  0  0  0  0  0  0
   20.4902   18.4504   25.0326 H   0  0  0  0  0  0  0  0  0  0  0  0
   21.1664   19.4724   26.2916 H   0  0  0  0  0  0  0  0  0  0  0  0
   19.1759   18.7484   26.7352 C   0  0  0  0  0  0  0  0  0  0  0  0
   18.2620   18.4888   26.1946 H   0  0  0  0  0  0  0  0  0  0  0  0
   18.9397   19.5395   27.4518 H   0  0  0  0  0  0  0  0  0  0  0  0
   19.6186   17.5272   27.5146 N   0  3  0  0  0  0  0  0  0  0  0  0
   19.8310   16.7365   26.8974 H   0  0  0  0  0  0  0  0  0  0  0  0
   18.8948   17.2101   28.1690 H   0  0  0  0  0  0  0  0  0  0  0  0
   20.4612   17.7131   28.0685 H   0  0  0  0  0  0  0  0  0  0  0  0
  1  2  1  0  0  0  0
  1  3  1  0  0  0  0
  1  4  1  0  0  0  0
  1  5  1  0  0  0  0
  5  6  1  0  0  0  0
  5  7  1  0  0  0  0
  5  8  1  0  0  0  0
  8  9  1  0  0  0  0
  8 10  1  0  0  0  0
  8 11  1  0  0  0  0
 11 12  1  0  0  0  0
 11 13  1  0  0  0  0
 11 14  1  0  0  0  0
 14 15  1  0  0  0  0
 14 16  1  0  0  0  0
 14 17  1  0  0  0  0
 17 18  1  0  0  0  0
 17 19  1  0  0  0  0
 17 20  1  0  0  0  0
 20 21  1  0  0  0  0
 20 22  1  0  0  0  0
 20 23  1  0  0  0  0
 23 24  1  0  0  0  0
 23 25  1  0  0  0  0
 23 26  1  0  0  0  0
 26 27  1  0  0  0  0
 26 28  1  0  0  0  0
 26 29  1  0  0  0  0
M  END
> <VM2 Rank>
105

> <Conf_Id>
2302

> <Probability>
0.30

> <Sum Probability>
85.58

> <Delta G>
1.728

> <G>
59.876

> <E>
21.997

> <-TS>
37.880

> <U+W>
-2.148

> <U>
50.030

> <W>
-52.177

> <W(PB)>
-54.677

> <W(SA)>
2.500

> <Valence>
3.797

> <Coulomb>
45.605

> <VdW>
0.627

> <VdW6>
-9.562

> <VdW12>
10.189

> <Bond>
0.257

> <Angle>
1.236

> <Pdih>
2.305

> <Idih>
0.000

> <Tether>
0.000

$$$$
VeraChem MOL file


 29 28  0  0  0  0  0  0  0  0999 V2000     
   20.3197   19.3253   19.3506 C   0  0  0  0  0  0  0  0  0  0  0  0
   21.2992   19.6872   19.0121 H   0  0  0  0  0  0  0  0  0  0  0  0
   20.2116   18.2845   19.0187 H   0  0  0  0  0  0  0  0  0  0  0  0
   19.5479   19.9255   18.8511 H   0  0  0  0  0  0  0  0  0  0  0  0
   20.1997   19.4328   20.8855 C   0  0  0  0  0  0  0  0  0  0  0  0
   20.3412   20.4793   21.1896 H   0  0  0  0  0  0  0  0  0  0  0  0
   21.0104   18.8541   21.3478 H   0  0  0  0  0  0  0  0  0  0  0  0
   18.8276   18.9242   21.3869 C   0  0  0  0  0  0  0  0  0  0  0  0
   18.0309   19.4637   20.8564 H   0  0  0  0  0  0  0  0  0  0  0  0
   18.7079   17.8636   21.1261 H   0  0  0  0  0  0  0  0  0  0  0  0
   18.6179   19.1115   22.9095 C   0  0  0  0  0  0  0  0  0  0  0  0
   17.5862   18.8256   23.1564 H   0  0  0  0  0  0  0  0  0  0  0  0
   18.7128   20.1771   23.1561 H   0  0  0  0  0  0  0  0  0  0  0  0
   19.5952   18.2742   23.7730 C   0  0  0  0  0  0  0  0  0  0  0  0
   19.5822   17.2338   23.4200 H   0  0  0  0  0  0  0  0  0  0  0  0
   20.6233   18.6351   23.6374 H   0  0  0  0  0  0  0  0  0  0  0  0
   19.2490   18.2840   25.2822 C   0  0  0  0  0  0  0  0  0  0  0  0
   19.9151   17.5741   25.7902 H   0  0  0  0  0  0  0  0  0  0  0  0
   18.2272   17.9070   25.4279 H   0  0  0  0  0  0  0  0  0  0  0  0
   19.3883   19.6807   25.9380 C   0  0  0  0  0  0  0  0  0  0  0  0
   20.4004   20.0741   25.7752 H   0  0  0  0  0  0  0  0  0  0  0  0
   18.6961   20.3857   25.4611 H   0  0  0  0  0  0  0  0  0  0  0  0
   19.0810   19.6610   27.4478 C   0  0  0  0  0  0  0  0  0  0  0  0
   18.0808   19.2522   27.6147 H   0  0  0  0  0  0  0  0  0  0  0  0
   19.1005   20.6835   27.8347 H   0  0  0  0  0  0  0  0  0  0  0  0
   20.0656   18.8443   28.2615 N   0  3  0  0  0  0  0  0  0  0  0  0
   20.0717   17.8607   27.9738 H   0  0  0  0  0  0  0  0  0  0  0  0
   19.8405   18.8633   29.2623 H   0  0  0  0  0  0  0  0  0  0  0  0
   21.0239   19.1952   28.1630 H   0  0  0  0  0  0  0  0  0  0  0  0
  1  2  1  0  0  0  0
  1  3  1  0  0  0  0
  1  4  1  0  0  0  0
  1  5  1  0  0  0  0
  5  6  1  0  0  0  0
  5  7  1  0  0  0  0
  5  8  1  0  0  0  0
  8  9  1  0  0  0  0
  8 10  1  0  0  0  0
  8 11  1  0  0  0  0
 11 12  1  0  0  0  0
 11 13  1  0  0  0  0
 11 14  1  0  0  0  0
 14 15  1  0  0  0  0
 14 16  1  0  0  0  0
 14 17  1  0  0  0  0
 17 18  1  0  0  0  0
 17 19  1  0  0  0  0
 17 20  1  0  0  0  0
 20 21  1  0  0  0  0
 20 22  1  0  0  0  0
 20 23  1  0  0  0  0
 23 24  1  0  0  0  0
 23 25  1  0  0  0  0
 23 26  1  0  0  0  0
 26 27  1  0  0  0  0
 26 28  1  0  0  0  0
 26 29  1  0  0  0  0
M  END
> <VM2 Rank>
106

> <Conf_Id>
1969

> <Probability>
0.29

> <Sum Probability>
85.88

> <Delta G>
1.730

> <G>
59.878

> <E>
22.375

> <-TS>
37.503

> <U+W>
-1.769

> <U>
49.751

> <W>
-51.520

> <W(PB)>
-54.042

> <W(SA)>
2.521

> <Valence>
3.759

> <Coulomb>
44.916

> <VdW>
1.076

> <VdW6>
-8.772

> <VdW12>
9.848

> <Bond>
0.248

> <Angle>
0.934

> <Pdih>
2.577

> <Idih>
0.000

> <Tether>
0.000

$$$$
VeraChem MOL file


 29 28  0  0  0  0  0  0  0  0999 V2000     
   20.9386   18.1703   20.4138 C   0  0  0  0  0  0  0  0  0  0  0  0
   21.2834   17.1319   20.3257 H   0  0  0  0  0  0  0  0  0  0  0  0
   20.6057   18.5001   19.4211 H   0  0  0  0  0  0  0  0  0  0  0  0
   21.7975   18.7870   20.7091 H   0  0  0  0  0  0  0  0  0  0  0  0
   19.7970   18.2794   21.4466 C   0  0  0  0  0  0  0  0  0  0  0  0
   20.1556   17.9044   22.4145 H   0  0  0  0  0  0  0  0  0  0  0  0
   18.9648   17.6302   21.1408 H   0  0  0  0  0  0  0  0  0  0  0  0
   19.2968   19.7359   21.5917 C   0  0  0  0  0  0  0  0  0  0  0  0
   20.1177   20.3776   21.9377 H   0  0  0  0  0  0  0  0  0  0  0  0
   19.0150   20.1165   20.6002 H   0  0  0  0  0  0  0  0  0  0  0  0
   18.0747   19.8822   22.5349 C   0  0  0  0  0  0  0  0  0  0  0  0
   17.2260   19.3323   22.1053 H   0  0  0  0  0  0  0  0  0  0  0  0
   17.7691   20.9374   22.5548 H   0  0  0  0  0  0  0  0  0  0  0  0
   18.2974   19.3959   23.9902 C   0  0  0  0  0  0  0  0  0  0  0  0
   17.3655   19.5494   24.5516 H   0  0  0  0  0  0  0  0  0  0  0  0
   18.4767   18.3132   23.9936 H   0  0  0  0  0  0  0  0  0  0  0  0
   19.4507   20.1326   24.7166 C   0  0  0  0  0  0  0  0  0  0  0  0
   19.2967   21.2172   24.6318 H   0  0  0  0  0  0  0  0  0  0  0  0
   20.4078   19.9130   24.2250 H   0  0  0  0  0  0  0  0  0  0  0  0
   19.5562   19.7602   26.2138 C   0  0  0  0  0  0  0  0  0  0  0  0
   20.3354   20.3772   26.6808 H   0  0  0  0  0  0  0  0  0  0  0  0
   18.6143   20.0046   26.7228 H   0  0  0  0  0  0  0  0  0  0  0  0
   19.8927   18.2733   26.4322 C   0  0  0  0  0  0  0  0  0  0  0  0
   20.8317   18.0306   25.9275 H   0  0  0  0  0  0  0  0  0  0  0  0
   19.1020   17.6487   26.0087 H   0  0  0  0  0  0  0  0  0  0  0  0
   20.0399   17.9082   27.8951 N   0  3  0  0  0  0  0  0  0  0  0  0
   20.7889   18.4421   28.3483 H   0  0  0  0  0  0  0  0  0  0  0  0
   20.2637   16.9147   28.0193 H   0  0  0  0  0  0  0  0  0  0  0  0
   19.1790   18.0888   28.4220 H   0  0  0  0  0  0  0  0  0  0  0  0
  1  2  1  0  0  0  0
  1  3  1  0  0  0  0
  1  4  1  0  0  0  0
  1  5  1  0  0  0  0
  5  6  1  0  0  0  0
  5  7  1  0  0  0  0
  5  8  1  0  0  0  0
  8  9  1  0  0  0  0
  8 10  1  0  0  0  0
  8 11  1  0  0  0  0
 11 12  1  0  0  0  0
 11 13  1  0  0  0  0
 11 14  1  0  0  0  0
 14 15  1  0  0  0  0
 14 16  1  0  0  0  0
 14 17  1  0  0  0  0
 17 18  1  0  0  0  0
 17 19  1  0  0  0  0
 17 20  1  0  0  0  0
 20 21  1  0  0  0  0
 20 22  1  0  0  0  0
 20 23  1  0  0  0  0
 23 24  1  0  0  0  0
 23 25  1  0  0  0  0
 23 26  1  0  0  0  0
 26 27  1  0  0  0  0
 26 28  1  0  0  0  0
 26 29  1  0  0  0  0
M  END
> <VM2 Rank>
107

> <Conf_Id>
1812

> <Probability>
0.29

> <Sum Probability>
86.17

> <Delta G>
1.740

> <G>
59.888

> <E>
22.148

> <-TS>
37.739

> <U+W>
-1.997

> <U>
49.970

> <W>
-51.966

> <W(PB)>
-54.458

> <W(SA)>
2.492

> <Valence>
3.848

> <Coulomb>
45.370

> <VdW>
0.752

> <VdW6>
-9.323

> <VdW12>
10.075

> <Bond>
0.251

> <Angle>
1.161

> <Pdih>
2.436

> <Idih>
0.000

> <Tether>
0.000

$$$$
VeraChem MOL file


 29 28  0  0  0  0  0  0  0  0999 V2000     
   21.0263   18.0365   20.8753 C   0  0  0  0  0  0  0  0  0  0  0  0
   20.8021   17.3301   21.6841 H   0  0  0  0  0  0  0  0  0  0  0  0
   21.3247   17.4487   19.9976 H   0  0  0  0  0  0  0  0  0  0  0  0
   21.8867   18.6467   21.1792 H   0  0  0  0  0  0  0  0  0  0  0  0
   19.8058   18.9242   20.5418 C   0  0  0  0  0  0  0  0  0  0  0  0
   18.9498   18.2898   20.2726 H   0  0  0  0  0  0  0  0  0  0  0  0
   20.0372   19.5232   19.6499 H   0  0  0  0  0  0  0  0  0  0  0  0
   19.4075   19.8803   21.6919 C   0  0  0  0  0  0  0  0  0  0  0  0
   20.2604   20.5251   21.9448 H   0  0  0  0  0  0  0  0  0  0  0  0
   18.6122   20.5470   21.3308 H   0  0  0  0  0  0  0  0  0  0  0  0
   18.9144   19.1457   22.9614 C   0  0  0  0  0  0  0  0  0  0  0  0
   19.7253   18.5254   23.3620 H   0  0  0  0  0  0  0  0  0  0  0  0
   18.0910   18.4682   22.6968 H   0  0  0  0  0  0  0  0  0  0  0  0
   18.4378   20.1388   24.0483 C   0  0  0  0  0  0  0  0  0  0  0  0
   19.2706   20.7906   24.3446 H   0  0  0  0  0  0  0  0  0  0  0  0
   17.6738   20.8011   23.6182 H   0  0  0  0  0  0  0  0  0  0  0  0
   17.8347   19.4477   25.2985 C   0  0  0  0  0  0  0  0  0  0  0  0
   16.9378   18.8865   25.0021 H   0  0  0  0  0  0  0  0  0  0  0  0
   17.4890   20.2228   25.9964 H   0  0  0  0  0  0  0  0  0  0  0  0
   18.7993   18.4945   26.0471 C   0  0  0  0  0  0  0  0  0  0  0  0
   18.2832   18.0889   26.9275 H   0  0  0  0  0  0  0  0  0  0  0  0
   19.0455   17.6337   25.4123 H   0  0  0  0  0  0  0  0  0  0  0  0
   20.0947   19.1930   26.5002 C   0  0  0  0  0  0  0  0  0  0  0  0
   19.8491   20.0432   27.1422 H   0  0  0  0  0  0  0  0  0  0  0  0
   20.6377   19.5651   25.6275 H   0  0  0  0  0  0  0  0  0  0  0  0
   21.0237   18.2773   27.2705 N   0  3  0  0  0  0  0  0  0  0  0  0
   20.5815   17.9131   28.1210 H   0  0  0  0  0  0  0  0  0  0  0  0
   21.8797   18.7615   27.5627 H   0  0  0  0  0  0  0  0  0  0  0  0
   21.3136   17.4687   26.7107 H   0  0  0  0  0  0  0  0  0  0  0  0
  1  2  1  0  0  0  0
  1  3  1  0  0  0  0
  1  4  1  0  0  0  0
  1  5  1  0  0  0  0
  5  6  1  0  0  0  0
  5  7  1  0  0  0  0
  5  8  1  0  0  0  0
  8  9  1  0  0  0  0
  8 10  1  0  0  0  0
  8 11  1  0  0  0  0
 11 12  1  0  0  0  0
 11 13  1  0  0  0  0
 11 14  1  0  0  0  0
 14 15  1  0  0  0  0
 14 16  1  0  0  0  0
 14 17  1  0  0  0  0
 17 18  1  0  0  0  0
 17 19  1  0  0  0  0
 17 20  1  0  0  0  0
 20 21  1  0  0  0  0
 20 22  1  0  0  0  0
 20 23  1  0  0  0  0
 23 24  1  0  0  0  0
 23 25  1  0  0  0  0
 23 26  1  0  0  0  0
 26 27  1  0  0  0  0
 26 28  1  0  0  0  0
 26 29  1  0  0  0  0
M  END
> <VM2 Rank>
108

> <Conf_Id>
928

> <Probability>
0.29

> <Sum Probability>
86.46

> <Delta G>
1.742

> <G>
59.890

> <E>
22.252

> <-TS>
37.638

> <U+W>
-1.893

> <U>
50.296

> <W>
-52.188

> <W(PB)>
-54.691

> <W(SA)>
2.502

> <Valence>
3.839

> <Coulomb>
45.618

> <VdW>
0.839

> <VdW6>
-9.211

> <VdW12>
10.050

> <Bond>
0.249

> <Angle>
1.130

> <Pdih>
2.459

> <Idih>
0.000

> <Tether>
0.000

$$$$
VeraChem MOL file


 29 28  0  0  0  0  0  0  0  0999 V2000     
   21.2224   18.9651   20.4319 C   0  0  0  0  0  0  0  0  0  0  0  0
   21.4928   17.9329   20.6903 H   0  0  0  0  0  0  0  0  0  0  0  0
   20.7702   18.9600   19.4316 H   0  0  0  0  0  0  0  0  0  0  0  0
   22.1477   19.5533   20.3803 H   0  0  0  0  0  0  0  0  0  0  0  0
   20.2548   19.5621   21.4755 C   0  0  0  0  0  0  0  0  0  0  0  0
   20.0258   20.6029   21.2074 H   0  0  0  0  0  0  0  0  0  0  0  0
   20.7559   19.5869   22.4523 H   0  0  0  0  0  0  0  0  0  0  0  0
   18.9438   18.7467   21.5696 C   0  0  0  0  0  0  0  0  0  0  0  0
   18.4989   18.6700   20.5679 H   0  0  0  0  0  0  0  0  0  0  0  0
   19.1684   17.7172   21.8783 H   0  0  0  0  0  0  0  0  0  0  0  0
   17.8916   19.3695   22.5233 C   0  0  0  0  0  0  0  0  0  0  0  0
   16.9871   18.7461   22.5056 H   0  0  0  0  0  0  0  0  0  0  0  0
   17.5887   20.3488   22.1279 H   0  0  0  0  0  0  0  0  0  0  0  0
   18.3511   19.5470   23.9935 C   0  0  0  0  0  0  0  0  0  0  0  0
   19.1750   20.2706   24.0374 H   0  0  0  0  0  0  0  0  0  0  0  0
   17.5245   19.9957   24.5614 H   0  0  0  0  0  0  0  0  0  0  0  0
   18.7673   18.2186   24.6739 C   0  0  0  0  0  0  0  0  0  0  0  0
   19.6541   17.8021   24.1778 H   0  0  0  0  0  0  0  0  0  0  0  0
   17.9629   17.4809   24.5485 H   0  0  0  0  0  0  0  0  0  0  0  0
   19.0637   18.3806   26.1830 C   0  0  0  0  0  0  0  0  0  0  0  0
   18.1728   18.7678   26.6952 H   0  0  0  0  0  0  0  0  0  0  0  0
   19.2697   17.3919   26.6142 H   0  0  0  0  0  0  0  0  0  0  0  0
   20.2623   19.3086   26.4552 C   0  0  0  0  0  0  0  0  0  0  0  0
   20.0516   20.3087   26.0678 H   0  0  0  0  0  0  0  0  0  0  0  0
   21.1499   18.9218   25.9472 H   0  0  0  0  0  0  0  0  0  0  0  0
   20.5868   19.4399   27.9290 N   0  3  0  0  0  0  0  0  0  0  0  0
   19.7987   19.8244   28.4606 H   0  0  0  0  0  0  0  0  0  0  0  0
   21.3872   20.0615   28.0891 H   0  0  0  0  0  0  0  0  0  0  0  0
   20.8223   18.5351   28.3502 H   0  0  0  0  0  0  0  0  0  0  0  0
  1  2  1  0  0  0  0
  1  3  1  0  0  0  0
  1  4  1  0  0  0  0
  1  5  1  0  0  0  0
  5  6  1  0  0  0  0
  5  7  1  0  0  0  0
  5  8  1  0  0  0  0
  8  9  1  0  0  0  0
  8 10  1  0  0  0  0
  8 11  1  0  0  0  0
 11 12  1  0  0  0  0
 11 13  1  0  0  0  0
 11 14  1  0  0  0  0
 14 15  1  0  0  0  0
 14 16  1  0  0  0  0
 14 17  1  0  0  0  0
 17 18  1  0  0  0  0
 17 19  1  0  0  0  0
 17 20  1  0  0  0  0
 20 21  1  0  0  0  0
 20 22  1  0  0  0  0
 20 23  1  0  0  0  0
 23 24  1  0  0  0  0
 23 25  1  0  0  0  0
 23 26  1  0  0  0  0
 26 27  1  0  0  0  0
 26 28  1  0  0  0  0
 26 29  1  0  0  0  0
M  END
> <VM2 Rank>
109

> <Conf_Id>
1682

> <Probability>
0.29

> <Sum Probability>
86.75

> <Delta G>
1.744

> <G>
59.892

> <E>
22.153

> <-TS>
37.740

> <U+W>
-1.992

> <U>
49.970

> <W>
-51.962

> <W(PB)>
-54.437

> <W(SA)>
2.476

> <Valence>
3.848

> <Coulomb>
45.370

> <VdW>
0.752

> <VdW6>
-9.323

> <VdW12>
10.075

> <Bond>
0.251

> <Angle>
1.161

> <Pdih>
2.436

> <Idih>
0.000

> <Tether>
0.000

$$$$
VeraChem MOL file


 29 28  0  0  0  0  0  0  0  0999 V2000     
   20.3396   18.0577   19.9063 C   0  0  0  0  0  0  0  0  0  0  0  0
   19.4535   18.2724   19.2948 H   0  0  0  0  0  0  0  0  0  0  0  0
   21.1643   18.6863   19.5460 H   0  0  0  0  0  0  0  0  0  0  0  0
   20.6180   17.0089   19.7400 H   0  0  0  0  0  0  0  0  0  0  0  0
   20.0568   18.3159   21.4014 C   0  0  0  0  0  0  0  0  0  0  0  0
   20.9504   18.0647   21.9897 H   0  0  0  0  0  0  0  0  0  0  0  0
   19.2562   17.6420   21.7339 H   0  0  0  0  0  0  0  0  0  0  0  0
   19.6578   19.7879   21.6599 C   0  0  0  0  0  0  0  0  0  0  0  0
   20.4363   20.4461   21.2501 H   0  0  0  0  0  0  0  0  0  0  0  0
   18.7352   20.0236   21.1118 H   0  0  0  0  0  0  0  0  0  0  0  0
   19.4714   20.1230   23.1599 C   0  0  0  0  0  0  0  0  0  0  0  0
   19.3033   21.2044   23.2574 H   0  0  0  0  0  0  0  0  0  0  0  0
   20.4046   19.9039   23.6952 H   0  0  0  0  0  0  0  0  0  0  0  0
   18.2894   19.3673   23.8177 C   0  0  0  0  0  0  0  0  0  0  0  0
   17.3897   19.5047   23.2022 H   0  0  0  0  0  0  0  0  0  0  0  0
   18.4891   18.2884   23.8278 H   0  0  0  0  0  0  0  0  0  0  0  0
   17.9752   19.8497   25.2573 C   0  0  0  0  0  0  0  0  0  0  0  0
   17.1074   19.2912   25.6347 H   0  0  0  0  0  0  0  0  0  0  0  0
   17.6655   20.9034   25.2250 H   0  0  0  0  0  0  0  0  0  0  0  0
   19.1439   19.6997   26.2627 C   0  0  0  0  0  0  0  0  0  0  0  0
   19.9741   20.3574   25.9748 H   0  0  0  0  0  0  0  0  0  0  0  0
   18.8078   20.0432   27.2501 H   0  0  0  0  0  0  0  0  0  0  0  0
   19.6474   18.2491   26.3786 C   0  0  0  0  0  0  0  0  0  0  0  0
   20.0227   17.9104   25.4094 H   0  0  0  0  0  0  0  0  0  0  0  0
   18.8228   17.5960   26.6769 H   0  0  0  0  0  0  0  0  0  0  0  0
   20.7625   18.0878   27.3912 N   0  3  0  0  0  0  0  0  0  0  0  0
   21.5805   18.6581   27.1526 H   0  0  0  0  0  0  0  0  0  0  0  0
   21.0833   17.1152   27.4528 H   0  0  0  0  0  0  0  0  0  0  0  0
   20.4655   18.3645   28.3329 H   0  0  0  0  0  0  0  0  0  0  0  0
  1  2  1  0  0  0  0
  1  3  1  0  0  0  0
  1  4  1  0  0  0  0
  1  5  1  0  0  0  0
  5  6  1  0  0  0  0
  5  7  1  0  0  0  0
  5  8  1  0  0  0  0
  8  9  1  0  0  0  0
  8 10  1  0  0  0  0
  8 11  1  0  0  0  0
 11 12  1  0  0  0  0
 11 13  1  0  0  0  0
 11 14  1  0  0  0  0
 14 15  1  0  0  0  0
 14 16  1  0  0  0  0
 14 17  1  0  0  0  0
 17 18  1  0  0  0  0
 17 19  1  0  0  0  0
 17 20  1  0  0  0  0
 20 21  1  0  0  0  0
 20 22  1  0  0  0  0
 20 23  1  0  0  0  0
 23 24  1  0  0  0  0
 23 25  1  0  0  0  0
 23 26  1  0  0  0  0
 26 27  1  0  0  0  0
 26 28  1  0  0  0  0
 26 29  1  0  0  0  0
M  END
> <VM2 Rank>
110

> <Conf_Id>
1171

> <Probability>
0.29

> <Sum Probability>
87.03

> <Delta G>
1.750

> <G>
59.898

> <E>
22.253

> <-TS>
37.645

> <U+W>
-1.891

> <U>
50.347

> <W>
-52.238

> <W(PB)>
-54.725

> <W(SA)>
2.487

> <Valence>
3.843

> <Coulomb>
45.716

> <VdW>
0.787

> <VdW6>
-9.277

> <VdW12>
10.064

> <Bond>
0.250

> <Angle>
1.092

> <Pdih>
2.501

> <Idih>
0.000

> <Tether>
0.000

$$$$
VeraChem MOL file


 29 28  0  0  0  0  0  0  0  0999 V2000     
   20.8850   20.0108   20.8475 C   0  0  0  0  0  0  0  0  0  0  0  0
   20.3495   20.4984   20.0227 H   0  0  0  0  0  0  0  0  0  0  0  0
   20.7255   20.6012   21.7584 H   0  0  0  0  0  0  0  0  0  0  0  0
   21.9578   20.0418   20.6171 H   0  0  0  0  0  0  0  0  0  0  0  0
   20.4124   18.5509   21.0298 C   0  0  0  0  0  0  0  0  0  0  0  0
   20.9463   18.0908   21.8720 H   0  0  0  0  0  0  0  0  0  0  0  0
   20.6997   17.9725   20.1407 H   0  0  0  0  0  0  0  0  0  0  0  0
   18.8810   18.4190   21.2297 C   0  0  0  0  0  0  0  0  0  0  0  0
   18.3734   18.7698   20.3206 H   0  0  0  0  0  0  0  0  0  0  0  0
   18.6270   17.3542   21.3237 H   0  0  0  0  0  0  0  0  0  0  0  0
   18.3023   19.1843   22.4478 C   0  0  0  0  0  0  0  0  0  0  0  0
   17.2151   19.0271   22.4688 H   0  0  0  0  0  0  0  0  0  0  0  0
   18.4484   20.2645   22.3151 H   0  0  0  0  0  0  0  0  0  0  0  0
   18.9028   18.7372   23.8020 C   0  0  0  0  0  0  0  0  0  0  0  0
   18.7916   17.6496   23.9106 H   0  0  0  0  0  0  0  0  0  0  0  0
   19.9786   18.9526   23.8147 H   0  0  0  0  0  0  0  0  0  0  0  0
   18.2186   19.4487   24.9937 C   0  0  0  0  0  0  0  0  0  0  0  0
   17.1364   19.2635   24.9526 H   0  0  0  0  0  0  0  0  0  0  0  0
   18.3517   20.5357   24.9022 H   0  0  0  0  0  0  0  0  0  0  0  0
   18.7499   18.9779   26.3679 C   0  0  0  0  0  0  0  0  0  0  0  0
   18.1595   19.4560   27.1608 H   0  0  0  0  0  0  0  0  0  0  0  0
   18.5973   17.8953   26.4713 H   0  0  0  0  0  0  0  0  0  0  0  0
   20.2384   19.3135   26.5773 C   0  0  0  0  0  0  0  0  0  0  0  0
   20.3905   20.3914   26.4749 H   0  0  0  0  0  0  0  0  0  0  0  0
   20.8426   18.8065   25.8206 H   0  0  0  0  0  0  0  0  0  0  0  0
   20.7536   18.8957   27.9393 N   0  3  0  0  0  0  0  0  0  0  0  0
   21.7458   19.1277   28.0590 H   0  0  0  0  0  0  0  0  0  0  0  0
   20.6627   17.8853   28.0883 H   0  0  0  0  0  0  0  0  0  0  0  0
   20.2445   19.3599   28.6988 H   0  0  0  0  0  0  0  0  0  0  0  0
  1  2  1  0  0  0  0
  1  3  1  0  0  0  0
  1  4  1  0  0  0  0
  1  5  1  0  0  0  0
  5  6  1  0  0  0  0
  5  7  1  0  0  0  0
  5  8  1  0  0  0  0
  8  9  1  0  0  0  0
  8 10  1  0  0  0  0
  8 11  1  0  0  0  0
 11 12  1  0  0  0  0
 11 13  1  0  0  0  0
 11 14  1  0  0  0  0
 14 15  1  0  0  0  0
 14 16  1  0  0  0  0
 14 17  1  0  0  0  0
 17 18  1  0  0  0  0
 17 19  1  0  0  0  0
 17 20  1  0  0  0  0
 20 21  1  0  0  0  0
 20 22  1  0  0  0  0
 20 23  1  0  0  0  0
 23 24  1  0  0  0  0
 23 25  1  0  0  0  0
 23 26  1  0  0  0  0
 26 27  1  0  0  0  0
 26 28  1  0  0  0  0
 26 29  1  0  0  0  0
M  END
> <VM2 Rank>
111

> <Conf_Id>
2141

> <Probability>
0.28

> <Sum Probability>
87.31

> <Delta G>
1.766

> <G>
59.914

> <E>
22.192

> <-TS>
37.722

> <U+W>
-1.952

> <U>
49.868

> <W>
-51.820

> <W(PB)>
-54.293

> <W(SA)>
2.472

> <Valence>
3.839

> <Coulomb>
45.178

> <VdW>
0.851

> <VdW6>
-9.167

> <VdW12>
10.018

> <Bond>
0.248

> <Angle>
1.166

> <Pdih>
2.425

> <Idih>
0.000

> <Tether>
0.000

$$$$
VeraChem MOL file


 29 28  0  0  0  0  0  0  0  0999 V2000     
   20.1326   18.7176   19.6823 C   0  0  0  0  0  0  0  0  0  0  0  0
   20.8755   19.4806   19.9460 H   0  0  0  0  0  0  0  0  0  0  0  0
   20.5338   17.7350   19.9626 H   0  0  0  0  0  0  0  0  0  0  0  0
   20.0157   18.7338   18.5910 H   0  0  0  0  0  0  0  0  0  0  0  0
   18.7771   18.9825   20.3756 C   0  0  0  0  0  0  0  0  0  0  0  0
   18.0368   18.2662   19.9927 H   0  0  0  0  0  0  0  0  0  0  0  0
   18.4100   19.9810   20.1001 H   0  0  0  0  0  0  0  0  0  0  0  0
   18.8415   18.8550   21.9166 C   0  0  0  0  0  0  0  0  0  0  0  0
   17.8239   18.9563   22.3184 H   0  0  0  0  0  0  0  0  0  0  0  0
   19.1806   17.8442   22.1789 H   0  0  0  0  0  0  0  0  0  0  0  0
   19.7569   19.9135   22.5819 C   0  0  0  0  0  0  0  0  0  0  0  0
   19.4807   20.9100   22.2109 H   0  0  0  0  0  0  0  0  0  0  0  0
   20.8008   19.7497   22.2835 H   0  0  0  0  0  0  0  0  0  0  0  0
   19.6649   19.9214   24.1274 C   0  0  0  0  0  0  0  0  0  0  0  0
   20.2616   20.7622   24.5071 H   0  0  0  0  0  0  0  0  0  0  0  0
   18.6268   20.1185   24.4267 H   0  0  0  0  0  0  0  0  0  0  0  0
   20.1683   18.6090   24.7796 C   0  0  0  0  0  0  0  0  0  0  0  0
   21.1696   18.3739   24.3932 H   0  0  0  0  0  0  0  0  0  0  0  0
   19.5183   17.7714   24.4938 H   0  0  0  0  0  0  0  0  0  0  0  0
   20.2378   18.6902   26.3225 C   0  0  0  0  0  0  0  0  0  0  0  0
   20.6747   17.7600   26.7094 H   0  0  0  0  0  0  0  0  0  0  0  0
   20.9141   19.5027   26.6195 H   0  0  0  0  0  0  0  0  0  0  0  0
   18.8560   18.9046   26.9678 C   0  0  0  0  0  0  0  0  0  0  0  0
   18.1832   18.0942   26.6747 H   0  0  0  0  0  0  0  0  0  0  0  0
   18.4288   19.8495   26.6223 H   0  0  0  0  0  0  0  0  0  0  0  0
   18.9090   18.9444   28.4813 N   0  3  0  0  0  0  0  0  0  0  0  0
   19.2770   18.0713   28.8735 H   0  0  0  0  0  0  0  0  0  0  0  0
   17.9796   19.0878   28.8915 H   0  0  0  0  0  0  0  0  0  0  0  0
   19.5069   19.7043   28.8225 H   0  0  0  0  0  0  0  0  0  0  0  0
  1  2  1  0  0  0  0
  1  3  1  0  0  0  0
  1  4  1  0  0  0  0
  1  5  1  0  0  0  0
  5  6  1  0  0  0  0
  5  7  1  0  0  0  0
  5  8  1  0  0  0  0
  8  9  1  0  0  0  0
  8 10  1  0  0  0  0
  8 11  1  0  0  0  0
 11 12  1  0  0  0  0
 11 13  1  0  0  0  0
 11 14  1  0  0  0  0
 14 15  1  0  0  0  0
 14 16  1  0  0  0  0
 14 17  1  0  0  0  0
 17 18  1  0  0  0  0
 17 19  1  0  0  0  0
 17 20  1  0  0  0  0
 20 21  1  0  0  0  0
 20 22  1  0  0  0  0
 20 23  1  0  0  0  0
 23 24  1  0  0  0  0
 23 25  1  0  0  0  0
 23 26  1  0  0  0  0
 26 27  1  0  0  0  0
 26 28  1  0  0  0  0
 26 29  1  0  0  0  0
M  END
> <VM2 Rank>
112

> <Conf_Id>
1564

> <Probability>
0.28

> <Sum Probability>
87.59

> <Delta G>
1.769

> <G>
59.917

> <E>
22.387

> <-TS>
37.530

> <U+W>
-1.758

> <U>
49.749

> <W>
-51.507

> <W(PB)>
-54.006

> <W(SA)>
2.499

> <Valence>
3.885

> <Coulomb>
44.883

> <VdW>
0.981

> <VdW6>
-8.856

> <VdW12>
9.837

> <Bond>
0.242

> <Angle>
0.947

> <Pdih>
2.696

> <Idih>
0.000

> <Tether>
0.000

$$$$
VeraChem MOL file


 29 28  0  0  0  0  0  0  0  0999 V2000     
   20.8372   19.4510   19.9375 C   0  0  0  0  0  0  0  0  0  0  0  0
   21.0825   18.4571   19.5410 H   0  0  0  0  0  0  0  0  0  0  0  0
   20.0241   19.8703   19.3306 H   0  0  0  0  0  0  0  0  0  0  0  0
   21.7190   20.0920   19.8091 H   0  0  0  0  0  0  0  0  0  0  0  0
   20.4336   19.3711   21.4251 C   0  0  0  0  0  0  0  0  0  0  0  0
   20.2360   20.3857   21.7954 H   0  0  0  0  0  0  0  0  0  0  0  0
   21.2758   18.9761   22.0102 H   0  0  0  0  0  0  0  0  0  0  0  0
   19.1891   18.4755   21.6305 C   0  0  0  0  0  0  0  0  0  0  0  0
   18.3336   18.8992   21.0867 H   0  0  0  0  0  0  0  0  0  0  0  0
   19.3807   17.4901   21.1840 H   0  0  0  0  0  0  0  0  0  0  0  0
   18.8114   18.2749   23.1185 C   0  0  0  0  0  0  0  0  0  0  0  0
   19.6648   17.8322   23.6489 H   0  0  0  0  0  0  0  0  0  0  0  0
   17.9954   17.5415   23.1754 H   0  0  0  0  0  0  0  0  0  0  0  0
   18.3657   19.5813   23.8225 C   0  0  0  0  0  0  0  0  0  0  0  0
   19.2032   20.2886   23.8726 H   0  0  0  0  0  0  0  0  0  0  0  0
   17.5911   20.0691   23.2149 H   0  0  0  0  0  0  0  0  0  0  0  0
   17.7969   19.3502   25.2462 C   0  0  0  0  0  0  0  0  0  0  0  0
   16.8905   18.7330   25.1765 H   0  0  0  0  0  0  0  0  0  0  0  0
   17.4734   20.3164   25.6576 H   0  0  0  0  0  0  0  0  0  0  0  0
   18.7821   18.6864   26.2401 C   0  0  0  0  0  0  0  0  0  0  0  0
   18.2905   18.5945   27.2177 H   0  0  0  0  0  0  0  0  0  0  0  0
   19.0123   17.6639   25.9145 H   0  0  0  0  0  0  0  0  0  0  0  0
   20.0885   19.4845   26.4062 C   0  0  0  0  0  0  0  0  0  0  0  0
   19.8595   20.4995   26.7417 H   0  0  0  0  0  0  0  0  0  0  0  0
   20.6071   19.5472   25.4459 H   0  0  0  0  0  0  0  0  0  0  0  0
   21.0394   18.8631   27.4085 N   0  3  0  0  0  0  0  0  0  0  0  0
   20.6211   18.7999   28.3425 H   0  0  0  0  0  0  0  0  0  0  0  0
   21.9025   19.4094   27.5040 H   0  0  0  0  0  0  0  0  0  0  0  0
   21.3148   17.9138   27.1359 H   0  0  0  0  0  0  0  0  0  0  0  0
  1  2  1  0  0  0  0
  1  3  1  0  0  0  0
  1  4  1  0  0  0  0
  1  5  1  0  0  0  0
  5  6  1  0  0  0  0
  5  7  1  0  0  0  0
  5  8  1  0  0  0  0
  8  9  1  0  0  0  0
  8 10  1  0  0  0  0
  8 11  1  0  0  0  0
 11 12  1  0  0  0  0
 11 13  1  0  0  0  0
 11 14  1  0  0  0  0
 14 15  1  0  0  0  0
 14 16  1  0  0  0  0
 14 17  1  0  0  0  0
 17 18  1  0  0  0  0
 17 19  1  0  0  0  0
 17 20  1  0  0  0  0
 20 21  1  0  0  0  0
 20 22  1  0  0  0  0
 20 23  1  0  0  0  0
 23 24  1  0  0  0  0
 23 25  1  0  0  0  0
 23 26  1  0  0  0  0
 26 27  1  0  0  0  0
 26 28  1  0  0  0  0
 26 29  1  0  0  0  0
M  END
> <VM2 Rank>
113

> <Conf_Id>
1173

> <Probability>
0.28

> <Sum Probability>
87.86

> <Delta G>
1.770

> <G>
59.918

> <E>
22.273

> <-TS>
37.645

> <U+W>
-1.872

> <U>
50.347

> <W>
-52.218

> <W(PB)>
-54.718

> <W(SA)>
2.499

> <Valence>
3.843

> <Coulomb>
45.716

> <VdW>
0.787

> <VdW6>
-9.277

> <VdW12>
10.064

> <Bond>
0.250

> <Angle>
1.092

> <Pdih>
2.500

> <Idih>
0.000

> <Tether>
0.000

$$$$
VeraChem MOL file


 29 28  0  0  0  0  0  0  0  0999 V2000     
   19.7907   18.7573   19.1607 C   0  0  0  0  0  0  0  0  0  0  0  0
   19.2827   18.0180   18.5280 H   0  0  0  0  0  0  0  0  0  0  0  0
   19.6251   19.7488   18.7194 H   0  0  0  0  0  0  0  0  0  0  0  0
   20.8673   18.5446   19.1299 H   0  0  0  0  0  0  0  0  0  0  0  0
   19.2550   18.6966   20.6069 C   0  0  0  0  0  0  0  0  0  0  0  0
   19.4008   17.6809   20.9971 H   0  0  0  0  0  0  0  0  0  0  0  0
   18.1723   18.8846   20.6022 H   0  0  0  0  0  0  0  0  0  0  0  0
   19.9605   19.7279   21.5192 C   0  0  0  0  0  0  0  0  0  0  0  0
   21.0353   19.5054   21.5690 H   0  0  0  0  0  0  0  0  0  0  0  0
   19.8732   20.7236   21.0626 H   0  0  0  0  0  0  0  0  0  0  0  0
   19.3768   19.7950   22.9521 C   0  0  0  0  0  0  0  0  0  0  0  0
   18.3008   20.0111   22.9005 H   0  0  0  0  0  0  0  0  0  0  0  0
   19.8395   20.6480   23.4641 H   0  0  0  0  0  0  0  0  0  0  0  0
   19.6134   18.5046   23.7779 C   0  0  0  0  0  0  0  0  0  0  0  0
   19.1522   17.6523   23.2629 H   0  0  0  0  0  0  0  0  0  0  0  0
   20.6894   18.2890   23.8304 H   0  0  0  0  0  0  0  0  0  0  0  0
   19.0268   18.5681   25.2099 C   0  0  0  0  0  0  0  0  0  0  0  0
   19.1040   17.5667   25.6535 H   0  0  0  0  0  0  0  0  0  0  0  0
   17.9541   18.8006   25.1583 H   0  0  0  0  0  0  0  0  0  0  0  0
   19.7400   19.5913   26.1293 C   0  0  0  0  0  0  0  0  0  0  0  0
   20.8174   19.3818   26.1616 H   0  0  0  0  0  0  0  0  0  0  0  0
   19.6281   20.6025   25.7197 H   0  0  0  0  0  0  0  0  0  0  0  0
   19.1745   19.5961   27.5627 C   0  0  0  0  0  0  0  0  0  0  0  0
   18.0978   19.7840   27.5332 H   0  0  0  0  0  0  0  0  0  0  0  0
   19.6454   20.4001   28.1350 H   0  0  0  0  0  0  0  0  0  0  0  0
   19.4064   18.3011   28.3162 N   0  3  0  0  0  0  0  0  0  0  0  0
   20.4047   18.0812   28.3966 H   0  0  0  0  0  0  0  0  0  0  0  0
   18.9572   17.5059   27.8514 H   0  0  0  0  0  0  0  0  0  0  0  0
   19.0308   18.3431   29.2700 H   0  0  0  0  0  0  0  0  0  0  0  0
  1  2  1  0  0  0  0
  1  3  1  0  0  0  0
  1  4  1  0  0  0  0
  1  5  1  0  0  0  0
  5  6  1  0  0  0  0
  5  7  1  0  0  0  0
  5  8  1  0  0  0  0
  8  9  1  0  0  0  0
  8 10  1  0  0  0  0
  8 11  1  0  0  0  0
 11 12  1  0  0  0  0
 11 13  1  0  0  0  0
 11 14  1  0  0  0  0
 14 15  1  0  0  0  0
 14 16  1  0  0  0  0
 14 17  1  0  0  0  0
 17 18  1  0  0  0  0
 17 19  1  0  0  0  0
 17 20  1  0  0  0  0
 20 21  1  0  0  0  0
 20 22  1  0  0  0  0
 20 23  1  0  0  0  0
 23 24  1  0  0  0  0
 23 25  1  0  0  0  0
 23 26  1  0  0  0  0
 26 27  1  0  0  0  0
 26 28  1  0  0  0  0
 26 29  1  0  0  0  0
M  END
> <VM2 Rank>
114

> <Conf_Id>
2477

> <Probability>
0.27

> <Sum Probability>
88.13

> <Delta G>
1.791

> <G>
59.939

> <E>
22.549

> <-TS>
37.391

> <U+W>
-1.596

> <U>
49.901

> <W>
-51.496

> <W(PB)>
-54.002

> <W(SA)>
2.505

> <Valence>
3.877

> <Coulomb>
44.864

> <VdW>
1.159

> <VdW6>
-8.668

> <VdW12>
9.827

> <Bond>
0.259

> <Angle>
1.041

> <Pdih>
2.578

> <Idih>
0.000

> <Tether>
0.000

$$$$
VeraChem MOL file


 29 28  0  0  0  0  0  0  0  0999 V2000     
   20.0097   17.5586   20.7924 C   0  0  0  0  0  0  0  0  0  0  0  0
   20.8237   16.8648   20.5457 H   0  0  0  0  0  0  0  0  0  0  0  0
   19.4997   17.1668   21.6813 H   0  0  0  0  0  0  0  0  0  0  0  0
   19.2982   17.5533   19.9566 H   0  0  0  0  0  0  0  0  0  0  0  0
   20.5653   18.9793   21.0394 C   0  0  0  0  0  0  0  0  0  0  0  0
   21.1664   19.2800   20.1699 H   0  0  0  0  0  0  0  0  0  0  0  0
   21.2579   18.9636   21.8915 H   0  0  0  0  0  0  0  0  0  0  0  0
   19.4605   20.0426   21.2660 C   0  0  0  0  0  0  0  0  0  0  0  0
   19.9365   21.0228   21.4059 H   0  0  0  0  0  0  0  0  0  0  0  0
   18.8585   20.1287   20.3510 H   0  0  0  0  0  0  0  0  0  0  0  0
   18.5109   19.7687   22.4609 C   0  0  0  0  0  0  0  0  0  0  0  0
   17.9423   18.8463   22.2833 H   0  0  0  0  0  0  0  0  0  0  0  0
   17.7686   20.5775   22.5035 H   0  0  0  0  0  0  0  0  0  0  0  0
   19.2396   19.6805   23.8231 C   0  0  0  0  0  0  0  0  0  0  0  0
   19.9358   18.8326   23.8120 H   0  0  0  0  0  0  0  0  0  0  0  0
   19.8403   20.5875   23.9763 H   0  0  0  0  0  0  0  0  0  0  0  0
   18.2427   19.5161   24.9952 C   0  0  0  0  0  0  0  0  0  0  0  0
   17.6592   18.5950   24.8588 H   0  0  0  0  0  0  0  0  0  0  0  0
   17.5226   20.3458   24.9767 H   0  0  0  0  0  0  0  0  0  0  0  0
   18.9324   19.4895   26.3793 C   0  0  0  0  0  0  0  0  0  0  0  0
   19.4978   20.4192   26.5278 H   0  0  0  0  0  0  0  0  0  0  0  0
   18.1615   19.4620   27.1609 H   0  0  0  0  0  0  0  0  0  0  0  0
   19.8695   18.2798   26.5543 C   0  0  0  0  0  0  0  0  0  0  0  0
   20.6688   18.3196   25.8098 H   0  0  0  0  0  0  0  0  0  0  0  0
   19.3067   17.3541   26.4071 H   0  0  0  0  0  0  0  0  0  0  0  0
   20.5134   18.2230   27.9244 N   0  3  0  0  0  0  0  0  0  0  0  0
   21.0803   19.0560   28.1146 H   0  0  0  0  0  0  0  0  0  0  0  0
   21.1330   17.4110   28.0208 H   0  0  0  0  0  0  0  0  0  0  0  0
   19.8147   18.1560   28.6719 H   0  0  0  0  0  0  0  0  0  0  0  0
  1  2  1  0  0  0  0
  1  3  1  0  0  0  0
  1  4  1  0  0  0  0
  1  5  1  0  0  0  0
  5  6  1  0  0  0  0
  5  7  1  0  0  0  0
  5  8  1  0  0  0  0
  8  9  1  0  0  0  0
  8 10  1  0  0  0  0
  8 11  1  0  0  0  0
 11 12  1  0  0  0  0
 11 13  1  0  0  0  0
 11 14  1  0  0  0  0
 14 15  1  0  0  0  0
 14 16  1  0  0  0  0
 14 17  1  0  0  0  0
 17 18  1  0  0  0  0
 17 19  1  0  0  0  0
 17 20  1  0  0  0  0
 20 21  1  0  0  0  0
 20 22  1  0  0  0  0
 20 23  1  0  0  0  0
 23 24  1  0  0  0  0
 23 25  1  0  0  0  0
 23 26  1  0  0  0  0
 26 27  1  0  0  0  0
 26 28  1  0  0  0  0
 26 29  1  0  0  0  0
M  END
> <VM2 Rank>
115

> <Conf_Id>
1803

> <Probability>
0.26

> <Sum Probability>
88.39

> <Delta G>
1.813

> <G>
59.961

> <E>
22.239

> <-TS>
37.722

> <U+W>
-1.905

> <U>
49.868

> <W>
-51.773

> <W(PB)>
-54.278

> <W(SA)>
2.505

> <Valence>
3.839

> <Coulomb>
45.178

> <VdW>
0.851

> <VdW6>
-9.167

> <VdW12>
10.018

> <Bond>
0.248

> <Angle>
1.166

> <Pdih>
2.425

> <Idih>
0.000

> <Tether>
0.000

$$$$
VeraChem MOL file


 29 28  0  0  0  0  0  0  0  0999 V2000     
   21.3569   18.9966   20.9850 C   0  0  0  0  0  0  0  0  0  0  0  0
   21.8903   19.5489   21.7695 H   0  0  0  0  0  0  0  0  0  0  0  0
   21.2944   17.9438   21.2871 H   0  0  0  0  0  0  0  0  0  0  0  0
   21.9629   19.0422   20.0709 H   0  0  0  0  0  0  0  0  0  0  0  0
   19.9559   19.5994   20.7358 C   0  0  0  0  0  0  0  0  0  0  0  0
   19.4322   19.0133   19.9678 H   0  0  0  0  0  0  0  0  0  0  0  0
   20.0736   20.6113   20.3235 H   0  0  0  0  0  0  0  0  0  0  0  0
   19.0883   19.6818   22.0145 C   0  0  0  0  0  0  0  0  0  0  0  0
   19.6120   20.2895   22.7641 H   0  0  0  0  0  0  0  0  0  0  0  0
   18.1591   20.2164   21.7738 H   0  0  0  0  0  0  0  0  0  0  0  0
   18.7345   18.2944   22.6065 C   0  0  0  0  0  0  0  0  0  0  0  0
   19.6448   17.7836   22.9443 H   0  0  0  0  0  0  0  0  0  0  0  0
   18.3112   17.6644   21.8122 H   0  0  0  0  0  0  0  0  0  0  0  0
   17.7139   18.3627   23.7718 C   0  0  0  0  0  0  0  0  0  0  0  0
   16.7622   18.7563   23.3889 H   0  0  0  0  0  0  0  0  0  0  0  0
   17.5000   17.3406   24.1134 H   0  0  0  0  0  0  0  0  0  0  0  0
   18.1530   19.2181   24.9884 C   0  0  0  0  0  0  0  0  0  0  0  0
   17.3504   19.1901   25.7384 H   0  0  0  0  0  0  0  0  0  0  0  0
   18.2511   20.2708   24.6916 H   0  0  0  0  0  0  0  0  0  0  0  0
   19.4684   18.7350   25.6427 C   0  0  0  0  0  0  0  0  0  0  0  0
   19.3833   17.6714   25.9021 H   0  0  0  0  0  0  0  0  0  0  0  0
   20.2998   18.8305   24.9327 H   0  0  0  0  0  0  0  0  0  0  0  0
   19.7951   19.5464   26.9084 C   0  0  0  0  0  0  0  0  0  0  0  0
   18.9816   19.4438   27.6317 H   0  0  0  0  0  0  0  0  0  0  0  0
   19.8963   20.6043   26.6516 H   0  0  0  0  0  0  0  0  0  0  0  0
   21.0779   19.1038   27.5819 N   0  3  0  0  0  0  0  0  0  0  0  0
   21.0369   18.1214   27.8730 H   0  0  0  0  0  0  0  0  0  0  0  0
   21.2766   19.6566   28.4231 H   0  0  0  0  0  0  0  0  0  0  0  0
   21.8885   19.2017   26.9616 H   0  0  0  0  0  0  0  0  0  0  0  0
  1  2  1  0  0  0  0
  1  3  1  0  0  0  0
  1  4  1  0  0  0  0
  1  5  1  0  0  0  0
  5  6  1  0  0  0  0
  5  7  1  0  0  0  0
  5  8  1  0  0  0  0
  8  9  1  0  0  0  0
  8 10  1  0  0  0  0
  8 11  1  0  0  0  0
 11 12  1  0  0  0  0
 11 13  1  0  0  0  0
 11 14  1  0  0  0  0
 14 15  1  0  0  0  0
 14 16  1  0  0  0  0
 14 17  1  0  0  0  0
 17 18  1  0  0  0  0
 17 19  1  0  0  0  0
 17 20  1  0  0  0  0
 20 21  1  0  0  0  0
 20 22  1  0  0  0  0
 20 23  1  0  0  0  0
 23 24  1  0  0  0  0
 23 25  1  0  0  0  0
 23 26  1  0  0  0  0
 26 27  1  0  0  0  0
 26 28  1  0  0  0  0
 26 29  1  0  0  0  0
M  END
> <VM2 Rank>
116

> <Conf_Id>
1023

> <Probability>
0.25

> <Sum Probability>
88.64

> <Delta G>
1.820

> <G>
59.968

> <E>
22.203

> <-TS>
37.765

> <U+W>
-1.941

> <U>
50.163

> <W>
-52.104

> <W(PB)>
-54.562

> <W(SA)>
2.458

> <Valence>
4.032

> <Coulomb>
45.327

> <VdW>
0.804

> <VdW6>
-9.390

> <VdW12>
10.194

> <Bond>
0.264

> <Angle>
1.252

> <Pdih>
2.516

> <Idih>
0.000

> <Tether>
0.000

$$$$
VeraChem MOL file


 29 28  0  0  0  0  0  0  0  0999 V2000     
   19.0329   18.2242   19.7544 C   0  0  0  0  0  0  0  0  0  0  0  0
   18.0269   18.2427   20.1917 H   0  0  0  0  0  0  0  0  0  0  0  0
   18.9187   18.2322   18.6627 H   0  0  0  0  0  0  0  0  0  0  0  0
   19.5129   17.2777   20.0351 H   0  0  0  0  0  0  0  0  0  0  0  0
   19.8754   19.4335   20.2192 C   0  0  0  0  0  0  0  0  0  0  0  0
   19.3619   20.3670   19.9497 H   0  0  0  0  0  0  0  0  0  0  0  0
   20.8266   19.4358   19.6687 H   0  0  0  0  0  0  0  0  0  0  0  0
   20.1791   19.4220   21.7367 C   0  0  0  0  0  0  0  0  0  0  0  0
   20.7193   18.4995   21.9863 H   0  0  0  0  0  0  0  0  0  0  0  0
   20.8607   20.2535   21.9628 H   0  0  0  0  0  0  0  0  0  0  0  0
   18.9102   19.5525   22.6167 C   0  0  0  0  0  0  0  0  0  0  0  0
   18.2757   18.6644   22.4971 H   0  0  0  0  0  0  0  0  0  0  0  0
   18.3172   20.4072   22.2631 H   0  0  0  0  0  0  0  0  0  0  0  0
   19.2186   19.7586   24.1201 C   0  0  0  0  0  0  0  0  0  0  0  0
   19.8412   20.6549   24.2478 H   0  0  0  0  0  0  0  0  0  0  0  0
   18.2718   19.9647   24.6363 H   0  0  0  0  0  0  0  0  0  0  0  0
   19.9137   18.5406   24.7799 C   0  0  0  0  0  0  0  0  0  0  0  0
   20.8740   18.3502   24.2835 H   0  0  0  0  0  0  0  0  0  0  0  0
   19.3022   17.6396   24.6329 H   0  0  0  0  0  0  0  0  0  0  0  0
   20.1820   18.7407   26.2901 C   0  0  0  0  0  0  0  0  0  0  0  0
   20.7667   17.8892   26.6631 H   0  0  0  0  0  0  0  0  0  0  0  0
   20.8000   19.6361   26.4398 H   0  0  0  0  0  0  0  0  0  0  0  0
   18.8874   18.8599   27.1161 C   0  0  0  0  0  0  0  0  0  0  0  0
   18.2720   17.9688   26.9661 H   0  0  0  0  0  0  0  0  0  0  0  0
   18.3169   19.7323   26.7878 H   0  0  0  0  0  0  0  0  0  0  0  0
   19.1446   19.0060   28.6018 N   0  3  0  0  0  0  0  0  0  0  0  0
   19.6552   18.2020   28.9818 H   0  0  0  0  0  0  0  0  0  0  0  0
   18.2708   19.0838   29.1339 H   0  0  0  0  0  0  0  0  0  0  0  0
   19.6986   19.8428   28.8129 H   0  0  0  0  0  0  0  0  0  0  0  0
  1  2  1  0  0  0  0
  1  3  1  0  0  0  0
  1  4  1  0  0  0  0
  1  5  1  0  0  0  0
  5  6  1  0  0  0  0
  5  7  1  0  0  0  0
  5  8  1  0  0  0  0
  8  9  1  0  0  0  0
  8 10  1  0  0  0  0
  8 11  1  0  0  0  0
 11 12  1  0  0  0  0
 11 13  1  0  0  0  0
 11 14  1  0  0  0  0
 14 15  1  0  0  0  0
 14 16  1  0  0  0  0
 14 17  1  0  0  0  0
 17 18  1  0  0  0  0
 17 19  1  0  0  0  0
 17 20  1  0  0  0  0
 20 21  1  0  0  0  0
 20 22  1  0  0  0  0
 20 23  1  0  0  0  0
 23 24  1  0  0  0  0
 23 25  1  0  0  0  0
 23 26  1  0  0  0  0
 26 27  1  0  0  0  0
 26 28  1  0  0  0  0
 26 29  1  0  0  0  0
M  END
> <VM2 Rank>
117

> <Conf_Id>
2639

> <Probability>
0.25

> <Sum Probability>
88.89

> <Delta G>
1.832

> <G>
59.980

> <E>
22.482

> <-TS>
37.498

> <U+W>
-1.662

> <U>
49.778

> <W>
-51.441

> <W(PB)>
-53.961

> <W(SA)>
2.520

> <Valence>
3.946

> <Coulomb>
44.784

> <VdW>
1.049

> <VdW6>
-8.795

> <VdW12>
9.844

> <Bond>
0.248

> <Angle>
1.005

> <Pdih>
2.693

> <Idih>
0.000

> <Tether>
0.000

$$$$
VeraChem MOL file


 29 28  0  0  0  0  0  0  0  0999 V2000     
   19.7202   20.1560   19.7977 C   0  0  0  0  0  0  0  0  0  0  0  0
   20.6860   20.5748   20.1089 H   0  0  0  0  0  0  0  0  0  0  0  0
   19.6420   20.2652   18.7083 H   0  0  0  0  0  0  0  0  0  0  0  0
   18.9223   20.7594   20.2482 H   0  0  0  0  0  0  0  0  0  0  0  0
   19.6034   18.6690   20.2021 C   0  0  0  0  0  0  0  0  0  0  0  0
   20.3471   18.0885   19.6385 H   0  0  0  0  0  0  0  0  0  0  0  0
   18.6196   18.2809   19.9030 H   0  0  0  0  0  0  0  0  0  0  0  0
   19.8246   18.4258   21.7144 C   0  0  0  0  0  0  0  0  0  0  0  0
   19.8249   17.3426   21.8976 H   0  0  0  0  0  0  0  0  0  0  0  0
   20.8224   18.7893   21.9928 H   0  0  0  0  0  0  0  0  0  0  0  0
   18.7460   19.0909   22.6064 C   0  0  0  0  0  0  0  0  0  0  0  0
   17.7516   18.8174   22.2276 H   0  0  0  0  0  0  0  0  0  0  0  0
   18.8164   20.1841   22.5311 H   0  0  0  0  0  0  0  0  0  0  0  0
   18.8337   18.6769   24.0959 C   0  0  0  0  0  0  0  0  0  0  0  0
   17.9623   19.0946   24.6169 H   0  0  0  0  0  0  0  0  0  0  0  0
   18.7487   17.5847   24.1792 H   0  0  0  0  0  0  0  0  0  0  0  0
   20.1324   19.1550   24.7936 C   0  0  0  0  0  0  0  0  0  0  0  0
   20.2295   20.2447   24.6909 H   0  0  0  0  0  0  0  0  0  0  0  0
   21.0041   18.7156   24.2917 H   0  0  0  0  0  0  0  0  0  0  0  0
   20.1928   18.7710   26.2908 C   0  0  0  0  0  0  0  0  0  0  0  0
   20.1042   17.6815   26.3964 H   0  0  0  0  0  0  0  0  0  0  0  0
   21.1785   19.0463   26.6889 H   0  0  0  0  0  0  0  0  0  0  0  0
   19.1023   19.4638   27.1295 C   0  0  0  0  0  0  0  0  0  0  0  0
   18.1136   19.1616   26.7751 H   0  0  0  0  0  0  0  0  0  0  0  0
   19.1902   20.5484   27.0235 H   0  0  0  0  0  0  0  0  0  0  0  0
   19.1885   19.1296   28.6046 N   0  3  0  0  0  0  0  0  0  0  0  0
   20.0868   19.4146   29.0087 H   0  0  0  0  0  0  0  0  0  0  0  0
   19.0864   18.1235   28.7747 H   0  0  0  0  0  0  0  0  0  0  0  0
   18.4547   19.6003   29.1454 H   0  0  0  0  0  0  0  0  0  0  0  0
  1  2  1  0  0  0  0
  1  3  1  0  0  0  0
  1  4  1  0  0  0  0
  1  5  1  0  0  0  0
  5  6  1  0  0  0  0
  5  7  1  0  0  0  0
  5  8  1  0  0  0  0
  8  9  1  0  0  0  0
  8 10  1  0  0  0  0
  8 11  1  0  0  0  0
 11 12  1  0  0  0  0
 11 13  1  0  0  0  0
 11 14  1  0  0  0  0
 14 15  1  0  0  0  0
 14 16  1  0  0  0  0
 14 17  1  0  0  0  0
 17 18  1  0  0  0  0
 17 19  1  0  0  0  0
 17 20  1  0  0  0  0
 20 21  1  0  0  0  0
 20 22  1  0  0  0  0
 20 23  1  0  0  0  0
 23 24  1  0  0  0  0
 23 25  1  0  0  0  0
 23 26  1  0  0  0  0
 26 27  1  0  0  0  0
 26 28  1  0  0  0  0
 26 29  1  0  0  0  0
M  END
> <VM2 Rank>
118

> <Conf_Id>
2583

> <Probability>
0.25

> <Sum Probability>
89.13

> <Delta G>
1.835

> <G>
59.983

> <E>
22.485

> <-TS>
37.498

> <U+W>
-1.660

> <U>
49.778

> <W>
-51.438

> <W(PB)>
-53.956

> <W(SA)>
2.518

> <Valence>
3.946

> <Coulomb>
44.784

> <VdW>
1.049

> <VdW6>
-8.795

> <VdW12>
9.844

> <Bond>
0.248

> <Angle>
1.005

> <Pdih>
2.693

> <Idih>
0.000

> <Tether>
0.000

$$$$
VeraChem MOL file


 29 28  0  0  0  0  0  0  0  0999 V2000     
   20.3571   18.2466   20.2471 C   0  0  0  0  0  0  0  0  0  0  0  0
   20.6895   17.2517   19.9240 H   0  0  0  0  0  0  0  0  0  0  0  0
   20.0870   18.8188   19.3501 H   0  0  0  0  0  0  0  0  0  0  0  0
   21.2110   18.7415   20.7264 H   0  0  0  0  0  0  0  0  0  0  0  0
   19.1563   18.1294   21.2126 C   0  0  0  0  0  0  0  0  0  0  0  0
   19.4531   17.5649   22.1067 H   0  0  0  0  0  0  0  0  0  0  0  0
   18.3695   17.5346   20.7282 H   0  0  0  0  0  0  0  0  0  0  0  0
   18.5594   19.5006   21.6191 C   0  0  0  0  0  0  0  0  0  0  0  0
   18.1782   20.0013   20.7186 H   0  0  0  0  0  0  0  0  0  0  0  0
   17.6806   19.3325   22.2555 H   0  0  0  0  0  0  0  0  0  0  0  0
   19.5427   20.4616   22.3401 C   0  0  0  0  0  0  0  0  0  0  0  0
   19.0046   21.3832   22.6006 H   0  0  0  0  0  0  0  0  0  0  0  0
   20.3290   20.7689   21.6378 H   0  0  0  0  0  0  0  0  0  0  0  0
   20.2081   19.8911   23.6189 C   0  0  0  0  0  0  0  0  0  0  0  0
   20.8356   19.0276   23.3613 H   0  0  0  0  0  0  0  0  0  0  0  0
   20.8913   20.6516   24.0214 H   0  0  0  0  0  0  0  0  0  0  0  0
   19.1937   19.4931   24.7175 C   0  0  0  0  0  0  0  0  0  0  0  0
   18.5437   18.6867   24.3528 H   0  0  0  0  0  0  0  0  0  0  0  0
   18.5437   20.3494   24.9450 H   0  0  0  0  0  0  0  0  0  0  0  0
   19.9007   19.0256   26.0085 C   0  0  0  0  0  0  0  0  0  0  0  0
   20.5503   18.1689   25.7844 H   0  0  0  0  0  0  0  0  0  0  0  0
   20.5457   19.8288   26.3892 H   0  0  0  0  0  0  0  0  0  0  0  0
   18.8851   18.6277   27.0937 C   0  0  0  0  0  0  0  0  0  0  0  0
   18.2513   17.8165   26.7253 H   0  0  0  0  0  0  0  0  0  0  0  0
   18.2465   19.4827   27.3315 H   0  0  0  0  0  0  0  0  0  0  0  0
   19.5410   18.1624   28.3775 N   0  3  0  0  0  0  0  0  0  0  0  0
   20.1362   17.3412   28.2264 H   0  0  0  0  0  0  0  0  0  0  0  0
   18.8472   17.9023   29.0872 H   0  0  0  0  0  0  0  0  0  0  0  0
   20.1318   18.8918   28.7905 H   0  0  0  0  0  0  0  0  0  0  0  0
  1  2  1  0  0  0  0
  1  3  1  0  0  0  0
  1  4  1  0  0  0  0
  1  5  1  0  0  0  0
  5  6  1  0  0  0  0
  5  7  1  0  0  0  0
  5  8  1  0  0  0  0
  8  9  1  0  0  0  0
  8 10  1  0  0  0  0
  8 11  1  0  0  0  0
 11 12  1  0  0  0  0
 11 13  1  0  0  0  0
 11 14  1  0  0  0  0
 14 15  1  0  0  0  0
 14 16  1  0  0  0  0
 14 17  1  0  0  0  0
 17 18  1  0  0  0  0
 17 19  1  0  0  0  0
 17 20  1  0  0  0  0
 20 21  1  0  0  0  0
 20 22  1  0  0  0  0
 20 23  1  0  0  0  0
 23 24  1  0  0  0  0
 23 25  1  0  0  0  0
 23 26  1  0  0  0  0
 26 27  1  0  0  0  0
 26 28  1  0  0  0  0
 26 29  1  0  0  0  0
M  END
> <VM2 Rank>
119

> <Conf_Id>
603

> <Probability>
0.24

> <Sum Probability>
89.37

> <Delta G>
1.859

> <G>
60.007

> <E>
22.050

> <-TS>
37.956

> <U+W>
-2.094

> <U>
49.550

> <W>
-51.645

> <W(PB)>
-54.119

> <W(SA)>
2.474

> <Valence>
3.991

> <Coulomb>
44.825

> <VdW>
0.734

> <VdW6>
-9.508

> <VdW12>
10.242

> <Bond>
0.268

> <Angle>
1.374

> <Pdih>
2.348

> <Idih>
0.000

> <Tether>
0.000

$$$$
VeraChem MOL file


 29 28  0  0  0  0  0  0  0  0999 V2000     
   20.3556   18.9561   19.5955 C   0  0  0  0  0  0  0  0  0  0  0  0
   21.3697   19.2967   19.8415 H   0  0  0  0  0  0  0  0  0  0  0  0
   20.2944   17.8802   19.8004 H   0  0  0  0  0  0  0  0  0  0  0  0
   20.2076   19.0944   18.5167 H   0  0  0  0  0  0  0  0  0  0  0  0
   19.2945   19.7486   20.3922 C   0  0  0  0  0  0  0  0  0  0  0  0
   18.2917   19.3664   20.1554 H   0  0  0  0  0  0  0  0  0  0  0  0
   19.3115   20.7951   20.0570 H   0  0  0  0  0  0  0  0  0  0  0  0
   19.5193   19.7158   21.9234 C   0  0  0  0  0  0  0  0  0  0  0  0
   20.5220   20.1004   22.1550 H   0  0  0  0  0  0  0  0  0  0  0  0
   18.8063   20.4106   22.3851 H   0  0  0  0  0  0  0  0  0  0  0  0
   19.3436   18.3058   22.5424 C   0  0  0  0  0  0  0  0  0  0  0  0
   20.0543   17.6114   22.0762 H   0  0  0  0  0  0  0  0  0  0  0  0
   18.3402   17.9219   22.3125 H   0  0  0  0  0  0  0  0  0  0  0  0
   19.5752   18.2697   24.0731 C   0  0  0  0  0  0  0  0  0  0  0  0
   19.5599   17.2211   24.4009 H   0  0  0  0  0  0  0  0  0  0  0  0
   20.5819   18.6484   24.2953 H   0  0  0  0  0  0  0  0  0  0  0  0
   18.5158   19.0636   24.8788 C   0  0  0  0  0  0  0  0  0  0  0  0
   17.5112   18.7467   24.5666 H   0  0  0  0  0  0  0  0  0  0  0  0
   18.5910   20.1350   24.6512 H   0  0  0  0  0  0  0  0  0  0  0  0
   18.6469   18.8638   26.4068 C   0  0  0  0  0  0  0  0  0  0  0  0
   17.8224   19.3888   26.9074 H   0  0  0  0  0  0  0  0  0  0  0  0
   18.5357   17.7989   26.6510 H   0  0  0  0  0  0  0  0  0  0  0  0
   19.9863   19.3848   26.9603 C   0  0  0  0  0  0  0  0  0  0  0  0
   20.0957   20.4459   26.7204 H   0  0  0  0  0  0  0  0  0  0  0  0
   20.8142   18.8399   26.4994 H   0  0  0  0  0  0  0  0  0  0  0  0
   20.1068   19.2298   28.4624 N   0  3  0  0  0  0  0  0  0  0  0  0
   21.0050   19.5824   28.8110 H   0  0  0  0  0  0  0  0  0  0  0  0
   20.0383   18.2485   28.7517 H   0  0  0  0  0  0  0  0  0  0  0  0
   19.3713   19.7432   28.9594 H   0  0  0  0  0  0  0  0  0  0  0  0
  1  2  1  0  0  0  0
  1  3  1  0  0  0  0
  1  4  1  0  0  0  0
  1  5  1  0  0  0  0
  5  6  1  0  0  0  0
  5  7  1  0  0  0  0
  5  8  1  0  0  0  0
  8  9  1  0  0  0  0
  8 10  1  0  0  0  0
  8 11  1  0  0  0  0
 11 12  1  0  0  0  0
 11 13  1  0  0  0  0
 11 14  1  0  0  0  0
 14 15  1  0  0  0  0
 14 16  1  0  0  0  0
 14 17  1  0  0  0  0
 17 18  1  0  0  0  0
 17 19  1  0  0  0  0
 17 20  1  0  0  0  0
 20 21  1  0  0  0  0
 20 22  1  0  0  0  0
 20 23  1  0  0  0  0
 23 24  1  0  0  0  0
 23 25  1  0  0  0  0
 23 26  1  0  0  0  0
 26 27  1  0  0  0  0
 26 28  1  0  0  0  0
 26 29  1  0  0  0  0
M  END
> <VM2 Rank>
120

> <Conf_Id>
1297

> <Probability>
0.24

> <Sum Probability>
89.61

> <Delta G>
1.865

> <G>
60.013

> <E>
22.558

> <-TS>
37.454

> <U+W>
-1.586

> <U>
49.932

> <W>
-51.518

> <W(PB)>
-54.055

> <W(SA)>
2.537

> <Valence>
3.987

> <Coulomb>
44.891

> <VdW>
1.054

> <VdW6>
-8.768

> <VdW12>
9.822

> <Bond>
0.251

> <Angle>
1.043

> <Pdih>
2.693

> <Idih>
0.000

> <Tether>
0.000

$$$$
VeraChem MOL file


 29 28  0  0  0  0  0  0  0  0999 V2000     
   21.2397   18.8152   20.9642 C   0  0  0  0  0  0  0  0  0  0  0  0
   21.4567   18.8808   22.0377 H   0  0  0  0  0  0  0  0  0  0  0  0
   21.2899   17.7599   20.6663 H   0  0  0  0  0  0  0  0  0  0  0  0
   22.0354   19.3531   20.4327 H   0  0  0  0  0  0  0  0  0  0  0  0
   19.8586   19.4217   20.6283 C   0  0  0  0  0  0  0  0  0  0  0  0
   19.7376   19.4429   19.5362 H   0  0  0  0  0  0  0  0  0  0  0  0
   19.8251   20.4699   20.9545 H   0  0  0  0  0  0  0  0  0  0  0  0
   18.6734   18.6325   21.2405 C   0  0  0  0  0  0  0  0  0  0  0  0
   17.7331   19.1080   20.9293 H   0  0  0  0  0  0  0  0  0  0  0  0
   18.6573   17.6230   20.8072 H   0  0  0  0  0  0  0  0  0  0  0  0
   18.6894   18.5103   22.7860 C   0  0  0  0  0  0  0  0  0  0  0  0
   19.5683   17.9325   23.0978 H   0  0  0  0  0  0  0  0  0  0  0  0
   17.8139   17.9234   23.0958 H   0  0  0  0  0  0  0  0  0  0  0  0
   18.6624   19.8791   23.5116 C   0  0  0  0  0  0  0  0  0  0  0  0
   19.5867   20.4340   23.3032 H   0  0  0  0  0  0  0  0  0  0  0  0
   17.8392   20.4828   23.1056 H   0  0  0  0  0  0  0  0  0  0  0  0
   18.4766   19.7602   25.0440 C   0  0  0  0  0  0  0  0  0  0  0  0
   17.5419   19.2251   25.2619 H   0  0  0  0  0  0  0  0  0  0  0  0
   18.3577   20.7703   25.4603 H   0  0  0  0  0  0  0  0  0  0  0  0
   19.6573   19.0592   25.7558 C   0  0  0  0  0  0  0  0  0  0  0  0
   19.7430   18.0207   25.4122 H   0  0  0  0  0  0  0  0  0  0  0  0
   20.5973   19.5650   25.4980 H   0  0  0  0  0  0  0  0  0  0  0  0
   19.4745   19.0679   27.2836 C   0  0  0  0  0  0  0  0  0  0  0  0
   18.5476   18.5509   27.5464 H   0  0  0  0  0  0  0  0  0  0  0  0
   19.4067   20.0991   27.6405 H   0  0  0  0  0  0  0  0  0  0  0  0
   20.6122   18.3919   28.0210 N   0  3  0  0  0  0  0  0  0  0  0  0
   20.7120   17.4080   27.7499 H   0  0  0  0  0  0  0  0  0  0  0  0
   20.4708   18.4091   29.0371 H   0  0  0  0  0  0  0  0  0  0  0  0
   21.5115   18.8489   27.8368 H   0  0  0  0  0  0  0  0  0  0  0  0
  1  2  1  0  0  0  0
  1  3  1  0  0  0  0
  1  4  1  0  0  0  0
  1  5  1  0  0  0  0
  5  6  1  0  0  0  0
  5  7  1  0  0  0  0
  5  8  1  0  0  0  0
  8  9  1  0  0  0  0
  8 10  1  0  0  0  0
  8 11  1  0  0  0  0
 11 12  1  0  0  0  0
 11 13  1  0  0  0  0
 11 14  1  0  0  0  0
 14 15  1  0  0  0  0
 14 16  1  0  0  0  0
 14 17  1  0  0  0  0
 17 18  1  0  0  0  0
 17 19  1  0  0  0  0
 17 20  1  0  0  0  0
 20 21  1  0  0  0  0
 20 22  1  0  0  0  0
 20 23  1  0  0  0  0
 23 24  1  0  0  0  0
 23 25  1  0  0  0  0
 23 26  1  0  0  0  0
 26 27  1  0  0  0  0
 26 28  1  0  0  0  0
 26 29  1  0  0  0  0
M  END
> <VM2 Rank>
121

> <Conf_Id>
904

> <Probability>
0.23

> <Sum Probability>
89.84

> <Delta G>
1.882

> <G>
60.030

> <E>
22.293

> <-TS>
37.737

> <U+W>
-1.852

> <U>
49.942

> <W>
-51.794

> <W(PB)>
-54.236

> <W(SA)>
2.442

> <Valence>
4.040

> <Coulomb>
45.040

> <VdW>
0.862

> <VdW6>
-9.281

> <VdW12>
10.143

> <Bond>
0.263

> <Angle>
1.238

> <Pdih>
2.539

> <Idih>
0.000

> <Tether>
0.000

$$$$
VeraChem MOL file


 29 28  0  0  0  0  0  0  0  0999 V2000     
   19.6977   18.3844   19.4837 C   0  0  0  0  0  0  0  0  0  0  0  0
   19.4082   18.4937   18.4305 H   0  0  0  0  0  0  0  0  0  0  0  0
   20.7761   18.1819   19.5159 H   0  0  0  0  0  0  0  0  0  0  0  0
   19.1706   17.5079   19.8802 H   0  0  0  0  0  0  0  0  0  0  0  0
   19.3488   19.6651   20.2754 C   0  0  0  0  0  0  0  0  0  0  0  0
   18.2618   19.8265   20.2582 H   0  0  0  0  0  0  0  0  0  0  0  0
   19.7956   20.5285   19.7629 H   0  0  0  0  0  0  0  0  0  0  0  0
   19.8521   19.6437   21.7392 C   0  0  0  0  0  0  0  0  0  0  0  0
   20.9388   19.4831   21.7506 H   0  0  0  0  0  0  0  0  0  0  0  0
   19.6810   20.6385   22.1695 H   0  0  0  0  0  0  0  0  0  0  0  0
   19.1551   18.5715   22.6151 C   0  0  0  0  0  0  0  0  0  0  0  0
   19.3222   17.5794   22.1764 H   0  0  0  0  0  0  0  0  0  0  0  0
   18.0686   18.7338   22.6073 H   0  0  0  0  0  0  0  0  0  0  0  0
   19.6643   18.5368   24.0774 C   0  0  0  0  0  0  0  0  0  0  0  0
   19.2342   17.6519   24.5646 H   0  0  0  0  0  0  0  0  0  0  0  0
   20.7536   18.3932   24.0836 H   0  0  0  0  0  0  0  0  0  0  0  0
   19.2977   19.8027   24.8935 C   0  0  0  0  0  0  0  0  0  0  0  0
   18.2107   19.9606   24.8654 H   0  0  0  0  0  0  0  0  0  0  0  0
   19.7534   20.6870   24.4303 H   0  0  0  0  0  0  0  0  0  0  0  0
   19.7700   19.7327   26.3649 C   0  0  0  0  0  0  0  0  0  0  0  0
   20.8573   19.5815   26.3967 H   0  0  0  0  0  0  0  0  0  0  0  0
   19.5729   20.6992   26.8477 H   0  0  0  0  0  0  0  0  0  0  0  0
   19.0678   18.6202   27.1658 C   0  0  0  0  0  0  0  0  0  0  0  0
   19.2944   17.6461   26.7251 H   0  0  0  0  0  0  0  0  0  0  0  0
   17.9853   18.7704   27.1329 H   0  0  0  0  0  0  0  0  0  0  0  0
   19.4905   18.5810   28.6200 N   0  3  0  0  0  0  0  0  0  0  0  0
   19.0121   17.8342   29.1359 H   0  0  0  0  0  0  0  0  0  0  0  0
   19.2788   19.4605   29.1030 H   0  0  0  0  0  0  0  0  0  0  0  0
   20.4975   18.4160   28.7206 H   0  0  0  0  0  0  0  0  0  0  0  0
  1  2  1  0  0  0  0
  1  3  1  0  0  0  0
  1  4  1  0  0  0  0
  1  5  1  0  0  0  0
  5  6  1  0  0  0  0
  5  7  1  0  0  0  0
  5  8  1  0  0  0  0
  8  9  1  0  0  0  0
  8 10  1  0  0  0  0
  8 11  1  0  0  0  0
 11 12  1  0  0  0  0
 11 13  1  0  0  0  0
 11 14  1  0  0  0  0
 14 15  1  0  0  0  0
 14 16  1  0  0  0  0
 14 17  1  0  0  0  0
 17 18  1  0  0  0  0
 17 19  1  0  0  0  0
 17 20  1  0  0  0  0
 20 21  1  0  0  0  0
 20 22  1  0  0  0  0
 20 23  1  0  0  0  0
 23 24  1  0  0  0  0
 23 25  1  0  0  0  0
 23 26  1  0  0  0  0
 26 27  1  0  0  0  0
 26 28  1  0  0  0  0
 26 29  1  0  0  0  0
M  END
> <VM2 Rank>
122

> <Conf_Id>
2402

> <Probability>
0.23

> <Sum Probability>
90.06

> <Delta G>
1.888

> <G>
60.036

> <E>
22.639

> <-TS>
37.397

> <U+W>
-1.505

> <U>
49.966

> <W>
-51.472

> <W(PB)>
-53.951

> <W(SA)>
2.479

> <Valence>
4.059

> <Coulomb>
44.783

> <VdW>
1.124

> <VdW6>
-8.699

> <VdW12>
9.823

> <Bond>
0.258

> <Angle>
1.106

> <Pdih>
2.695

> <Idih>
0.000

> <Tether>
0.000

$$$$
VeraChem MOL file


 29 28  0  0  0  0  0  0  0  0999 V2000     
   20.7509   18.7623   19.8763 C   0  0  0  0  0  0  0  0  0  0  0  0
   21.5145   19.5062   20.1386 H   0  0  0  0  0  0  0  0  0  0  0  0
   21.2669   17.8492   19.5522 H   0  0  0  0  0  0  0  0  0  0  0  0
   20.1780   19.1466   19.0223 H   0  0  0  0  0  0  0  0  0  0  0  0
   19.8274   18.4690   21.0775 C   0  0  0  0  0  0  0  0  0  0  0  0
   20.4289   18.0502   21.8952 H   0  0  0  0  0  0  0  0  0  0  0  0
   19.0937   17.7012   20.7949 H   0  0  0  0  0  0  0  0  0  0  0  0
   19.0919   19.7429   21.5555 C   0  0  0  0  0  0  0  0  0  0  0  0
   19.8234   20.4955   21.8777 H   0  0  0  0  0  0  0  0  0  0  0  0
   18.5594   20.1878   20.7036 H   0  0  0  0  0  0  0  0  0  0  0  0
   18.0649   19.4802   22.6874 C   0  0  0  0  0  0  0  0  0  0  0  0
   17.2700   18.8281   22.2999 H   0  0  0  0  0  0  0  0  0  0  0  0
   17.5747   20.4290   22.9455 H   0  0  0  0  0  0  0  0  0  0  0  0
   18.6414   18.8452   23.9795 C   0  0  0  0  0  0  0  0  0  0  0  0
   17.8107   18.6994   24.6824 H   0  0  0  0  0  0  0  0  0  0  0  0
   19.0314   17.8421   23.7625 H   0  0  0  0  0  0  0  0  0  0  0  0
   19.7435   19.7021   24.6524 C   0  0  0  0  0  0  0  0  0  0  0  0
   19.3579   20.7110   24.8543 H   0  0  0  0  0  0  0  0  0  0  0  0
   20.5884   19.8229   23.9620 H   0  0  0  0  0  0  0  0  0  0  0  0
   20.2777   19.0812   25.9645 C   0  0  0  0  0  0  0  0  0  0  0  0
   20.6712   18.0758   25.7636 H   0  0  0  0  0  0  0  0  0  0  0  0
   21.1225   19.6834   26.3244 H   0  0  0  0  0  0  0  0  0  0  0  0
   19.2074   19.0082   27.0696 C   0  0  0  0  0  0  0  0  0  0  0  0
   18.3804   18.3721   26.7439 H   0  0  0  0  0  0  0  0  0  0  0  0
   18.8151   20.0091   27.2685 H   0  0  0  0  0  0  0  0  0  0  0  0
   19.7391   18.4469   28.3724 N   0  3  0  0  0  0  0  0  0  0  0  0
   20.1002   17.4940   28.2584 H   0  0  0  0  0  0  0  0  0  0  0  0
   19.0118   18.4068   29.0950 H   0  0  0  0  0  0  0  0  0  0  0  0
   20.5038   19.0165   28.7495 H   0  0  0  0  0  0  0  0  0  0  0  0
  1  2  1  0  0  0  0
  1  3  1  0  0  0  0
  1  4  1  0  0  0  0
  1  5  1  0  0  0  0
  5  6  1  0  0  0  0
  5  7  1  0  0  0  0
  5  8  1  0  0  0  0
  8  9  1  0  0  0  0
  8 10  1  0  0  0  0
  8 11  1  0  0  0  0
 11 12  1  0  0  0  0
 11 13  1  0  0  0  0
 11 14  1  0  0  0  0
 14 15  1  0  0  0  0
 14 16  1  0  0  0  0
 14 17  1  0  0  0  0
 17 18  1  0  0  0  0
 17 19  1  0  0  0  0
 17 20  1  0  0  0  0
 20 21  1  0  0  0  0
 20 22  1  0  0  0  0
 20 23  1  0  0  0  0
 23 24  1  0  0  0  0
 23 25  1  0  0  0  0
 23 26  1  0  0  0  0
 26 27  1  0  0  0  0
 26 28  1  0  0  0  0
 26 29  1  0  0  0  0
M  END
> <VM2 Rank>
123

> <Conf_Id>
298

> <Probability>
0.22

> <Sum Probability>
90.29

> <Delta G>
1.896

> <G>
60.044

> <E>
22.324

> <-TS>
37.719

> <U+W>
-1.820

> <U>
49.829

> <W>
-51.649

> <W(PB)>
-54.125

> <W(SA)>
2.476

> <Valence>
3.922

> <Coulomb>
45.037

> <VdW>
0.870

> <VdW6>
-9.187

> <VdW12>
10.057

> <Bond>
0.258

> <Angle>
1.253

> <Pdih>
2.411

> <Idih>
0.000

> <Tether>
0.000

$$$$
VeraChem MOL file


 29 28  0  0  0  0  0  0  0  0999 V2000     
   20.8272   19.9844   20.3013 C   0  0  0  0  0  0  0  0  0  0  0  0
   21.3408   19.1687   19.7758 H   0  0  0  0  0  0  0  0  0  0  0  0
   20.5357   20.7350   19.5553 H   0  0  0  0  0  0  0  0  0  0  0  0
   21.5434   20.4527   20.9890 H   0  0  0  0  0  0  0  0  0  0  0  0
   19.5895   19.4625   21.0613 C   0  0  0  0  0  0  0  0  0  0  0  0
   18.8784   19.0272   20.3454 H   0  0  0  0  0  0  0  0  0  0  0  0
   19.0812   20.3100   21.5399 H   0  0  0  0  0  0  0  0  0  0  0  0
   19.9758   18.4047   22.1214 C   0  0  0  0  0  0  0  0  0  0  0  0
   20.5394   17.5986   21.6318 H   0  0  0  0  0  0  0  0  0  0  0  0
   20.6607   18.8481   22.8561 H   0  0  0  0  0  0  0  0  0  0  0  0
   18.7554   17.7781   22.8438 C   0  0  0  0  0  0  0  0  0  0  0  0
   19.1110   17.0009   23.5332 H   0  0  0  0  0  0  0  0  0  0  0  0
   18.1367   17.2525   22.1035 H   0  0  0  0  0  0  0  0  0  0  0  0
   17.8567   18.7800   23.6178 C   0  0  0  0  0  0  0  0  0  0  0  0
   17.3529   19.4437   22.9026 H   0  0  0  0  0  0  0  0  0  0  0  0
   17.0527   18.2187   24.1133 H   0  0  0  0  0  0  0  0  0  0  0  0
   18.5890   19.6453   24.6755 C   0  0  0  0  0  0  0  0  0  0  0  0
   17.8563   20.3216   25.1374 H   0  0  0  0  0  0  0  0  0  0  0  0
   19.3289   20.2918   24.1850 H   0  0  0  0  0  0  0  0  0  0  0  0
   19.2741   18.8145   25.7853 C   0  0  0  0  0  0  0  0  0  0  0  0
   18.5392   18.1460   26.2531 H   0  0  0  0  0  0  0  0  0  0  0  0
   20.0588   18.1812   25.3524 H   0  0  0  0  0  0  0  0  0  0  0  0
   19.8976   19.7221   26.8598 C   0  0  0  0  0  0  0  0  0  0  0  0
   19.1210   20.3450   27.3116 H   0  0  0  0  0  0  0  0  0  0  0  0
   20.6419   20.3784   26.4007 H   0  0  0  0  0  0  0  0  0  0  0  0
   20.5786   18.9465   27.9688 N   0  3  0  0  0  0  0  0  0  0  0  0
   19.9242   18.3280   28.4594 H   0  0  0  0  0  0  0  0  0  0  0  0
   20.9867   19.5698   28.6743 H   0  0  0  0  0  0  0  0  0  0  0  0
   21.3400   18.3593   27.6125 H   0  0  0  0  0  0  0  0  0  0  0  0
  1  2  1  0  0  0  0
  1  3  1  0  0  0  0
  1  4  1  0  0  0  0
  1  5  1  0  0  0  0
  5  6  1  0  0  0  0
  5  7  1  0  0  0  0
  5  8  1  0  0  0  0
  8  9  1  0  0  0  0
  8 10  1  0  0  0  0
  8 11  1  0  0  0  0
 11 12  1  0  0  0  0
 11 13  1  0  0  0  0
 11 14  1  0  0  0  0
 14 15  1  0  0  0  0
 14 16  1  0  0  0  0
 14 17  1  0  0  0  0
 17 18  1  0  0  0  0
 17 19  1  0  0  0  0
 17 20  1  0  0  0  0
 20 21  1  0  0  0  0
 20 22  1  0  0  0  0
 20 23  1  0  0  0  0
 23 24  1  0  0  0  0
 23 25  1  0  0  0  0
 23 26  1  0  0  0  0
 26 27  1  0  0  0  0
 26 28  1  0  0  0  0
 26 29  1  0  0  0  0
M  END
> <VM2 Rank>
124

> <Conf_Id>
2207

> <Probability>
0.22

> <Sum Probability>
90.51

> <Delta G>
1.900

> <G>
60.048

> <E>
22.073

> <-TS>
37.975

> <U+W>
-2.072

> <U>
49.925

> <W>
-51.995

> <W(PB)>
-54.443

> <W(SA)>
2.448

> <Valence>
4.020

> <Coulomb>
45.239

> <VdW>
0.667

> <VdW6>
-9.637

> <VdW12>
10.303

> <Bond>
0.272

> <Angle>
1.402

> <Pdih>
2.346

> <Idih>
0.000

> <Tether>
0.000

$$$$
VeraChem MOL file


 29 28  0  0  0  0  0  0  0  0999 V2000     
   20.1234   18.5543   19.4703 C   0  0  0  0  0  0  0  0  0  0  0  0
   20.9320   19.2406   19.1870 H   0  0  0  0  0  0  0  0  0  0  0  0
   20.5583   17.5580   19.6238 H   0  0  0  0  0  0  0  0  0  0  0  0
   19.4245   18.4907   18.6261 H   0  0  0  0  0  0  0  0  0  0  0  0
   19.3987   19.0445   20.7417 C   0  0  0  0  0  0  0  0  0  0  0  0
   18.5733   18.3567   20.9674 H   0  0  0  0  0  0  0  0  0  0  0  0
   18.9502   20.0289   20.5484 H   0  0  0  0  0  0  0  0  0  0  0  0
   20.3640   19.1377   21.9471 C   0  0  0  0  0  0  0  0  0  0  0  0
   20.7690   18.1423   22.1761 H   0  0  0  0  0  0  0  0  0  0  0  0
   21.2231   19.7624   21.6662 H   0  0  0  0  0  0  0  0  0  0  0  0
   19.7169   19.7403   23.2185 C   0  0  0  0  0  0  0  0  0  0  0  0
   19.3073   20.7332   22.9876 H   0  0  0  0  0  0  0  0  0  0  0  0
   20.5121   19.8974   23.9585 H   0  0  0  0  0  0  0  0  0  0  0  0
   18.6101   18.8464   23.8331 C   0  0  0  0  0  0  0  0  0  0  0  0
   17.8161   18.6856   23.0929 H   0  0  0  0  0  0  0  0  0  0  0  0
   19.0194   17.8528   24.0594 H   0  0  0  0  0  0  0  0  0  0  0  0
   17.9571   19.4528   25.1025 C   0  0  0  0  0  0  0  0  0  0  0  0
   17.1526   18.7831   25.4368 H   0  0  0  0  0  0  0  0  0  0  0  0
   17.4696   20.4014   24.8385 H   0  0  0  0  0  0  0  0  0  0  0  0
   18.9256   19.6975   26.2865 C   0  0  0  0  0  0  0  0  0  0  0  0
   19.6527   20.4764   26.0241 H   0  0  0  0  0  0  0  0  0  0  0  0
   18.3517   20.0886   27.1371 H   0  0  0  0  0  0  0  0  0  0  0  0
   19.6668   18.4207   26.7242 C   0  0  0  0  0  0  0  0  0  0  0  0
   20.2754   18.0458   25.8972 H   0  0  0  0  0  0  0  0  0  0  0  0
   18.9416   17.6492   26.9966 H   0  0  0  0  0  0  0  0  0  0  0  0
   20.5815   18.6437   27.9110 N   0  3  0  0  0  0  0  0  0  0  0  0
   21.3050   19.3418   27.7097 H   0  0  0  0  0  0  0  0  0  0  0  0
   21.0654   17.7819   28.1862 H   0  0  0  0  0  0  0  0  0  0  0  0
   20.0654   18.9722   28.7340 H   0  0  0  0  0  0  0  0  0  0  0  0
  1  2  1  0  0  0  0
  1  3  1  0  0  0  0
  1  4  1  0  0  0  0
  1  5  1  0  0  0  0
  5  6  1  0  0  0  0
  5  7  1  0  0  0  0
  5  8  1  0  0  0  0
  8  9  1  0  0  0  0
  8 10  1  0  0  0  0
  8 11  1  0  0  0  0
 11 12  1  0  0  0  0
 11 13  1  0  0  0  0
 11 14  1  0  0  0  0
 14 15  1  0  0  0  0
 14 16  1  0  0  0  0
 14 17  1  0  0  0  0
 17 18  1  0  0  0  0
 17 19  1  0  0  0  0
 17 20  1  0  0  0  0
 20 21  1  0  0  0  0
 20 22  1  0  0  0  0
 20 23  1  0  0  0  0
 23 24  1  0  0  0  0
 23 25  1  0  0  0  0
 23 26  1  0  0  0  0
 26 27  1  0  0  0  0
 26 28  1  0  0  0  0
 26 29  1  0  0  0  0
M  END
> <VM2 Rank>
125

> <Conf_Id>
2281

> <Probability>
0.22

> <Sum Probability>
90.73

> <Delta G>
1.905

> <G>
60.053

> <E>
22.477

> <-TS>
37.576

> <U+W>
-1.667

> <U>
50.254

> <W>
-51.921

> <W(PB)>
-54.435

> <W(SA)>
2.514

> <Valence>
3.959

> <Coulomb>
45.374

> <VdW>
0.921

> <VdW6>
-9.108

> <VdW12>
10.028

> <Bond>
0.261

> <Angle>
1.234

> <Pdih>
2.465

> <Idih>
0.000

> <Tether>
0.000

$$$$
VeraChem MOL file


 29 28  0  0  0  0  0  0  0  0999 V2000     
   20.7257   19.2824   20.2702 C   0  0  0  0  0  0  0  0  0  0  0  0
   20.1676   19.0455   19.3551 H   0  0  0  0  0  0  0  0  0  0  0  0
   21.6164   19.8555   19.9821 H   0  0  0  0  0  0  0  0  0  0  0  0
   21.0683   18.3409   20.7173 H   0  0  0  0  0  0  0  0  0  0  0  0
   19.8554   20.0933   21.2565 C   0  0  0  0  0  0  0  0  0  0  0  0
   19.6281   21.0700   20.8071 H   0  0  0  0  0  0  0  0  0  0  0  0
   20.4295   20.3075   22.1678 H   0  0  0  0  0  0  0  0  0  0  0  0
   18.5209   19.3926   21.6167 C   0  0  0  0  0  0  0  0  0  0  0  0
   17.9370   20.0526   22.2716 H   0  0  0  0  0  0  0  0  0  0  0  0
   17.9218   19.2813   20.7025 H   0  0  0  0  0  0  0  0  0  0  0  0
   18.6661   17.9989   22.2851 C   0  0  0  0  0  0  0  0  0  0  0  0
   19.0914   17.2921   21.5602 H   0  0  0  0  0  0  0  0  0  0  0  0
   17.6631   17.6149   22.5165 H   0  0  0  0  0  0  0  0  0  0  0  0
   19.5241   17.9697   23.5760 C   0  0  0  0  0  0  0  0  0  0  0  0
   19.5677   16.9334   23.9384 H   0  0  0  0  0  0  0  0  0  0  0  0
   20.5595   18.2521   23.3439 H   0  0  0  0  0  0  0  0  0  0  0  0
   18.9737   18.8751   24.7037 C   0  0  0  0  0  0  0  0  0  0  0  0
   17.9258   18.6137   24.9062 H   0  0  0  0  0  0  0  0  0  0  0  0
   18.9845   19.9244   24.3805 H   0  0  0  0  0  0  0  0  0  0  0  0
   19.7988   18.7393   26.0021 C   0  0  0  0  0  0  0  0  0  0  0  0
   19.7859   17.6949   26.3416 H   0  0  0  0  0  0  0  0  0  0  0  0
   20.8467   19.0010   25.8031 H   0  0  0  0  0  0  0  0  0  0  0  0
   19.2476   19.6459   27.1164 C   0  0  0  0  0  0  0  0  0  0  0  0
   18.2091   19.3781   27.3290 H   0  0  0  0  0  0  0  0  0  0  0  0
   19.2742   20.6889   26.7894 H   0  0  0  0  0  0  0  0  0  0  0  0
   20.0316   19.5408   28.4084 N   0  3  0  0  0  0  0  0  0  0  0  0
   21.0139   19.8064   28.2817 H   0  0  0  0  0  0  0  0  0  0  0  0
   20.0227   18.5866   28.7838 H   0  0  0  0  0  0  0  0  0  0  0  0
   19.6481   20.1524   29.1375 H   0  0  0  0  0  0  0  0  0  0  0  0
  1  2  1  0  0  0  0
  1  3  1  0  0  0  0
  1  4  1  0  0  0  0
  1  5  1  0  0  0  0
  5  6  1  0  0  0  0
  5  7  1  0  0  0  0
  5  8  1  0  0  0  0
  8  9  1  0  0  0  0
  8 10  1  0  0  0  0
  8 11  1  0  0  0  0
 11 12  1  0  0  0  0
 11 13  1  0  0  0  0
 11 14  1  0  0  0  0
 14 15  1  0  0  0  0
 14 16  1  0  0  0  0
 14 17  1  0  0  0  0
 17 18  1  0  0  0  0
 17 19  1  0  0  0  0
 17 20  1  0  0  0  0
 20 21  1  0  0  0  0
 20 22  1  0  0  0  0
 20 23  1  0  0  0  0
 23 24  1  0  0  0  0
 23 25  1  0  0  0  0
 23 26  1  0  0  0  0
 26 27  1  0  0  0  0
 26 28  1  0  0  0  0
 26 29  1  0  0  0  0
M  END
> <VM2 Rank>
126

> <Conf_Id>
1283

> <Probability>
0.21

> <Sum Probability>
90.94

> <Delta G>
1.933

> <G>
60.081

> <E>
22.125

> <-TS>
37.956

> <U+W>
-2.020

> <U>
49.550

> <W>
-51.570

> <W(PB)>
-54.045

> <W(SA)>
2.475

> <Valence>
3.990

> <Coulomb>
44.825

> <VdW>
0.735

> <VdW6>
-9.508

> <VdW12>
10.243

> <Bond>
0.268

> <Angle>
1.374

> <Pdih>
2.348

> <Idih>
0.000

> <Tether>
0.000

$$$$
VeraChem MOL file


 29 28  0  0  0  0  0  0  0  0999 V2000     
   21.0405   18.2556   20.9521 C   0  0  0  0  0  0  0  0  0  0  0  0
   21.1520   18.0254   22.0190 H   0  0  0  0  0  0  0  0  0  0  0  0
   21.3249   17.3575   20.3887 H   0  0  0  0  0  0  0  0  0  0  0  0
   21.7505   19.0526   20.6955 H   0  0  0  0  0  0  0  0  0  0  0  0
   19.5918   18.6720   20.6117 C   0  0  0  0  0  0  0  0  0  0  0  0
   18.8990   17.8690   20.8966 H   0  0  0  0  0  0  0  0  0  0  0  0
   19.5002   18.7752   19.5215 H   0  0  0  0  0  0  0  0  0  0  0  0
   19.1633   20.0077   21.2711 C   0  0  0  0  0  0  0  0  0  0  0  0
   19.7948   20.8164   20.8783 H   0  0  0  0  0  0  0  0  0  0  0  0
   18.1385   20.2460   20.9545 H   0  0  0  0  0  0  0  0  0  0  0  0
   19.2309   20.0313   22.8198 C   0  0  0  0  0  0  0  0  0  0  0  0
   18.9191   21.0266   23.1648 H   0  0  0  0  0  0  0  0  0  0  0  0
   20.2727   19.9107   23.1419 H   0  0  0  0  0  0  0  0  0  0  0  0
   18.3347   18.9603   23.4911 C   0  0  0  0  0  0  0  0  0  0  0  0
   17.3209   19.0295   23.0733 H   0  0  0  0  0  0  0  0  0  0  0  0
   18.7029   17.9549   23.2478 H   0  0  0  0  0  0  0  0  0  0  0  0
   18.2444   19.1091   25.0295 C   0  0  0  0  0  0  0  0  0  0  0  0
   17.5080   18.3861   25.4072 H   0  0  0  0  0  0  0  0  0  0  0  0
   17.8556   20.1055   25.2816 H   0  0  0  0  0  0  0  0  0  0  0  0
   19.5923   18.8768   25.7516 C   0  0  0  0  0  0  0  0  0  0  0  0
   20.0043   17.9014   25.4607 H   0  0  0  0  0  0  0  0  0  0  0  0
   20.3201   19.6398   25.4481 H   0  0  0  0  0  0  0  0  0  0  0  0
   19.4238   18.9253   27.2803 C   0  0  0  0  0  0  0  0  0  0  0  0
   18.7143   18.1561   27.5972 H   0  0  0  0  0  0  0  0  0  0  0  0
   19.0290   19.9009   27.5764 H   0  0  0  0  0  0  0  0  0  0  0  0
   20.7222   18.6998   28.0276 N   0  3  0  0  0  0  0  0  0  0  0  0
   21.1325   17.7849   27.8128 H   0  0  0  0  0  0  0  0  0  0  0  0
   20.5875   18.7357   29.0442 H   0  0  0  0  0  0  0  0  0  0  0  0
   21.4253   19.4087   27.7942 H   0  0  0  0  0  0  0  0  0  0  0  0
  1  2  1  0  0  0  0
  1  3  1  0  0  0  0
  1  4  1  0  0  0  0
  1  5  1  0  0  0  0
  5  6  1  0  0  0  0
  5  7  1  0  0  0  0
  5  8  1  0  0  0  0
  8  9  1  0  0  0  0
  8 10  1  0  0  0  0
  8 11  1  0  0  0  0
 11 12  1  0  0  0  0
 11 13  1  0  0  0  0
 11 14  1  0  0  0  0
 14 15  1  0  0  0  0
 14 16  1  0  0  0  0
 14 17  1  0  0  0  0
 17 18  1  0  0  0  0
 17 19  1  0  0  0  0
 17 20  1  0  0  0  0
 20 21  1  0  0  0  0
 20 22  1  0  0  0  0
 20 23  1  0  0  0  0
 23 24  1  0  0  0  0
 23 25  1  0  0  0  0
 23 26  1  0  0  0  0
 26 27  1  0  0  0  0
 26 28  1  0  0  0  0
 26 29  1  0  0  0  0
M  END
> <VM2 Rank>
127

> <Conf_Id>
892

> <Probability>
0.20

> <Sum Probability>
91.14

> <Delta G>
1.957

> <G>
60.105

> <E>
22.368

> <-TS>
37.737

> <U+W>
-1.776

> <U>
49.942

> <W>
-51.718

> <W(PB)>
-54.192

> <W(SA)>
2.474

> <Valence>
4.040

> <Coulomb>
45.040

> <VdW>
0.862

> <VdW6>
-9.281

> <VdW12>
10.143

> <Bond>
0.263

> <Angle>
1.239

> <Pdih>
2.539

> <Idih>
0.000

> <Tether>
0.000

$$$$
VeraChem MOL file


 29 28  0  0  0  0  0  0  0  0999 V2000     
   20.2315   19.3120   19.7914 C   0  0  0  0  0  0  0  0  0  0  0  0
   20.6822   18.3303   19.9818 H   0  0  0  0  0  0  0  0  0  0  0  0
   19.2444   19.1560   19.3373 H   0  0  0  0  0  0  0  0  0  0  0  0
   20.8622   19.8263   19.0548 H   0  0  0  0  0  0  0  0  0  0  0  0
   20.1215   20.1488   21.0863 C   0  0  0  0  0  0  0  0  0  0  0  0
   19.7875   21.1622   20.8234 H   0  0  0  0  0  0  0  0  0  0  0  0
   21.1160   20.2611   21.5402 H   0  0  0  0  0  0  0  0  0  0  0  0
   19.1365   19.5565   22.1230 C   0  0  0  0  0  0  0  0  0  0  0  0
   19.0259   20.2835   22.9378 H   0  0  0  0  0  0  0  0  0  0  0  0
   18.1434   19.4480   21.6660 H   0  0  0  0  0  0  0  0  0  0  0  0
   19.5969   18.1955   22.7038 C   0  0  0  0  0  0  0  0  0  0  0  0
   20.5911   18.3019   23.1570 H   0  0  0  0  0  0  0  0  0  0  0  0
   19.7139   17.4715   21.8874 H   0  0  0  0  0  0  0  0  0  0  0  0
   18.6058   17.5920   23.7329 C   0  0  0  0  0  0  0  0  0  0  0  0
   17.6515   17.3860   23.2287 H   0  0  0  0  0  0  0  0  0  0  0  0
   18.9895   16.6152   24.0582 H   0  0  0  0  0  0  0  0  0  0  0  0
   18.3288   18.4627   24.9860 C   0  0  0  0  0  0  0  0  0  0  0  0
   17.6238   17.9221   25.6327 H   0  0  0  0  0  0  0  0  0  0  0  0
   17.8178   19.3900   24.6951 H   0  0  0  0  0  0  0  0  0  0  0  0
   19.5996   18.7988   25.8006 C   0  0  0  0  0  0  0  0  0  0  0  0
   20.1309   17.8722   26.0557 H   0  0  0  0  0  0  0  0  0  0  0  0
   20.2832   19.4096   25.1975 H   0  0  0  0  0  0  0  0  0  0  0  0
   19.2522   19.5617   27.0907 C   0  0  0  0  0  0  0  0  0  0  0  0
   18.5855   18.9549   27.7093 H   0  0  0  0  0  0  0  0  0  0  0  0
   18.7370   20.4930   26.8403 H   0  0  0  0  0  0  0  0  0  0  0  0
   20.4711   19.9100   27.9202 N   0  3  0  0  0  0  0  0  0  0  0  0
   21.1276   20.5046   27.4035 H   0  0  0  0  0  0  0  0  0  0  0  0
   20.9865   19.0727   28.2115 H   0  0  0  0  0  0  0  0  0  0  0  0
   20.2175   20.4173   28.7752 H   0  0  0  0  0  0  0  0  0  0  0  0
  1  2  1  0  0  0  0
  1  3  1  0  0  0  0
  1  4  1  0  0  0  0
  1  5  1  0  0  0  0
  5  6  1  0  0  0  0
  5  7  1  0  0  0  0
  5  8  1  0  0  0  0
  8  9  1  0  0  0  0
  8 10  1  0  0  0  0
  8 11  1  0  0  0  0
 11 12  1  0  0  0  0
 11 13  1  0  0  0  0
 11 14  1  0  0  0  0
 14 15  1  0  0  0  0
 14 16  1  0  0  0  0
 14 17  1  0  0  0  0
 17 18  1  0  0  0  0
 17 19  1  0  0  0  0
 17 20  1  0  0  0  0
 20 21  1  0  0  0  0
 20 22  1  0  0  0  0
 20 23  1  0  0  0  0
 23 24  1  0  0  0  0
 23 25  1  0  0  0  0
 23 26  1  0  0  0  0
 26 27  1  0  0  0  0
 26 28  1  0  0  0  0
 26 29  1  0  0  0  0
M  END
> <VM2 Rank>
128

> <Conf_Id>
290

> <Probability>
0.20

> <Sum Probability>
91.34

> <Delta G>
1.959

> <G>
60.107

> <E>
22.397

> <-TS>
37.709

> <U+W>
-1.747

> <U>
50.232

> <W>
-51.979

> <W(PB)>
-54.438

> <W(SA)>
2.459

> <Valence>
4.148

> <Coulomb>
45.153

> <VdW>
0.932

> <VdW6>
-9.217

> <VdW12>
10.148

> <Bond>
0.273

> <Angle>
1.395

> <Pdih>
2.481

> <Idih>
0.000

> <Tether>
0.000

$$$$
VeraChem MOL file


 29 28  0  0  0  0  0  0  0  0999 V2000     
   20.3613   19.2223   19.4852 C   0  0  0  0  0  0  0  0  0  0  0  0
   20.5582   18.1912   19.1636 H   0  0  0  0  0  0  0  0  0  0  0  0
   19.8720   19.7466   18.6542 H   0  0  0  0  0  0  0  0  0  0  0  0
   21.3258   19.7124   19.6720 H   0  0  0  0  0  0  0  0  0  0  0  0
   19.4721   19.2504   20.7463 C   0  0  0  0  0  0  0  0  0  0  0  0
   18.5051   18.7795   20.5205 H   0  0  0  0  0  0  0  0  0  0  0  0
   19.2639   20.2954   21.0108 H   0  0  0  0  0  0  0  0  0  0  0  0
   20.1441   18.5205   21.9334 C   0  0  0  0  0  0  0  0  0  0  0  0
   20.4189   17.5051   21.6158 H   0  0  0  0  0  0  0  0  0  0  0  0
   21.0838   19.0257   22.1958 H   0  0  0  0  0  0  0  0  0  0  0  0
   19.2439   18.4126   23.1888 C   0  0  0  0  0  0  0  0  0  0  0  0
   19.7503   17.7591   23.9107 H   0  0  0  0  0  0  0  0  0  0  0  0
   18.3022   17.9122   22.9246 H   0  0  0  0  0  0  0  0  0  0  0  0
   18.9425   19.7796   23.8540 C   0  0  0  0  0  0  0  0  0  0  0  0
   19.8844   20.2810   24.1137 H   0  0  0  0  0  0  0  0  0  0  0  0
   18.4394   20.4352   23.1319 H   0  0  0  0  0  0  0  0  0  0  0  0
   18.0354   19.6727   25.1074 C   0  0  0  0  0  0  0  0  0  0  0  0
   17.0619   19.2571   24.8129 H   0  0  0  0  0  0  0  0  0  0  0  0
   17.8306   20.6862   25.4793 H   0  0  0  0  0  0  0  0  0  0  0  0
   18.6145   18.8243   26.2670 C   0  0  0  0  0  0  0  0  0  0  0  0
   17.9107   18.8506   27.1095 H   0  0  0  0  0  0  0  0  0  0  0  0
   18.6894   17.7724   25.9637 H   0  0  0  0  0  0  0  0  0  0  0  0
   19.9895   19.3267   26.7445 C   0  0  0  0  0  0  0  0  0  0  0  0
   19.9113   20.3713   27.0575 H   0  0  0  0  0  0  0  0  0  0  0  0
   20.7098   19.2652   25.9244 H   0  0  0  0  0  0  0  0  0  0  0  0
   20.5407   18.5289   27.9084 N   0  3  0  0  0  0  0  0  0  0  0  0
   19.9216   18.5680   28.7249 H   0  0  0  0  0  0  0  0  0  0  0  0
   21.4564   18.8793   28.2106 H   0  0  0  0  0  0  0  0  0  0  0  0
   20.6631   17.5394   27.6692 H   0  0  0  0  0  0  0  0  0  0  0  0
  1  2  1  0  0  0  0
  1  3  1  0  0  0  0
  1  4  1  0  0  0  0
  1  5  1  0  0  0  0
  5  6  1  0  0  0  0
  5  7  1  0  0  0  0
  5  8  1  0  0  0  0
  8  9  1  0  0  0  0
  8 10  1  0  0  0  0
  8 11  1  0  0  0  0
 11 12  1  0  0  0  0
 11 13  1  0  0  0  0
 11 14  1  0  0  0  0
 14 15  1  0  0  0  0
 14 16  1  0  0  0  0
 14 17  1  0  0  0  0
 17 18  1  0  0  0  0
 17 19  1  0  0  0  0
 17 20  1  0  0  0  0
 20 21  1  0  0  0  0
 20 22  1  0  0  0  0
 20 23  1  0  0  0  0
 23 24  1  0  0  0  0
 23 25  1  0  0  0  0
 23 26  1  0  0  0  0
 26 27  1  0  0  0  0
 26 28  1  0  0  0  0
 26 29  1  0  0  0  0
M  END
> <VM2 Rank>
129

> <Conf_Id>
964

> <Probability>
0.20

> <Sum Probability>
91.54

> <Delta G>
1.971

> <G>
60.119

> <E>
22.544

> <-TS>
37.576

> <U+W>
-1.601

> <U>
50.254

> <W>
-51.855

> <W(PB)>
-54.370

> <W(SA)>
2.515

> <Valence>
3.959

> <Coulomb>
45.374

> <VdW>
0.921

> <VdW6>
-9.108

> <VdW12>
10.029

> <Bond>
0.261

> <Angle>
1.234

> <Pdih>
2.465

> <Idih>
0.000

> <Tether>
0.000

$$$$
VeraChem MOL file


 29 28  0  0  0  0  0  0  0  0999 V2000     
   20.1389   19.6221   19.5113 C   0  0  0  0  0  0  0  0  0  0  0  0
   20.2787   20.6178   19.9496 H   0  0  0  0  0  0  0  0  0  0  0  0
   21.1020   19.0960   19.5364 H   0  0  0  0  0  0  0  0  0  0  0  0
   19.8604   19.7621   18.4588 H   0  0  0  0  0  0  0  0  0  0  0  0
   19.0479   18.8199   20.2565 C   0  0  0  0  0  0  0  0  0  0  0  0
   18.8560   17.8895   19.7041 H   0  0  0  0  0  0  0  0  0  0  0  0
   18.1039   19.3824   20.2481 H   0  0  0  0  0  0  0  0  0  0  0  0
   19.4307   18.4607   21.7128 C   0  0  0  0  0  0  0  0  0  0  0  0
   18.6636   17.7815   22.1056 H   0  0  0  0  0  0  0  0  0  0  0  0
   20.3744   17.8983   21.7155 H   0  0  0  0  0  0  0  0  0  0  0  0
   19.5550   19.6965   22.6403 C   0  0  0  0  0  0  0  0  0  0  0  0
   18.6102   20.2570   22.6414 H   0  0  0  0  0  0  0  0  0  0  0  0
   20.3171   20.3767   22.2388 H   0  0  0  0  0  0  0  0  0  0  0  0
   19.9512   19.3439   24.0954 C   0  0  0  0  0  0  0  0  0  0  0  0
   20.8865   18.7673   24.0919 H   0  0  0  0  0  0  0  0  0  0  0  0
   20.1694   20.2815   24.6233 H   0  0  0  0  0  0  0  0  0  0  0  0
   18.8564   18.5624   24.8658 C   0  0  0  0  0  0  0  0  0  0  0  0
   18.6582   17.6081   24.3615 H   0  0  0  0  0  0  0  0  0  0  0  0
   17.9141   19.1273   24.8469 H   0  0  0  0  0  0  0  0  0  0  0  0
   19.2463   18.2600   26.3319 C   0  0  0  0  0  0  0  0  0  0  0  0
   18.4766   17.6167   26.7788 H   0  0  0  0  0  0  0  0  0  0  0  0
   20.1845   17.6897   26.3543 H   0  0  0  0  0  0  0  0  0  0  0  0
   19.3927   19.5333   27.1862 C   0  0  0  0  0  0  0  0  0  0  0  0
   18.4588   20.1014   27.1628 H   0  0  0  0  0  0  0  0  0  0  0  0
   20.1894   20.1624   26.7812 H   0  0  0  0  0  0  0  0  0  0  0  0
   19.7249   19.2392   28.6347 N   0  3  0  0  0  0  0  0  0  0  0  0
   20.6087   18.7275   28.7274 H   0  0  0  0  0  0  0  0  0  0  0  0
   18.9990   18.6722   29.0854 H   0  0  0  0  0  0  0  0  0  0  0  0
   19.8179   20.0992   29.1865 H   0  0  0  0  0  0  0  0  0  0  0  0
  1  2  1  0  0  0  0
  1  3  1  0  0  0  0
  1  4  1  0  0  0  0
  1  5  1  0  0  0  0
  5  6  1  0  0  0  0
  5  7  1  0  0  0  0
  5  8  1  0  0  0  0
  8  9  1  0  0  0  0
  8 10  1  0  0  0  0
  8 11  1  0  0  0  0
 11 12  1  0  0  0  0
 11 13  1  0  0  0  0
 11 14  1  0  0  0  0
 14 15  1  0  0  0  0
 14 16  1  0  0  0  0
 14 17  1  0  0  0  0
 17 18  1  0  0  0  0
 17 19  1  0  0  0  0
 17 20  1  0  0  0  0
 20 21  1  0  0  0  0
 20 22  1  0  0  0  0
 20 23  1  0  0  0  0
 23 24  1  0  0  0  0
 23 25  1  0  0  0  0
 23 26  1  0  0  0  0
 26 27  1  0  0  0  0
 26 28  1  0  0  0  0
 26 29  1  0  0  0  0
M  END
> <VM2 Rank>
130

> <Conf_Id>
2083

> <Probability>
0.20

> <Sum Probability>
91.73

> <Delta G>
1.975

> <G>
60.123

> <E>
22.726

> <-TS>
37.397

> <U+W>
-1.418

> <U>
49.967

> <W>
-51.385

> <W(PB)>
-53.926

> <W(SA)>
2.541

> <Valence>
4.059

> <Coulomb>
44.783

> <VdW>
1.124

> <VdW6>
-8.699

> <VdW12>
9.823

> <Bond>
0.258

> <Angle>
1.106

> <Pdih>
2.695

> <Idih>
0.000

> <Tether>
0.000

$$$$
VeraChem MOL file


 29 28  0  0  0  0  0  0  0  0999 V2000     
   19.9622   18.5541   19.7749 C   0  0  0  0  0  0  0  0  0  0  0  0
   20.1362   17.7864   19.0098 H   0  0  0  0  0  0  0  0  0  0  0  0
   19.3030   19.3171   19.3408 H   0  0  0  0  0  0  0  0  0  0  0  0
   20.9294   19.0211   19.9979 H   0  0  0  0  0  0  0  0  0  0  0  0
   19.3290   17.9253   21.0368 C   0  0  0  0  0  0  0  0  0  0  0  0
   20.0215   17.1915   21.4722 H   0  0  0  0  0  0  0  0  0  0  0  0
   18.4332   17.3630   20.7384 H   0  0  0  0  0  0  0  0  0  0  0  0
   18.9256   18.9656   22.1097 C   0  0  0  0  0  0  0  0  0  0  0  0
   18.2315   19.6955   21.6710 H   0  0  0  0  0  0  0  0  0  0  0  0
   18.3685   18.4409   22.8965 H   0  0  0  0  0  0  0  0  0  0  0  0
   20.1344   19.7047   22.7375 C   0  0  0  0  0  0  0  0  0  0  0  0
   20.6942   20.2234   21.9489 H   0  0  0  0  0  0  0  0  0  0  0  0
   20.8310   18.9758   23.1720 H   0  0  0  0  0  0  0  0  0  0  0  0
   19.7335   20.7573   23.8036 C   0  0  0  0  0  0  0  0  0  0  0  0
   20.6436   21.2578   24.1619 H   0  0  0  0  0  0  0  0  0  0  0  0
   19.1314   21.5399   23.3216 H   0  0  0  0  0  0  0  0  0  0  0  0
   18.9510   20.2088   25.0250 C   0  0  0  0  0  0  0  0  0  0  0  0
   17.9729   19.8258   24.7050 H   0  0  0  0  0  0  0  0  0  0  0  0
   18.7375   21.0472   25.7027 H   0  0  0  0  0  0  0  0  0  0  0  0
   19.7116   19.1131   25.8075 C   0  0  0  0  0  0  0  0  0  0  0  0
   19.8635   18.2322   25.1709 H   0  0  0  0  0  0  0  0  0  0  0  0
   20.7054   19.4840   26.0914 H   0  0  0  0  0  0  0  0  0  0  0  0
   18.9422   18.6911   27.0713 C   0  0  0  0  0  0  0  0  0  0  0  0
   17.9578   18.3062   26.7916 H   0  0  0  0  0  0  0  0  0  0  0  0
   18.8007   19.5576   27.7228 H   0  0  0  0  0  0  0  0  0  0  0  0
   19.6546   17.6180   27.8688 N   0  3  0  0  0  0  0  0  0  0  0  0
   20.5792   17.9285   28.1855 H   0  0  0  0  0  0  0  0  0  0  0  0
   19.7945   16.7635   27.3196 H   0  0  0  0  0  0  0  0  0  0  0  0
   19.1255   17.3518   28.7065 H   0  0  0  0  0  0  0  0  0  0  0  0
  1  2  1  0  0  0  0
  1  3  1  0  0  0  0
  1  4  1  0  0  0  0
  1  5  1  0  0  0  0
  5  6  1  0  0  0  0
  5  7  1  0  0  0  0
  5  8  1  0  0  0  0
  8  9  1  0  0  0  0
  8 10  1  0  0  0  0
  8 11  1  0  0  0  0
 11 12  1  0  0  0  0
 11 13  1  0  0  0  0
 11 14  1  0  0  0  0
 14 15  1  0  0  0  0
 14 16  1  0  0  0  0
 14 17  1  0  0  0  0
 17 18  1  0  0  0  0
 17 19  1  0  0  0  0
 17 20  1  0  0  0  0
 20 21  1  0  0  0  0
 20 22  1  0  0  0  0
 20 23  1  0  0  0  0
 23 24  1  0  0  0  0
 23 25  1  0  0  0  0
 23 26  1  0  0  0  0
 26 27  1  0  0  0  0
 26 28  1  0  0  0  0
 26 29  1  0  0  0  0
M  END
> <VM2 Rank>
131

> <Conf_Id>
1661

> <Probability>
0.18

> <Sum Probability>
91.91

> <Delta G>
2.039

> <G>
60.187

> <E>
22.478

> <-TS>
37.709

> <U+W>
-1.667

> <U>
50.232

> <W>
-51.899

> <W(PB)>
-54.359

> <W(SA)>
2.459

> <Valence>
4.148

> <Coulomb>
45.153

> <VdW>
0.932

> <VdW6>
-9.217

> <VdW12>
10.149

> <Bond>
0.273

> <Angle>
1.395

> <Pdih>
2.480

> <Idih>
0.000

> <Tether>
0.000

$$$$
VeraChem MOL file


 29 28  0  0  0  0  0  0  0  0999 V2000     
   18.6995   18.4726   20.0532 C   0  0  0  0  0  0  0  0  0  0  0  0
   18.0028   18.2919   20.8812 H   0  0  0  0  0  0  0  0  0  0  0  0
   18.1091   18.8131   19.1927 H   0  0  0  0  0  0  0  0  0  0  0  0
   19.1686   17.5178   19.7827 H   0  0  0  0  0  0  0  0  0  0  0  0
   19.7643   19.5271   20.4303 C   0  0  0  0  0  0  0  0  0  0  0  0
   19.2716   20.4656   20.7172 H   0  0  0  0  0  0  0  0  0  0  0  0
   20.3599   19.7629   19.5374 H   0  0  0  0  0  0  0  0  0  0  0  0
   20.7251   19.0596   21.5534 C   0  0  0  0  0  0  0  0  0  0  0  0
   21.3022   18.1990   21.1882 H   0  0  0  0  0  0  0  0  0  0  0  0
   21.4595   19.8541   21.7443 H   0  0  0  0  0  0  0  0  0  0  0  0
   20.0469   18.6682   22.8921 C   0  0  0  0  0  0  0  0  0  0  0  0
   20.8328   18.3258   23.5771 H   0  0  0  0  0  0  0  0  0  0  0  0
   19.3834   17.8072   22.7379 H   0  0  0  0  0  0  0  0  0  0  0  0
   19.2571   19.8286   23.5491 C   0  0  0  0  0  0  0  0  0  0  0  0
   19.9228   20.6882   23.7074 H   0  0  0  0  0  0  0  0  0  0  0  0
   18.4707   20.1679   22.8626 H   0  0  0  0  0  0  0  0  0  0  0  0
   18.5839   19.4390   24.8881 C   0  0  0  0  0  0  0  0  0  0  0  0
   17.9202   18.5776   24.7299 H   0  0  0  0  0  0  0  0  0  0  0  0
   17.9392   20.2698   25.2070 H   0  0  0  0  0  0  0  0  0  0  0  0
   19.5886   19.1234   26.0210 C   0  0  0  0  0  0  0  0  0  0  0  0
   20.1858   18.2400   25.7633 H   0  0  0  0  0  0  0  0  0  0  0  0
   20.2859   19.9631   26.1414 H   0  0  0  0  0  0  0  0  0  0  0  0
   18.8649   18.8653   27.3542 C   0  0  0  0  0  0  0  0  0  0  0  0
   18.1809   18.0194   27.2440 H   0  0  0  0  0  0  0  0  0  0  0  0
   18.2807   19.7465   27.6328 H   0  0  0  0  0  0  0  0  0  0  0  0
   19.8136   18.5542   28.4936 N   0  3  0  0  0  0  0  0  0  0  0  0
   20.3750   17.7169   28.3055 H   0  0  0  0  0  0  0  0  0  0  0  0
   19.3113   18.3861   29.3723 H   0  0  0  0  0  0  0  0  0  0  0  0
   20.4682   19.3244   28.6665 H   0  0  0  0  0  0  0  0  0  0  0  0
  1  2  1  0  0  0  0
  1  3  1  0  0  0  0
  1  4  1  0  0  0  0
  1  5  1  0  0  0  0
  5  6  1  0  0  0  0
  5  7  1  0  0  0  0
  5  8  1  0  0  0  0
  8  9  1  0  0  0  0
  8 10  1  0  0  0  0
  8 11  1  0  0  0  0
 11 12  1  0  0  0  0
 11 13  1  0  0  0  0
 11 14  1  0  0  0  0
 14 15  1  0  0  0  0
 14 16  1  0  0  0  0
 14 17  1  0  0  0  0
 17 18  1  0  0  0  0
 17 19  1  0  0  0  0
 17 20  1  0  0  0  0
 20 21  1  0  0  0  0
 20 22  1  0  0  0  0
 20 23  1  0  0  0  0
 23 24  1  0  0  0  0
 23 25  1  0  0  0  0
 23 26  1  0  0  0  0
 26 27  1  0  0  0  0
 26 28  1  0  0  0  0
 26 29  1  0  0  0  0
M  END
> <VM2 Rank>
132

> <Conf_Id>
687

> <Probability>
0.17

> <Sum Probability>
92.08

> <Delta G>
2.057

> <G>
60.205

> <E>
22.534

> <-TS>
37.670

> <U+W>
-1.610

> <U>
49.922

> <W>
-51.532

> <W(PB)>
-53.995

> <W(SA)>
2.463

> <Valence>
4.160

> <Coulomb>
44.771

> <VdW>
0.992

> <VdW6>
-9.113

> <VdW12>
10.105

> <Bond>
0.273

> <Angle>
1.388

> <Pdih>
2.499

> <Idih>
0.000

> <Tether>
0.000

$$$$
VeraChem MOL file


 29 28  0  0  0  0  0  0  0  0999 V2000     
   19.7109   18.2348   19.6968 C   0  0  0  0  0  0  0  0  0  0  0  0
   19.0626   18.0146   18.8387 H   0  0  0  0  0  0  0  0  0  0  0  0
   20.5251   18.8827   19.3467 H   0  0  0  0  0  0  0  0  0  0  0  0
   20.1499   17.2886   20.0392 H   0  0  0  0  0  0  0  0  0  0  0  0
   18.9080   18.9145   20.8260 C   0  0  0  0  0  0  0  0  0  0  0  0
   18.0819   18.2577   21.1325 H   0  0  0  0  0  0  0  0  0  0  0  0
   18.4531   19.8392   20.4440 H   0  0  0  0  0  0  0  0  0  0  0  0
   19.7981   19.2362   22.0466 C   0  0  0  0  0  0  0  0  0  0  0  0
   20.2535   18.3068   22.4127 H   0  0  0  0  0  0  0  0  0  0  0  0
   20.6210   19.8949   21.7368 H   0  0  0  0  0  0  0  0  0  0  0  0
   18.9933   19.9130   23.1817 C   0  0  0  0  0  0  0  0  0  0  0  0
   18.1920   19.2429   23.5198 H   0  0  0  0  0  0  0  0  0  0  0  0
   18.4920   20.8048   22.7811 H   0  0  0  0  0  0  0  0  0  0  0  0
   19.8672   20.3456   24.3871 C   0  0  0  0  0  0  0  0  0  0  0  0
   20.5975   21.0924   24.0463 H   0  0  0  0  0  0  0  0  0  0  0  0
   19.2312   20.8661   25.1154 H   0  0  0  0  0  0  0  0  0  0  0  0
   20.6291   19.1952   25.0987 C   0  0  0  0  0  0  0  0  0  0  0  0
   21.1940   19.6160   25.9412 H   0  0  0  0  0  0  0  0  0  0  0  0
   21.3866   18.7820   24.4197 H   0  0  0  0  0  0  0  0  0  0  0  0
   19.7301   18.0406   25.6129 C   0  0  0  0  0  0  0  0  0  0  0  0
   19.2845   17.5124   24.7603 H   0  0  0  0  0  0  0  0  0  0  0  0
   20.3536   17.3008   26.1319 H   0  0  0  0  0  0  0  0  0  0  0  0
   18.6019   18.5015   26.5572 C   0  0  0  0  0  0  0  0  0  0  0  0
   17.9932   17.6400   26.8448 H   0  0  0  0  0  0  0  0  0  0  0  0
   17.9572   19.2167   26.0397 H   0  0  0  0  0  0  0  0  0  0  0  0
   19.1055   19.1563   27.8279 N   0  3  0  0  0  0  0  0  0  0  0  0
   19.6948   18.5204   28.3750 H   0  0  0  0  0  0  0  0  0  0  0  0
   18.3343   19.4506   28.4371 H   0  0  0  0  0  0  0  0  0  0  0  0
   19.6659   19.9899   27.6250 H   0  0  0  0  0  0  0  0  0  0  0  0
  1  2  1  0  0  0  0
  1  3  1  0  0  0  0
  1  4  1  0  0  0  0
  1  5  1  0  0  0  0
  5  6  1  0  0  0  0
  5  7  1  0  0  0  0
  5  8  1  0  0  0  0
  8  9  1  0  0  0  0
  8 10  1  0  0  0  0
  8 11  1  0  0  0  0
 11 12  1  0  0  0  0
 11 13  1  0  0  0  0
 11 14  1  0  0  0  0
 14 15  1  0  0  0  0
 14 16  1  0  0  0  0
 14 17  1  0  0  0  0
 17 18  1  0  0  0  0
 17 19  1  0  0  0  0
 17 20  1  0  0  0  0
 20 21  1  0  0  0  0
 20 22  1  0  0  0  0
 20 23  1  0  0  0  0
 23 24  1  0  0  0  0
 23 25  1  0  0  0  0
 23 26  1  0  0  0  0
 26 27  1  0  0  0  0
 26 28  1  0  0  0  0
 26 29  1  0  0  0  0
M  END
> <VM2 Rank>
133

> <Conf_Id>
447

> <Probability>
0.17

> <Sum Probability>
92.25

> <Delta G>
2.070

> <G>
60.218

> <E>
22.147

> <-TS>
38.071

> <U+W>
-1.998

> <U>
50.057

> <W>
-52.055

> <W(PB)>
-54.499

> <W(SA)>
2.444

> <Valence>
3.893

> <Coulomb>
45.518

> <VdW>
0.646

> <VdW6>
-10.245

> <VdW12>
10.891

> <Bond>
0.281

> <Angle>
1.301

> <Pdih>
2.310

> <Idih>
0.000

> <Tether>
0.000

$$$$
VeraChem MOL file


 29 28  0  0  0  0  0  0  0  0999 V2000     
   20.3808   17.7826   20.6081 C   0  0  0  0  0  0  0  0  0  0  0  0
   20.2201   16.9276   21.2775 H   0  0  0  0  0  0  0  0  0  0  0  0
   20.5659   17.3898   19.5999 H   0  0  0  0  0  0  0  0  0  0  0  0
   21.2895   18.3060   20.9302 H   0  0  0  0  0  0  0  0  0  0  0  0
   19.1549   18.7238   20.6050 C   0  0  0  0  0  0  0  0  0  0  0  0
   18.3002   18.1912   20.1651 H   0  0  0  0  0  0  0  0  0  0  0  0
   19.3509   19.5845   19.9505 H   0  0  0  0  0  0  0  0  0  0  0  0
   18.7589   19.2184   22.0168 C   0  0  0  0  0  0  0  0  0  0  0  0
   17.8232   19.7887   21.9387 H   0  0  0  0  0  0  0  0  0  0  0  0
   18.5423   18.3501   22.6529 H   0  0  0  0  0  0  0  0  0  0  0  0
   19.8396   20.1083   22.6808 C   0  0  0  0  0  0  0  0  0  0  0  0
   20.1224   20.9079   21.9825 H   0  0  0  0  0  0  0  0  0  0  0  0
   20.7525   19.5264   22.8587 H   0  0  0  0  0  0  0  0  0  0  0  0
   19.3720   20.7616   24.0070 C   0  0  0  0  0  0  0  0  0  0  0  0
   20.1854   21.3888   24.3971 H   0  0  0  0  0  0  0  0  0  0  0  0
   18.5415   21.4478   23.7912 H   0  0  0  0  0  0  0  0  0  0  0  0
   18.9243   19.7728   25.1146 C   0  0  0  0  0  0  0  0  0  0  0  0
   18.0353   19.2185   24.7856 H   0  0  0  0  0  0  0  0  0  0  0  0
   18.6074   20.3611   25.9857 H   0  0  0  0  0  0  0  0  0  0  0  0
   20.0323   18.7776   25.5412 C   0  0  0  0  0  0  0  0  0  0  0  0
   20.3223   18.1563   24.6847 H   0  0  0  0  0  0  0  0  0  0  0  0
   20.9315   19.3257   25.8522 H   0  0  0  0  0  0  0  0  0  0  0  0
   19.5824   17.8392   26.6774 C   0  0  0  0  0  0  0  0  0  0  0  0
   20.3653   17.1001   26.8681 H   0  0  0  0  0  0  0  0  0  0  0  0
   18.6760   17.3063   26.3777 H   0  0  0  0  0  0  0  0  0  0  0  0
   19.2987   18.5537   27.9841 N   0  3  0  0  0  0  0  0  0  0  0  0
   20.1229   19.0564   28.3293 H   0  0  0  0  0  0  0  0  0  0  0  0
   19.0152   17.8997   28.7219 H   0  0  0  0  0  0  0  0  0  0  0  0
   18.5443   19.2402   27.8850 H   0  0  0  0  0  0  0  0  0  0  0  0
  1  2  1  0  0  0  0
  1  3  1  0  0  0  0
  1  4  1  0  0  0  0
  1  5  1  0  0  0  0
  5  6  1  0  0  0  0
  5  7  1  0  0  0  0
  5  8  1  0  0  0  0
  8  9  1  0  0  0  0
  8 10  1  0  0  0  0
  8 11  1  0  0  0  0
 11 12  1  0  0  0  0
 11 13  1  0  0  0  0
 11 14  1  0  0  0  0
 14 15  1  0  0  0  0
 14 16  1  0  0  0  0
 14 17  1  0  0  0  0
 17 18  1  0  0  0  0
 17 19  1  0  0  0  0
 17 20  1  0  0  0  0
 20 21  1  0  0  0  0
 20 22  1  0  0  0  0
 20 23  1  0  0  0  0
 23 24  1  0  0  0  0
 23 25  1  0  0  0  0
 23 26  1  0  0  0  0
 26 27  1  0  0  0  0
 26 28  1  0  0  0  0
 26 29  1  0  0  0  0
M  END
> <VM2 Rank>
134

> <Conf_Id>
2312

> <Probability>
0.16

> <Sum Probability>
92.41

> <Delta G>
2.087

> <G>
60.235

> <E>
22.373

> <-TS>
37.862

> <U+W>
-1.772

> <U>
50.269

> <W>
-52.041

> <W(PB)>
-54.457

> <W(SA)>
2.416

> <Valence>
4.157

> <Coulomb>
45.150

> <VdW>
0.962

> <VdW6>
-9.874

> <VdW12>
10.836

> <Bond>
0.290

> <Angle>
1.330

> <Pdih>
2.538

> <Idih>
0.000

> <Tether>
0.000

$$$$
VeraChem MOL file


 29 28  0  0  0  0  0  0  0  0999 V2000     
   19.2273   19.8307   19.9551 C   0  0  0  0  0  0  0  0  0  0  0  0
   18.6017   19.9929   19.0678 H   0  0  0  0  0  0  0  0  0  0  0  0
   19.1090   20.7056   20.6062 H   0  0  0  0  0  0  0  0  0  0  0  0
   20.2733   19.7858   19.6250 H   0  0  0  0  0  0  0  0  0  0  0  0
   18.8158   18.5270   20.6759 C   0  0  0  0  0  0  0  0  0  0  0  0
   18.8344   17.7008   19.9514 H   0  0  0  0  0  0  0  0  0  0  0  0
   17.7762   18.6088   21.0225 H   0  0  0  0  0  0  0  0  0  0  0  0
   19.7372   18.1649   21.8655 C   0  0  0  0  0  0  0  0  0  0  0  0
   19.4413   17.1784   22.2482 H   0  0  0  0  0  0  0  0  0  0  0  0
   20.7716   18.0612   21.5097 H   0  0  0  0  0  0  0  0  0  0  0  0
   19.6831   19.1919   23.0217 C   0  0  0  0  0  0  0  0  0  0  0  0
   18.6383   19.3322   23.3280 H   0  0  0  0  0  0  0  0  0  0  0  0
   20.0499   20.1663   22.6737 H   0  0  0  0  0  0  0  0  0  0  0  0
   20.5310   18.7345   24.2325 C   0  0  0  0  0  0  0  0  0  0  0  0
   20.1422   17.7827   24.6184 H   0  0  0  0  0  0  0  0  0  0  0  0
   21.5555   18.5281   23.8933 H   0  0  0  0  0  0  0  0  0  0  0  0
   20.5962   19.7829   25.3730 C   0  0  0  0  0  0  0  0  0  0  0  0
   21.0779   20.6948   24.9944 H   0  0  0  0  0  0  0  0  0  0  0  0
   21.2572   19.4048   26.1644 H   0  0  0  0  0  0  0  0  0  0  0  0
   19.2244   20.1620   25.9903 C   0  0  0  0  0  0  0  0  0  0  0  0
   19.3832   20.8682   26.8159 H   0  0  0  0  0  0  0  0  0  0  0  0
   18.6215   20.7005   25.2480 H   0  0  0  0  0  0  0  0  0  0  0  0
   18.4160   18.9553   26.5073 C   0  0  0  0  0  0  0  0  0  0  0  0
   18.2214   18.2621   25.6848 H   0  0  0  0  0  0  0  0  0  0  0  0
   17.4543   19.3010   26.8960 H   0  0  0  0  0  0  0  0  0  0  0  0
   19.1130   18.1889   27.6137 N   0  3  0  0  0  0  0  0  0  0  0  0
   20.0154   17.8161   27.3023 H   0  0  0  0  0  0  0  0  0  0  0  0
   18.5525   17.3937   27.9388 H   0  0  0  0  0  0  0  0  0  0  0  0
   19.2952   18.7819   28.4299 H   0  0  0  0  0  0  0  0  0  0  0  0
  1  2  1  0  0  0  0
  1  3  1  0  0  0  0
  1  4  1  0  0  0  0
  1  5  1  0  0  0  0
  5  6  1  0  0  0  0
  5  7  1  0  0  0  0
  5  8  1  0  0  0  0
  8  9  1  0  0  0  0
  8 10  1  0  0  0  0
  8 11  1  0  0  0  0
 11 12  1  0  0  0  0
 11 13  1  0  0  0  0
 11 14  1  0  0  0  0
 14 15  1  0  0  0  0
 14 16  1  0  0  0  0
 14 17  1  0  0  0  0
 17 18  1  0  0  0  0
 17 19  1  0  0  0  0
 17 20  1  0  0  0  0
 20 21  1  0  0  0  0
 20 22  1  0  0  0  0
 20 23  1  0  0  0  0
 23 24  1  0  0  0  0
 23 25  1  0  0  0  0
 23 26  1  0  0  0  0
 26 27  1  0  0  0  0
 26 28  1  0  0  0  0
 26 29  1  0  0  0  0
M  END
> <VM2 Rank>
135

> <Conf_Id>
1246

> <Probability>
0.16

> <Sum Probability>
92.57

> <Delta G>
2.089

> <G>
60.237

> <E>
22.388

> <-TS>
37.849

> <U+W>
-1.757

> <U>
50.238

> <W>
-51.994

> <W(PB)>
-54.461

> <W(SA)>
2.466

> <Valence>
3.943

> <Coulomb>
45.444

> <VdW>
0.851

> <VdW6>
-9.878

> <VdW12>
10.729

> <Bond>
0.271

> <Angle>
1.194

> <Pdih>
2.478

> <Idih>
0.000

> <Tether>
0.000

$$$$
VeraChem MOL file


 29 28  0  0  0  0  0  0  0  0999 V2000     
   20.2333   17.7741   20.6874 C   0  0  0  0  0  0  0  0  0  0  0  0
   19.9207   16.9814   19.9956 H   0  0  0  0  0  0  0  0  0  0  0  0
   21.2649   18.0526   20.4360 H   0  0  0  0  0  0  0  0  0  0  0  0
   20.2278   17.3506   21.6995 H   0  0  0  0  0  0  0  0  0  0  0  0
   19.2875   18.9915   20.5786 C   0  0  0  0  0  0  0  0  0  0  0  0
   18.2672   18.6936   20.8549 H   0  0  0  0  0  0  0  0  0  0  0  0
   19.2344   19.3053   19.5268 H   0  0  0  0  0  0  0  0  0  0  0  0
   19.7413   20.2029   21.4323 C   0  0  0  0  0  0  0  0  0  0  0  0
   20.7113   20.5579   21.0578 H   0  0  0  0  0  0  0  0  0  0  0  0
   19.0368   21.0310   21.2743 H   0  0  0  0  0  0  0  0  0  0  0  0
   19.8653   19.9296   22.9534 C   0  0  0  0  0  0  0  0  0  0  0  0
   20.2045   20.8520   23.4442 H   0  0  0  0  0  0  0  0  0  0  0  0
   20.6524   19.1854   23.1283 H   0  0  0  0  0  0  0  0  0  0  0  0
   18.5377   19.4689   23.6060 C   0  0  0  0  0  0  0  0  0  0  0  0
   17.7402   20.1723   23.3300 H   0  0  0  0  0  0  0  0  0  0  0  0
   18.2410   18.4904   23.2060 H   0  0  0  0  0  0  0  0  0  0  0  0
   18.6087   19.3856   25.1503 C   0  0  0  0  0  0  0  0  0  0  0  0
   17.6047   19.1565   25.5336 H   0  0  0  0  0  0  0  0  0  0  0  0
   18.8776   20.3706   25.5547 H   0  0  0  0  0  0  0  0  0  0  0  0
   19.6003   18.3114   25.6625 C   0  0  0  0  0  0  0  0  0  0  0  0
   19.3757   17.3500   25.1818 H   0  0  0  0  0  0  0  0  0  0  0  0
   20.6282   18.5723   25.3806 H   0  0  0  0  0  0  0  0  0  0  0  0
   19.5293   18.1220   27.1897 C   0  0  0  0  0  0  0  0  0  0  0  0
   20.1905   17.3029   27.4855 H   0  0  0  0  0  0  0  0  0  0  0  0
   18.5088   17.8592   27.4811 H   0  0  0  0  0  0  0  0  0  0  0  0
   19.9404   19.3520   27.9748 N   0  3  0  0  0  0  0  0  0  0  0  0
   20.9024   19.6354   27.7615 H   0  0  0  0  0  0  0  0  0  0  0  0
   19.8920   19.1915   28.9869 H   0  0  0  0  0  0  0  0  0  0  0  0
   19.3353   20.1528   27.7680 H   0  0  0  0  0  0  0  0  0  0  0  0
  1  2  1  0  0  0  0
  1  3  1  0  0  0  0
  1  4  1  0  0  0  0
  1  5  1  0  0  0  0
  5  6  1  0  0  0  0
  5  7  1  0  0  0  0
  5  8  1  0  0  0  0
  8  9  1  0  0  0  0
  8 10  1  0  0  0  0
  8 11  1  0  0  0  0
 11 12  1  0  0  0  0
 11 13  1  0  0  0  0
 11 14  1  0  0  0  0
 14 15  1  0  0  0  0
 14 16  1  0  0  0  0
 14 17  1  0  0  0  0
 17 18  1  0  0  0  0
 17 19  1  0  0  0  0
 17 20  1  0  0  0  0
 20 21  1  0  0  0  0
 20 22  1  0  0  0  0
 20 23  1  0  0  0  0
 23 24  1  0  0  0  0
 23 25  1  0  0  0  0
 23 26  1  0  0  0  0
 26 27  1  0  0  0  0
 26 28  1  0  0  0  0
 26 29  1  0  0  0  0
M  END
> <VM2 Rank>
136

> <Conf_Id>
2634

> <Probability>
0.16

> <Sum Probability>
92.73

> <Delta G>
2.103

> <G>
60.251

> <E>
22.401

> <-TS>
37.851

> <U+W>
-1.744

> <U>
50.227

> <W>
-51.971

> <W(PB)>
-54.388

> <W(SA)>
2.417

> <Valence>
4.132

> <Coulomb>
45.141

> <VdW>
0.954

> <VdW6>
-9.818

> <VdW12>
10.772

> <Bond>
0.284

> <Angle>
1.254

> <Pdih>
2.595

> <Idih>
0.000

> <Tether>
0.000

$$$$
VeraChem MOL file


 29 28  0  0  0  0  0  0  0  0999 V2000     
   20.0899   19.8102   20.1834 C   0  0  0  0  0  0  0  0  0  0  0  0
   21.0288   19.4375   20.6114 H   0  0  0  0  0  0  0  0  0  0  0  0
   19.7961   19.1415   19.3640 H   0  0  0  0  0  0  0  0  0  0  0  0
   20.2917   20.8000   19.7539 H   0  0  0  0  0  0  0  0  0  0  0  0
   18.9775   19.9000   21.2521 C   0  0  0  0  0  0  0  0  0  0  0  0
   18.0947   20.3776   20.8047 H   0  0  0  0  0  0  0  0  0  0  0  0
   19.2983   20.5633   22.0664 H   0  0  0  0  0  0  0  0  0  0  0  0
   18.5584   18.5201   21.8193 C   0  0  0  0  0  0  0  0  0  0  0  0
   17.7295   18.6615   22.5254 H   0  0  0  0  0  0  0  0  0  0  0  0
   18.1473   17.9117   21.0021 H   0  0  0  0  0  0  0  0  0  0  0  0
   19.6937   17.7174   22.5100 C   0  0  0  0  0  0  0  0  0  0  0  0
   20.4388   17.4240   21.7586 H   0  0  0  0  0  0  0  0  0  0  0  0
   19.2753   16.7763   22.8923 H   0  0  0  0  0  0  0  0  0  0  0  0
   20.4141   18.4531   23.6691 C   0  0  0  0  0  0  0  0  0  0  0  0
   21.2020   17.7945   24.0597 H   0  0  0  0  0  0  0  0  0  0  0  0
   20.9282   19.3439   23.2847 H   0  0  0  0  0  0  0  0  0  0  0  0
   19.4701   18.8514   24.8286 C   0  0  0  0  0  0  0  0  0  0  0  0
   18.9296   17.9611   25.1763 H   0  0  0  0  0  0  0  0  0  0  0  0
   18.7165   19.5644   24.4689 H   0  0  0  0  0  0  0  0  0  0  0  0
   20.2468   19.4890   26.0046 C   0  0  0  0  0  0  0  0  0  0  0  0
   20.9810   18.7757   26.4021 H   0  0  0  0  0  0  0  0  0  0  0  0
   20.8162   20.3534   25.6376 H   0  0  0  0  0  0  0  0  0  0  0  0
   19.3212   19.9617   27.1419 C   0  0  0  0  0  0  0  0  0  0  0  0
   18.5855   20.6683   26.7483 H   0  0  0  0  0  0  0  0  0  0  0  0
   19.9147   20.4755   27.9031 H   0  0  0  0  0  0  0  0  0  0  0  0
   18.5723   18.8350   27.8260 N   0  3  0  0  0  0  0  0  0  0  0  0
   17.9661   18.3308   27.1714 H   0  0  0  0  0  0  0  0  0  0  0  0
   17.9745   19.1807   28.5847 H   0  0  0  0  0  0  0  0  0  0  0  0
   19.2124   18.1479   28.2377 H   0  0  0  0  0  0  0  0  0  0  0  0
  1  2  1  0  0  0  0
  1  3  1  0  0  0  0
  1  4  1  0  0  0  0
  1  5  1  0  0  0  0
  5  6  1  0  0  0  0
  5  7  1  0  0  0  0
  5  8  1  0  0  0  0
  8  9  1  0  0  0  0
  8 10  1  0  0  0  0
  8 11  1  0  0  0  0
 11 12  1  0  0  0  0
 11 13  1  0  0  0  0
 11 14  1  0  0  0  0
 14 15  1  0  0  0  0
 14 16  1  0  0  0  0
 14 17  1  0  0  0  0
 17 18  1  0  0  0  0
 17 19  1  0  0  0  0
 17 20  1  0  0  0  0
 20 21  1  0  0  0  0
 20 22  1  0  0  0  0
 20 23  1  0  0  0  0
 23 24  1  0  0  0  0
 23 25  1  0  0  0  0
 23 26  1  0  0  0  0
 26 27  1  0  0  0  0
 26 28  1  0  0  0  0
 26 29  1  0  0  0  0
M  END
> <VM2 Rank>
137

> <Conf_Id>
2187

> <Probability>
0.16

> <Sum Probability>
92.89

> <Delta G>
2.104

> <G>
60.252

> <E>
22.188

> <-TS>
38.064

> <U+W>
-1.956

> <U>
50.133

> <W>
-52.089

> <W(PB)>
-54.535

> <W(SA)>
2.445

> <Valence>
4.088

> <Coulomb>
45.212

> <VdW>
0.833

> <VdW6>
-10.051

> <VdW12>
10.884

> <Bond>
0.287

> <Angle>
1.410

> <Pdih>
2.391

> <Idih>
0.000

> <Tether>
0.000

$$$$
VeraChem MOL file


 29 28  0  0  0  0  0  0  0  0999 V2000     
   20.8107   20.0554   20.6173 C   0  0  0  0  0  0  0  0  0  0  0  0
   21.7476   19.5772   20.9311 H   0  0  0  0  0  0  0  0  0  0  0  0
   20.9921   20.5496   19.6541 H   0  0  0  0  0  0  0  0  0  0  0  0
   20.5615   20.8363   21.3464 H   0  0  0  0  0  0  0  0  0  0  0  0
   19.6735   19.0169   20.4863 C   0  0  0  0  0  0  0  0  0  0  0  0
   19.9134   18.3318   19.6612 H   0  0  0  0  0  0  0  0  0  0  0  0
   18.7405   19.5241   20.2035 H   0  0  0  0  0  0  0  0  0  0  0  0
   19.4482   18.1853   21.7720 C   0  0  0  0  0  0  0  0  0  0  0  0
   18.7077   17.4030   21.5554 H   0  0  0  0  0  0  0  0  0  0  0  0
   20.3781   17.6653   22.0402 H   0  0  0  0  0  0  0  0  0  0  0  0
   18.9569   19.0282   22.9732 C   0  0  0  0  0  0  0  0  0  0  0  0
   18.0524   19.5823   22.6871 H   0  0  0  0  0  0  0  0  0  0  0  0
   19.7201   19.7714   23.2342 H   0  0  0  0  0  0  0  0  0  0  0  0
   18.6530   18.1440   24.2062 C   0  0  0  0  0  0  0  0  0  0  0  0
   17.9349   17.3636   23.9188 H   0  0  0  0  0  0  0  0  0  0  0  0
   19.5650   17.6168   24.5164 H   0  0  0  0  0  0  0  0  0  0  0  0
   18.0621   18.9332   25.4029 C   0  0  0  0  0  0  0  0  0  0  0  0
   17.8256   18.2273   26.2103 H   0  0  0  0  0  0  0  0  0  0  0  0
   17.1013   19.3734   25.1025 H   0  0  0  0  0  0  0  0  0  0  0  0
   18.9747   20.0579   25.9586 C   0  0  0  0  0  0  0  0  0  0  0  0
   19.0703   20.8581   25.2136 H   0  0  0  0  0  0  0  0  0  0  0  0
   18.4905   20.5174   26.8305 H   0  0  0  0  0  0  0  0  0  0  0  0
   20.3846   19.5794   26.3588 C   0  0  0  0  0  0  0  0  0  0  0  0
   20.9727   20.4320   26.7090 H   0  0  0  0  0  0  0  0  0  0  0  0
   20.8896   19.1517   25.4887 H   0  0  0  0  0  0  0  0  0  0  0  0
   20.3804   18.5376   27.4597 N   0  3  0  0  0  0  0  0  0  0  0  0
   21.3303   18.2389   27.7062 H   0  0  0  0  0  0  0  0  0  0  0  0
   19.8617   17.6986   27.1817 H   0  0  0  0  0  0  0  0  0  0  0  0
   19.9451   18.8931   28.3172 H   0  0  0  0  0  0  0  0  0  0  0  0
  1  2  1  0  0  0  0
  1  3  1  0  0  0  0
  1  4  1  0  0  0  0
  1  5  1  0  0  0  0
  5  6  1  0  0  0  0
  5  7  1  0  0  0  0
  5  8  1  0  0  0  0
  8  9  1  0  0  0  0
  8 10  1  0  0  0  0
  8 11  1  0  0  0  0
 11 12  1  0  0  0  0
 11 13  1  0  0  0  0
 11 14  1  0  0  0  0
 14 15  1  0  0  0  0
 14 16  1  0  0  0  0
 14 17  1  0  0  0  0
 17 18  1  0  0  0  0
 17 19  1  0  0  0  0
 17 20  1  0  0  0  0
 20 21  1  0  0  0  0
 20 22  1  0  0  0  0
 20 23  1  0  0  0  0
 23 24  1  0  0  0  0
 23 25  1  0  0  0  0
 23 26  1  0  0  0  0
 26 27  1  0  0  0  0
 26 28  1  0  0  0  0
 26 29  1  0  0  0  0
M  END
> <VM2 Rank>
138

> <Conf_Id>
2656

> <Probability>
0.16

> <Sum Probability>
93.04

> <Delta G>
2.106

> <G>
60.254

> <E>
22.405

> <-TS>
37.849

> <U+W>
-1.740

> <U>
50.314

> <W>
-52.054

> <W(PB)>
-54.517

> <W(SA)>
2.463

> <Valence>
3.941

> <Coulomb>
45.534

> <VdW>
0.839

> <VdW6>
-9.919

> <VdW12>
10.757

> <Bond>
0.274

> <Angle>
1.197

> <Pdih>
2.470

> <Idih>
0.000

> <Tether>
0.000

$$$$
VeraChem MOL file


 29 28  0  0  0  0  0  0  0  0999 V2000     
   20.2399   19.7220   19.7302 C   0  0  0  0  0  0  0  0  0  0  0  0
   20.4672   18.7201   19.3432 H   0  0  0  0  0  0  0  0  0  0  0  0
   19.8882   20.3358   18.8908 H   0  0  0  0  0  0  0  0  0  0  0  0
   21.1727   20.1642   20.1036 H   0  0  0  0  0  0  0  0  0  0  0  0
   19.1722   19.6575   20.8428 C   0  0  0  0  0  0  0  0  0  0  0  0
   18.2412   19.2436   20.4308 H   0  0  0  0  0  0  0  0  0  0  0  0
   18.9420   20.6756   21.1867 H   0  0  0  0  0  0  0  0  0  0  0  0
   19.6422   18.7980   22.0369 C   0  0  0  0  0  0  0  0  0  0  0  0
   19.8688   17.7806   21.6896 H   0  0  0  0  0  0  0  0  0  0  0  0
   20.5769   19.2158   22.4331 H   0  0  0  0  0  0  0  0  0  0  0  0
   18.5748   18.7367   23.1555 C   0  0  0  0  0  0  0  0  0  0  0  0
   17.6288   18.3783   22.7269 H   0  0  0  0  0  0  0  0  0  0  0  0
   18.3718   19.7482   23.5312 H   0  0  0  0  0  0  0  0  0  0  0  0
   18.9624   17.8022   24.3303 C   0  0  0  0  0  0  0  0  0  0  0  0
   18.1304   17.7717   25.0464 H   0  0  0  0  0  0  0  0  0  0  0  0
   19.0620   16.7763   23.9499 H   0  0  0  0  0  0  0  0  0  0  0  0
   20.2694   18.1840   25.0762 C   0  0  0  0  0  0  0  0  0  0  0  0
   21.1272   18.0527   24.4035 H   0  0  0  0  0  0  0  0  0  0  0  0
   20.4299   17.4682   25.8934 H   0  0  0  0  0  0  0  0  0  0  0  0
   20.2940   19.6255   25.6482 C   0  0  0  0  0  0  0  0  0  0  0  0
   21.2373   19.7844   26.1873 H   0  0  0  0  0  0  0  0  0  0  0  0
   20.2942   20.3496   24.8234 H   0  0  0  0  0  0  0  0  0  0  0  0
   19.1150   19.9436   26.5891 C   0  0  0  0  0  0  0  0  0  0  0  0
   18.1709   19.8171   26.0528 H   0  0  0  0  0  0  0  0  0  0  0  0
   19.1828   20.9838   26.9190 H   0  0  0  0  0  0  0  0  0  0  0  0
   19.0740   19.0684   27.8259 N   0  3  0  0  0  0  0  0  0  0  0  0
   18.9852   18.0770   27.5824 H   0  0  0  0  0  0  0  0  0  0  0  0
   18.2816   19.3033   28.4335 H   0  0  0  0  0  0  0  0  0  0  0  0
   19.9247   19.1675   28.3894 H   0  0  0  0  0  0  0  0  0  0  0  0
  1  2  1  0  0  0  0
  1  3  1  0  0  0  0
  1  4  1  0  0  0  0
  1  5  1  0  0  0  0
  5  6  1  0  0  0  0
  5  7  1  0  0  0  0
  5  8  1  0  0  0  0
  8  9  1  0  0  0  0
  8 10  1  0  0  0  0
  8 11  1  0  0  0  0
 11 12  1  0  0  0  0
 11 13  1  0  0  0  0
 11 14  1  0  0  0  0
 14 15  1  0  0  0  0
 14 16  1  0  0  0  0
 14 17  1  0  0  0  0
 17 18  1  0  0  0  0
 17 19  1  0  0  0  0
 17 20  1  0  0  0  0
 20 21  1  0  0  0  0
 20 22  1  0  0  0  0
 20 23  1  0  0  0  0
 23 24  1  0  0  0  0
 23 25  1  0  0  0  0
 23 26  1  0  0  0  0
 26 27  1  0  0  0  0
 26 28  1  0  0  0  0
 26 29  1  0  0  0  0
M  END
> <VM2 Rank>
139

> <Conf_Id>
446

> <Probability>
0.16

> <Sum Probability>
93.20

> <Delta G>
2.112

> <G>
60.260

> <E>
22.189

> <-TS>
38.072

> <U+W>
-1.956

> <U>
50.057

> <W>
-52.013

> <W(PB)>
-54.451

> <W(SA)>
2.439

> <Valence>
3.893

> <Coulomb>
45.518

> <VdW>
0.646

> <VdW6>
-10.245

> <VdW12>
10.891

> <Bond>
0.281

> <Angle>
1.301

> <Pdih>
2.310

> <Idih>
0.000

> <Tether>
0.000

$$$$
VeraChem MOL file


 29 28  0  0  0  0  0  0  0  0999 V2000     
   20.1027   18.2627   20.2790 C   0  0  0  0  0  0  0  0  0  0  0  0
   19.2760   18.3158   19.5588 H   0  0  0  0  0  0  0  0  0  0  0  0
   21.0021   17.9450   19.7361 H   0  0  0  0  0  0  0  0  0  0  0  0
   19.8685   17.4836   21.0151 H   0  0  0  0  0  0  0  0  0  0  0  0
   20.3355   19.6309   20.9586 C   0  0  0  0  0  0  0  0  0  0  0  0
   20.6814   20.3478   20.2009 H   0  0  0  0  0  0  0  0  0  0  0  0
   21.1520   19.5483   21.6882 H   0  0  0  0  0  0  0  0  0  0  0  0
   19.0662   20.2057   21.6376 C   0  0  0  0  0  0  0  0  0  0  0  0
   19.3087   21.1875   22.0670 H   0  0  0  0  0  0  0  0  0  0  0  0
   18.3063   20.3944   20.8669 H   0  0  0  0  0  0  0  0  0  0  0  0
   18.4431   19.3130   22.7416 C   0  0  0  0  0  0  0  0  0  0  0  0
   18.0909   18.3690   22.3050 H   0  0  0  0  0  0  0  0  0  0  0  0
   17.5482   19.8185   23.1298 H   0  0  0  0  0  0  0  0  0  0  0  0
   19.4059   19.0200   23.9168 C   0  0  0  0  0  0  0  0  0  0  0  0
   20.2696   18.4458   23.5565 H   0  0  0  0  0  0  0  0  0  0  0  0
   19.7933   19.9691   24.3102 H   0  0  0  0  0  0  0  0  0  0  0  0
   18.7059   18.2250   25.0446 C   0  0  0  0  0  0  0  0  0  0  0  0
   18.2795   17.3038   24.6238 H   0  0  0  0  0  0  0  0  0  0  0  0
   17.8577   18.8026   25.4357 H   0  0  0  0  0  0  0  0  0  0  0  0
   19.6609   17.8414   26.2027 C   0  0  0  0  0  0  0  0  0  0  0  0
   19.1111   17.2473   26.9447 H   0  0  0  0  0  0  0  0  0  0  0  0
   20.4550   17.1891   25.8158 H   0  0  0  0  0  0  0  0  0  0  0  0
   20.3121   19.0496   26.9056 C   0  0  0  0  0  0  0  0  0  0  0  0
   20.9016   19.6230   26.1857 H   0  0  0  0  0  0  0  0  0  0  0  0
   20.9861   18.6938   27.6896 H   0  0  0  0  0  0  0  0  0  0  0  0
   19.3118   19.9896   27.5485 N   0  3  0  0  0  0  0  0  0  0  0  0
   18.7447   19.5137   28.2578 H   0  0  0  0  0  0  0  0  0  0  0  0
   18.6658   20.3823   26.8565 H   0  0  0  0  0  0  0  0  0  0  0  0
   19.7741   20.7788   28.0131 H   0  0  0  0  0  0  0  0  0  0  0  0
  1  2  1  0  0  0  0
  1  3  1  0  0  0  0
  1  4  1  0  0  0  0
  1  5  1  0  0  0  0
  5  6  1  0  0  0  0
  5  7  1  0  0  0  0
  5  8  1  0  0  0  0
  8  9  1  0  0  0  0
  8 10  1  0  0  0  0
  8 11  1  0  0  0  0
 11 12  1  0  0  0  0
 11 13  1  0  0  0  0
 11 14  1  0  0  0  0
 14 15  1  0  0  0  0
 14 16  1  0  0  0  0
 14 17  1  0  0  0  0
 17 18  1  0  0  0  0
 17 19  1  0  0  0  0
 17 20  1  0  0  0  0
 20 21  1  0  0  0  0
 20 22  1  0  0  0  0
 20 23  1  0  0  0  0
 23 24  1  0  0  0  0
 23 25  1  0  0  0  0
 23 26  1  0  0  0  0
 26 27  1  0  0  0  0
 26 28  1  0  0  0  0
 26 29  1  0  0  0  0
M  END
> <VM2 Rank>
140

> <Conf_Id>
1620

> <Probability>
0.15

> <Sum Probability>
93.35

> <Delta G>
2.119

> <G>
60.267

> <E>
22.360

> <-TS>
37.907

> <U+W>
-1.784

> <U>
50.249

> <W>
-52.033

> <W(PB)>
-54.480

> <W(SA)>
2.447

> <Valence>
3.924

> <Coulomb>
45.456

> <VdW>
0.869

> <VdW6>
-9.872

> <VdW12>
10.741

> <Bond>
0.269

> <Angle>
1.270

> <Pdih>
2.384

> <Idih>
0.000

> <Tether>
0.000

$$$$
VeraChem MOL file


 29 28  0  0  0  0  0  0  0  0999 V2000     
   19.9285   17.5804   20.5621 C   0  0  0  0  0  0  0  0  0  0  0  0
   20.9523   17.3457   20.8810 H   0  0  0  0  0  0  0  0  0  0  0  0
   19.2317   17.1048   21.2633 H   0  0  0  0  0  0  0  0  0  0  0  0
   19.7700   17.1215   19.5776 H   0  0  0  0  0  0  0  0  0  0  0  0
   19.7059   19.1081   20.4884 C   0  0  0  0  0  0  0  0  0  0  0  0
   18.6665   19.3167   20.1990 H   0  0  0  0  0  0  0  0  0  0  0  0
   20.3365   19.5192   19.6877 H   0  0  0  0  0  0  0  0  0  0  0  0
   20.0391   19.8430   21.8091 C   0  0  0  0  0  0  0  0  0  0  0  0
   21.0845   19.6468   22.0845 H   0  0  0  0  0  0  0  0  0  0  0  0
   19.9633   20.9251   21.6341 H   0  0  0  0  0  0  0  0  0  0  0  0
   19.1087   19.4540   22.9827 C   0  0  0  0  0  0  0  0  0  0  0  0
   19.2262   18.3861   23.2033 H   0  0  0  0  0  0  0  0  0  0  0  0
   18.0617   19.6085   22.6878 H   0  0  0  0  0  0  0  0  0  0  0  0
   19.4150   20.2814   24.2540 C   0  0  0  0  0  0  0  0  0  0  0  0
   20.4503   20.1003   24.5719 H   0  0  0  0  0  0  0  0  0  0  0  0
   19.3563   21.3506   24.0079 H   0  0  0  0  0  0  0  0  0  0  0  0
   18.4413   19.9970   25.4267 C   0  0  0  0  0  0  0  0  0  0  0  0
   17.4230   20.2760   25.1227 H   0  0  0  0  0  0  0  0  0  0  0  0
   18.6931   20.6608   26.2647 H   0  0  0  0  0  0  0  0  0  0  0  0
   18.4291   18.5278   25.9245 C   0  0  0  0  0  0  0  0  0  0  0  0
   17.7513   18.4440   26.7843 H   0  0  0  0  0  0  0  0  0  0  0  0
   18.0076   17.8778   25.1471 H   0  0  0  0  0  0  0  0  0  0  0  0
   19.8181   17.9906   26.3232 C   0  0  0  0  0  0  0  0  0  0  0  0
   20.4919   18.0364   25.4636 H   0  0  0  0  0  0  0  0  0  0  0  0
   19.7295   16.9452   26.6311 H   0  0  0  0  0  0  0  0  0  0  0  0
   20.4583   18.7557   27.4643 N   0  3  0  0  0  0  0  0  0  0  0  0
   21.3794   18.3762   27.7089 H   0  0  0  0  0  0  0  0  0  0  0  0
   19.8843   18.7221   28.3131 H   0  0  0  0  0  0  0  0  0  0  0  0
   20.5911   19.7437   27.2269 H   0  0  0  0  0  0  0  0  0  0  0  0
  1  2  1  0  0  0  0
  1  3  1  0  0  0  0
  1  4  1  0  0  0  0
  1  5  1  0  0  0  0
  5  6  1  0  0  0  0
  5  7  1  0  0  0  0
  5  8  1  0  0  0  0
  8  9  1  0  0  0  0
  8 10  1  0  0  0  0
  8 11  1  0  0  0  0
 11 12  1  0  0  0  0
 11 13  1  0  0  0  0
 11 14  1  0  0  0  0
 14 15  1  0  0  0  0
 14 16  1  0  0  0  0
 14 17  1  0  0  0  0
 17 18  1  0  0  0  0
 17 19  1  0  0  0  0
 17 20  1  0  0  0  0
 20 21  1  0  0  0  0
 20 22  1  0  0  0  0
 20 23  1  0  0  0  0
 23 24  1  0  0  0  0
 23 25  1  0  0  0  0
 23 26  1  0  0  0  0
 26 27  1  0  0  0  0
 26 28  1  0  0  0  0
 26 29  1  0  0  0  0
M  END
> <VM2 Rank>
141

> <Conf_Id>
2006

> <Probability>
0.15

> <Sum Probability>
93.51

> <Delta G>
2.121

> <G>
60.269

> <E>
22.420

> <-TS>
37.849

> <U+W>
-1.725

> <U>
50.314

> <W>
-52.038

> <W(PB)>
-54.487

> <W(SA)>
2.448

> <Valence>
3.941

> <Coulomb>
45.534

> <VdW>
0.839

> <VdW6>
-9.919

> <VdW12>
10.758

> <Bond>
0.274

> <Angle>
1.197

> <Pdih>
2.470

> <Idih>
0.000

> <Tether>
0.000

$$$$
VeraChem MOL file


 29 28  0  0  0  0  0  0  0  0999 V2000     
   20.7784   19.5759   19.9666 C   0  0  0  0  0  0  0  0  0  0  0  0
   20.7433   18.5802   19.5055 H   0  0  0  0  0  0  0  0  0  0  0  0
   20.1172   20.2408   19.3956 H   0  0  0  0  0  0  0  0  0  0  0  0
   21.8036   19.9563   19.8700 H   0  0  0  0  0  0  0  0  0  0  0  0
   20.3574   19.5147   21.4501 C   0  0  0  0  0  0  0  0  0  0  0  0
   20.4307   20.5185   21.8913 H   0  0  0  0  0  0  0  0  0  0  0  0
   21.0642   18.8747   21.9947 H   0  0  0  0  0  0  0  0  0  0  0  0
   18.9160   18.9769   21.6117 C   0  0  0  0  0  0  0  0  0  0  0  0
   18.2374   19.5841   20.9968 H   0  0  0  0  0  0  0  0  0  0  0  0
   18.8559   17.9531   21.2175 H   0  0  0  0  0  0  0  0  0  0  0  0
   18.4077   19.0017   23.0738 C   0  0  0  0  0  0  0  0  0  0  0  0
   17.3473   18.7141   23.0794 H   0  0  0  0  0  0  0  0  0  0  0  0
   18.4522   20.0314   23.4522 H   0  0  0  0  0  0  0  0  0  0  0  0
   19.1923   18.0533   24.0150 C   0  0  0  0  0  0  0  0  0  0  0  0
   19.2300   17.0523   23.5639 H   0  0  0  0  0  0  0  0  0  0  0  0
   20.2337   18.3867   24.1042 H   0  0  0  0  0  0  0  0  0  0  0  0
   18.5634   17.9308   25.4268 C   0  0  0  0  0  0  0  0  0  0  0  0
   19.1456   17.2070   26.0127 H   0  0  0  0  0  0  0  0  0  0  0  0
   17.5576   17.4982   25.3354 H   0  0  0  0  0  0  0  0  0  0  0  0
   18.4644   19.2645   26.2129 C   0  0  0  0  0  0  0  0  0  0  0  0
   17.7451   19.9308   25.7198 H   0  0  0  0  0  0  0  0  0  0  0  0
   18.0528   19.0653   27.2111 H   0  0  0  0  0  0  0  0  0  0  0  0
   19.8085   20.0054   26.3599 C   0  0  0  0  0  0  0  0  0  0  0  0
   19.6491   20.9459   26.8944 H   0  0  0  0  0  0  0  0  0  0  0  0
   20.2104   20.2399   25.3708 H   0  0  0  0  0  0  0  0  0  0  0  0
   20.8559   19.2148   27.1182 N   0  3  0  0  0  0  0  0  0  0  0  0
   20.5473   18.9912   28.0700 H   0  0  0  0  0  0  0  0  0  0  0  0
   21.7379   19.7318   27.2018 H   0  0  0  0  0  0  0  0  0  0  0  0
   21.0680   18.3272   26.6520 H   0  0  0  0  0  0  0  0  0  0  0  0
  1  2  1  0  0  0  0
  1  3  1  0  0  0  0
  1  4  1  0  0  0  0
  1  5  1  0  0  0  0
  5  6  1  0  0  0  0
  5  7  1  0  0  0  0
  5  8  1  0  0  0  0
  8  9  1  0  0  0  0
  8 10  1  0  0  0  0
  8 11  1  0  0  0  0
 11 12  1  0  0  0  0
 11 13  1  0  0  0  0
 11 14  1  0  0  0  0
 14 15  1  0  0  0  0
 14 16  1  0  0  0  0
 14 17  1  0  0  0  0
 17 18  1  0  0  0  0
 17 19  1  0  0  0  0
 17 20  1  0  0  0  0
 20 21  1  0  0  0  0
 20 22  1  0  0  0  0
 20 23  1  0  0  0  0
 23 24  1  0  0  0  0
 23 25  1  0  0  0  0
 23 26  1  0  0  0  0
 26 27  1  0  0  0  0
 26 28  1  0  0  0  0
 26 29  1  0  0  0  0
M  END
> <VM2 Rank>
142

> <Conf_Id>
1595

> <Probability>
0.15

> <Sum Probability>
93.66

> <Delta G>
2.126

> <G>
60.274

> <E>
22.421

> <-TS>
37.853

> <U+W>
-1.724

> <U>
50.589

> <W>
-52.313

> <W(PB)>
-54.773

> <W(SA)>
2.460

> <Valence>
3.943

> <Coulomb>
45.873

> <VdW>
0.773

> <VdW6>
-10.007

> <VdW12>
10.781

> <Bond>
0.275

> <Angle>
1.162

> <Pdih>
2.506

> <Idih>
0.000

> <Tether>
0.000

$$$$
VeraChem MOL file


 29 28  0  0  0  0  0  0  0  0999 V2000     
   20.2153   17.9974   19.9312 C   0  0  0  0  0  0  0  0  0  0  0  0
   20.7698   17.0585   19.8051 H   0  0  0  0  0  0  0  0  0  0  0  0
   19.2907   17.9242   19.3437 H   0  0  0  0  0  0  0  0  0  0  0  0
   20.8245   18.8080   19.5105 H   0  0  0  0  0  0  0  0  0  0  0  0
   19.9071   18.2523   21.4218 C   0  0  0  0  0  0  0  0  0  0  0  0
   20.8516   18.2785   21.9812 H   0  0  0  0  0  0  0  0  0  0  0  0
   19.3225   17.4121   21.8217 H   0  0  0  0  0  0  0  0  0  0  0  0
   19.1290   19.5737   21.6250 C   0  0  0  0  0  0  0  0  0  0  0  0
   19.7358   20.4192   21.2727 H   0  0  0  0  0  0  0  0  0  0  0  0
   18.2281   19.5579   20.9961 H   0  0  0  0  0  0  0  0  0  0  0  0
   18.6990   19.8181   23.0920 C   0  0  0  0  0  0  0  0  0  0  0  0
   18.0767   18.9785   23.4285 H   0  0  0  0  0  0  0  0  0  0  0  0
   18.0597   20.7111   23.1240 H   0  0  0  0  0  0  0  0  0  0  0  0
   19.8931   20.0179   24.0589 C   0  0  0  0  0  0  0  0  0  0  0  0
   20.4873   19.0977   24.1201 H   0  0  0  0  0  0  0  0  0  0  0  0
   20.5620   20.7862   23.6474 H   0  0  0  0  0  0  0  0  0  0  0  0
   19.4635   20.4545   25.4832 C   0  0  0  0  0  0  0  0  0  0  0  0
   18.9595   21.4290   25.4232 H   0  0  0  0  0  0  0  0  0  0  0  0
   20.3639   20.6230   26.0892 H   0  0  0  0  0  0  0  0  0  0  0  0
   18.5321   19.4543   26.2170 C   0  0  0  0  0  0  0  0  0  0  0  0
   18.3250   19.8292   27.2281 H   0  0  0  0  0  0  0  0  0  0  0  0
   17.5606   19.4134   25.7081 H   0  0  0  0  0  0  0  0  0  0  0  0
   19.1023   18.0252   26.3157 C   0  0  0  0  0  0  0  0  0  0  0  0
   19.2795   17.6288   25.3125 H   0  0  0  0  0  0  0  0  0  0  0  0
   18.3764   17.3774   26.8146 H   0  0  0  0  0  0  0  0  0  0  0  0
   20.4026   17.9444   27.0902 N   0  3  0  0  0  0  0  0  0  0  0  0
   21.1349   18.5153   26.6567 H   0  0  0  0  0  0  0  0  0  0  0  0
   20.7575   16.9832   27.1409 H   0  0  0  0  0  0  0  0  0  0  0  0
   20.2913   18.2748   28.0543 H   0  0  0  0  0  0  0  0  0  0  0  0
  1  2  1  0  0  0  0
  1  3  1  0  0  0  0
  1  4  1  0  0  0  0
  1  5  1  0  0  0  0
  5  6  1  0  0  0  0
  5  7  1  0  0  0  0
  5  8  1  0  0  0  0
  8  9  1  0  0  0  0
  8 10  1  0  0  0  0
  8 11  1  0  0  0  0
 11 12  1  0  0  0  0
 11 13  1  0  0  0  0
 11 14  1  0  0  0  0
 14 15  1  0  0  0  0
 14 16  1  0  0  0  0
 14 17  1  0  0  0  0
 17 18  1  0  0  0  0
 17 19  1  0  0  0  0
 17 20  1  0  0  0  0
 20 21  1  0  0  0  0
 20 22  1  0  0  0  0
 20 23  1  0  0  0  0
 23 24  1  0  0  0  0
 23 25  1  0  0  0  0
 23 26  1  0  0  0  0
 26 27  1  0  0  0  0
 26 28  1  0  0  0  0
 26 29  1  0  0  0  0
M  END
> <VM2 Rank>
143

> <Conf_Id>
2331

> <Probability>
0.15

> <Sum Probability>
93.81

> <Delta G>
2.130

> <G>
60.278

> <E>
22.425

> <-TS>
37.853

> <U+W>
-1.719

> <U>
50.589

> <W>
-52.308

> <W(PB)>
-54.774

> <W(SA)>
2.466

> <Valence>
3.943

> <Coulomb>
45.872

> <VdW>
0.773

> <VdW6>
-10.007

> <VdW12>
10.780

> <Bond>
0.275

> <Angle>
1.162

> <Pdih>
2.506

> <Idih>
0.000

> <Tether>
0.000

$$$$
VeraChem MOL file


 29 28  0  0  0  0  0  0  0  0999 V2000     
   19.3008   20.1619   20.0908 C   0  0  0  0  0  0  0  0  0  0  0  0
   20.2713   20.6158   19.8519 H   0  0  0  0  0  0  0  0  0  0  0  0
   18.6402   20.3052   19.2260 H   0  0  0  0  0  0  0  0  0  0  0  0
   18.8631   20.7091   20.9351 H   0  0  0  0  0  0  0  0  0  0  0  0
   19.4550   18.6580   20.4109 C   0  0  0  0  0  0  0  0  0  0  0  0
   19.7805   18.1347   19.5011 H   0  0  0  0  0  0  0  0  0  0  0  0
   18.4764   18.2312   20.6674 H   0  0  0  0  0  0  0  0  0  0  0  0
   20.4793   18.3688   21.5380 C   0  0  0  0  0  0  0  0  0  0  0  0
   20.5442   17.2822   21.6869 H   0  0  0  0  0  0  0  0  0  0  0  0
   21.4753   18.6853   21.1990 H   0  0  0  0  0  0  0  0  0  0  0  0
   20.1818   19.0472   22.9005 C   0  0  0  0  0  0  0  0  0  0  0  0
   20.2132   20.1391   22.7898 H   0  0  0  0  0  0  0  0  0  0  0  0
   20.9976   18.7890   23.5874 H   0  0  0  0  0  0  0  0  0  0  0  0
   18.8274   18.6214   23.5221 C   0  0  0  0  0  0  0  0  0  0  0  0
   18.0132   18.8825   22.8339 H   0  0  0  0  0  0  0  0  0  0  0  0
   18.7984   17.5292   23.6369 H   0  0  0  0  0  0  0  0  0  0  0  0
   18.5327   19.2953   24.8849 C   0  0  0  0  0  0  0  0  0  0  0  0
   17.5037   19.0464   25.1797 H   0  0  0  0  0  0  0  0  0  0  0  0
   18.5644   20.3877   24.7703 H   0  0  0  0  0  0  0  0  0  0  0  0
   19.4949   18.8603   26.0152 C   0  0  0  0  0  0  0  0  0  0  0  0
   19.5036   17.7649   26.0923 H   0  0  0  0  0  0  0  0  0  0  0  0
   20.5195   19.1774   25.7842 H   0  0  0  0  0  0  0  0  0  0  0  0
   19.0782   19.4643   27.3676 C   0  0  0  0  0  0  0  0  0  0  0  0
   18.0648   19.1400   27.6192 H   0  0  0  0  0  0  0  0  0  0  0  0
   19.0838   20.5556   27.3008 H   0  0  0  0  0  0  0  0  0  0  0  0
   19.9939   19.0607   28.5050 N   0  3  0  0  0  0  0  0  0  0  0  0
   19.6983   19.4733   29.3966 H   0  0  0  0  0  0  0  0  0  0  0  0
   20.9605   19.3618   28.3423 H   0  0  0  0  0  0  0  0  0  0  0  0
   20.0123   18.0441   28.6378 H   0  0  0  0  0  0  0  0  0  0  0  0
  1  2  1  0  0  0  0
  1  3  1  0  0  0  0
  1  4  1  0  0  0  0
  1  5  1  0  0  0  0
  5  6  1  0  0  0  0
  5  7  1  0  0  0  0
  5  8  1  0  0  0  0
  8  9  1  0  0  0  0
  8 10  1  0  0  0  0
  8 11  1  0  0  0  0
 11 12  1  0  0  0  0
 11 13  1  0  0  0  0
 11 14  1  0  0  0  0
 14 15  1  0  0  0  0
 14 16  1  0  0  0  0
 14 17  1  0  0  0  0
 17 18  1  0  0  0  0
 17 19  1  0  0  0  0
 17 20  1  0  0  0  0
 20 21  1  0  0  0  0
 20 22  1  0  0  0  0
 20 23  1  0  0  0  0
 23 24  1  0  0  0  0
 23 25  1  0  0  0  0
 23 26  1  0  0  0  0
 26 27  1  0  0  0  0
 26 28  1  0  0  0  0
 26 29  1  0  0  0  0
M  END
> <VM2 Rank>
144

> <Conf_Id>
2520

> <Probability>
0.15

> <Sum Probability>
93.96

> <Delta G>
2.139

> <G>
60.287

> <E>
22.617

> <-TS>
37.671

> <U+W>
-1.528

> <U>
49.922

> <W>
-51.450

> <W(PB)>
-53.952

> <W(SA)>
2.502

> <Valence>
4.160

> <Coulomb>
44.771

> <VdW>
0.992

> <VdW6>
-9.113

> <VdW12>
10.105

> <Bond>
0.273

> <Angle>
1.388

> <Pdih>
2.499

> <Idih>
0.000

> <Tether>
0.000

$$$$
VeraChem MOL file


 29 28  0  0  0  0  0  0  0  0999 V2000     
   20.5185   19.4282   20.3052 C   0  0  0  0  0  0  0  0  0  0  0  0
   21.4237   19.1265   19.7627 H   0  0  0  0  0  0  0  0  0  0  0  0
   19.8550   19.9385   19.5951 H   0  0  0  0  0  0  0  0  0  0  0  0
   20.8195   20.1498   21.0749 H   0  0  0  0  0  0  0  0  0  0  0  0
   19.8237   18.1957   20.9266 C   0  0  0  0  0  0  0  0  0  0  0  0
   20.4979   17.7142   21.6474 H   0  0  0  0  0  0  0  0  0  0  0  0
   19.6490   17.4524   20.1363 H   0  0  0  0  0  0  0  0  0  0  0  0
   18.4675   18.5270   21.6000 C   0  0  0  0  0  0  0  0  0  0  0  0
   17.7707   18.8923   20.8332 H   0  0  0  0  0  0  0  0  0  0  0  0
   18.0283   17.5972   21.9868 H   0  0  0  0  0  0  0  0  0  0  0  0
   18.5340   19.5680   22.7473 C   0  0  0  0  0  0  0  0  0  0  0  0
   17.5157   19.7276   23.1276 H   0  0  0  0  0  0  0  0  0  0  0  0
   18.8645   20.5382   22.3534 H   0  0  0  0  0  0  0  0  0  0  0  0
   19.4482   19.1390   23.9195 C   0  0  0  0  0  0  0  0  0  0  0  0
   19.1423   18.1443   24.2694 H   0  0  0  0  0  0  0  0  0  0  0  0
   20.4854   19.0513   23.5701 H   0  0  0  0  0  0  0  0  0  0  0  0
   19.3929   20.1522   25.0877 C   0  0  0  0  0  0  0  0  0  0  0  0
   18.3652   20.2261   25.4675 H   0  0  0  0  0  0  0  0  0  0  0  0
   19.6512   21.1511   24.7098 H   0  0  0  0  0  0  0  0  0  0  0  0
   20.3588   19.7991   26.2464 C   0  0  0  0  0  0  0  0  0  0  0  0
   21.3918   19.8170   25.8745 H   0  0  0  0  0  0  0  0  0  0  0  0
   20.2981   20.5768   27.0192 H   0  0  0  0  0  0  0  0  0  0  0  0
   20.0893   18.4246   26.8916 C   0  0  0  0  0  0  0  0  0  0  0  0
   20.8253   18.2426   27.6794 H   0  0  0  0  0  0  0  0  0  0  0  0
   20.1936   17.6368   26.1412 H   0  0  0  0  0  0  0  0  0  0  0  0
   18.7111   18.3042   27.5107 N   0  3  0  0  0  0  0  0  0  0  0  0
   18.5627   19.0029   28.2463 H   0  0  0  0  0  0  0  0  0  0  0  0
   18.5635   17.3829   27.9369 H   0  0  0  0  0  0  0  0  0  0  0  0
   17.9722   18.4364   26.8129 H   0  0  0  0  0  0  0  0  0  0  0  0
  1  2  1  0  0  0  0
  1  3  1  0  0  0  0
  1  4  1  0  0  0  0
  1  5  1  0  0  0  0
  5  6  1  0  0  0  0
  5  7  1  0  0  0  0
  5  8  1  0  0  0  0
  8  9  1  0  0  0  0
  8 10  1  0  0  0  0
  8 11  1  0  0  0  0
 11 12  1  0  0  0  0
 11 13  1  0  0  0  0
 11 14  1  0  0  0  0
 14 15  1  0  0  0  0
 14 16  1  0  0  0  0
 14 17  1  0  0  0  0
 17 18  1  0  0  0  0
 17 19  1  0  0  0  0
 17 20  1  0  0  0  0
 20 21  1  0  0  0  0
 20 22  1  0  0  0  0
 20 23  1  0  0  0  0
 23 24  1  0  0  0  0
 23 25  1  0  0  0  0
 23 26  1  0  0  0  0
 26 27  1  0  0  0  0
 26 28  1  0  0  0  0
 26 29  1  0  0  0  0
M  END
> <VM2 Rank>
145

> <Conf_Id>
1804

> <Probability>
0.15

> <Sum Probability>
94.10

> <Delta G>
2.144

> <G>
60.292

> <E>
22.385

> <-TS>
37.907

> <U+W>
-1.760

> <U>
50.249

> <W>
-52.008

> <W(PB)>
-54.458

> <W(SA)>
2.449

> <Valence>
3.924

> <Coulomb>
45.456

> <VdW>
0.869

> <VdW6>
-9.872

> <VdW12>
10.741

> <Bond>
0.270

> <Angle>
1.270

> <Pdih>
2.384

> <Idih>
0.000

> <Tether>
0.000

$$$$
VeraChem MOL file


 29 28  0  0  0  0  0  0  0  0999 V2000     
   19.5333   18.2431   20.1483 C   0  0  0  0  0  0  0  0  0  0  0  0
   20.4907   17.9228   20.5775 H   0  0  0  0  0  0  0  0  0  0  0  0
   19.0716   17.3658   19.6770 H   0  0  0  0  0  0  0  0  0  0  0  0
   19.7387   18.9792   19.3603 H   0  0  0  0  0  0  0  0  0  0  0  0
   18.5983   18.8327   21.2281 C   0  0  0  0  0  0  0  0  0  0  0  0
   18.4173   18.0840   22.0108 H   0  0  0  0  0  0  0  0  0  0  0  0
   17.6185   19.0371   20.7744 H   0  0  0  0  0  0  0  0  0  0  0  0
   19.1354   20.1440   21.8555 C   0  0  0  0  0  0  0  0  0  0  0  0
   19.2117   20.9072   21.0689 H   0  0  0  0  0  0  0  0  0  0  0  0
   18.3931   20.5291   22.5670 H   0  0  0  0  0  0  0  0  0  0  0  0
   20.5128   20.0226   22.5615 C   0  0  0  0  0  0  0  0  0  0  0  0
   20.7763   21.0007   22.9867 H   0  0  0  0  0  0  0  0  0  0  0  0
   21.2865   19.8099   21.8119 H   0  0  0  0  0  0  0  0  0  0  0  0
   20.5912   18.9521   23.6803 C   0  0  0  0  0  0  0  0  0  0  0  0
   20.4336   17.9527   23.2536 H   0  0  0  0  0  0  0  0  0  0  0  0
   21.6125   18.9500   24.0855 H   0  0  0  0  0  0  0  0  0  0  0  0
   19.5913   19.1929   24.8362 C   0  0  0  0  0  0  0  0  0  0  0  0
   18.5620   19.1300   24.4593 H   0  0  0  0  0  0  0  0  0  0  0  0
   19.7286   20.2101   25.2265 H   0  0  0  0  0  0  0  0  0  0  0  0
   19.7753   18.1624   25.9750 C   0  0  0  0  0  0  0  0  0  0  0  0
   19.6769   17.1479   25.5662 H   0  0  0  0  0  0  0  0  0  0  0  0
   20.7893   18.2363   26.3900 H   0  0  0  0  0  0  0  0  0  0  0  0
   18.7431   18.3349   27.1058 C   0  0  0  0  0  0  0  0  0  0  0  0
   18.8688   17.5322   27.8375 H   0  0  0  0  0  0  0  0  0  0  0  0
   17.7321   18.2671   26.6950 H   0  0  0  0  0  0  0  0  0  0  0  0
   18.8634   19.6533   27.8444 N   0  3  0  0  0  0  0  0  0  0  0  0
   19.7876   19.7657   28.2738 H   0  0  0  0  0  0  0  0  0  0  0  0
   18.1710   19.7326   28.5973 H   0  0  0  0  0  0  0  0  0  0  0  0
   18.7203   20.4525   27.2190 H   0  0  0  0  0  0  0  0  0  0  0  0
  1  2  1  0  0  0  0
  1  3  1  0  0  0  0
  1  4  1  0  0  0  0
  1  5  1  0  0  0  0
  5  6  1  0  0  0  0
  5  7  1  0  0  0  0
  5  8  1  0  0  0  0
  8  9  1  0  0  0  0
  8 10  1  0  0  0  0
  8 11  1  0  0  0  0
 11 12  1  0  0  0  0
 11 13  1  0  0  0  0
 11 14  1  0  0  0  0
 14 15  1  0  0  0  0
 14 16  1  0  0  0  0
 14 17  1  0  0  0  0
 17 18  1  0  0  0  0
 17 19  1  0  0  0  0
 17 20  1  0  0  0  0
 20 21  1  0  0  0  0
 20 22  1  0  0  0  0
 20 23  1  0  0  0  0
 23 24  1  0  0  0  0
 23 25  1  0  0  0  0
 23 26  1  0  0  0  0
 26 27  1  0  0  0  0
 26 28  1  0  0  0  0
 26 29  1  0  0  0  0
M  END
> <VM2 Rank>
146

> <Conf_Id>
956

> <Probability>
0.14

> <Sum Probability>
94.25

> <Delta G>
2.157

> <G>
60.305

> <E>
22.241

> <-TS>
38.064

> <U+W>
-1.903

> <U>
50.133

> <W>
-52.036

> <W(PB)>
-54.489

> <W(SA)>
2.453

> <Valence>
4.088

> <Coulomb>
45.212

> <VdW>
0.833

> <VdW6>
-10.050

> <VdW12>
10.883

> <Bond>
0.287

> <Angle>
1.410

> <Pdih>
2.391

> <Idih>
0.000

> <Tether>
0.000

$$$$
VeraChem MOL file


 29 28  0  0  0  0  0  0  0  0999 V2000     
   20.6301   18.6877   20.3899 C   0  0  0  0  0  0  0  0  0  0  0  0
   21.4957   18.0742   20.1082 H   0  0  0  0  0  0  0  0  0  0  0  0
   20.0318   18.8604   19.4860 H   0  0  0  0  0  0  0  0  0  0  0  0
   21.0102   19.6553   20.7405 H   0  0  0  0  0  0  0  0  0  0  0  0
   19.7957   17.9789   21.4804 C   0  0  0  0  0  0  0  0  0  0  0  0
   20.4104   17.8280   22.3779 H   0  0  0  0  0  0  0  0  0  0  0  0
   19.5297   16.9737   21.1249 H   0  0  0  0  0  0  0  0  0  0  0  0
   18.4930   18.7351   21.8446 C   0  0  0  0  0  0  0  0  0  0  0  0
   17.8518   18.7844   20.9538 H   0  0  0  0  0  0  0  0  0  0  0  0
   17.9302   18.1434   22.5785 H   0  0  0  0  0  0  0  0  0  0  0  0
   18.6951   20.1753   22.3881 C   0  0  0  0  0  0  0  0  0  0  0  0
   17.7117   20.5976   22.6362 H   0  0  0  0  0  0  0  0  0  0  0  0
   19.0946   20.8117   21.5873 H   0  0  0  0  0  0  0  0  0  0  0  0
   19.6181   20.2922   23.6283 C   0  0  0  0  0  0  0  0  0  0  0  0
   20.6357   19.9709   23.3694 H   0  0  0  0  0  0  0  0  0  0  0  0
   19.6968   21.3536   23.9010 H   0  0  0  0  0  0  0  0  0  0  0  0
   19.1117   19.4931   24.8526 C   0  0  0  0  0  0  0  0  0  0  0  0
   19.0862   18.4236   24.6093 H   0  0  0  0  0  0  0  0  0  0  0  0
   18.0810   19.7940   25.0860 H   0  0  0  0  0  0  0  0  0  0  0  0
   20.0081   19.7185   26.0930 C   0  0  0  0  0  0  0  0  0  0  0  0
   21.0356   19.3959   25.8781 H   0  0  0  0  0  0  0  0  0  0  0  0
   20.0569   20.7925   26.3165 H   0  0  0  0  0  0  0  0  0  0  0  0
   19.4891   18.9838   27.3440 C   0  0  0  0  0  0  0  0  0  0  0  0
   18.4631   19.2968   27.5555 H   0  0  0  0  0  0  0  0  0  0  0  0
   20.1106   19.2482   28.2038 H   0  0  0  0  0  0  0  0  0  0  0  0
   19.5030   17.4734   27.2142 N   0  3  0  0  0  0  0  0  0  0  0  0
   18.9071   17.1536   26.4443 H   0  0  0  0  0  0  0  0  0  0  0  0
   19.1642   17.0151   28.0673 H   0  0  0  0  0  0  0  0  0  0  0  0
   20.4474   17.1157   27.0365 H   0  0  0  0  0  0  0  0  0  0  0  0
  1  2  1  0  0  0  0
  1  3  1  0  0  0  0
  1  4  1  0  0  0  0
  1  5  1  0  0  0  0
  5  6  1  0  0  0  0
  5  7  1  0  0  0  0
  5  8  1  0  0  0  0
  8  9  1  0  0  0  0
  8 10  1  0  0  0  0
  8 11  1  0  0  0  0
 11 12  1  0  0  0  0
 11 13  1  0  0  0  0
 11 14  1  0  0  0  0
 14 15  1  0  0  0  0
 14 16  1  0  0  0  0
 14 17  1  0  0  0  0
 17 18  1  0  0  0  0
 17 19  1  0  0  0  0
 17 20  1  0  0  0  0
 20 21  1  0  0  0  0
 20 22  1  0  0  0  0
 20 23  1  0  0  0  0
 23 24  1  0  0  0  0
 23 25  1  0  0  0  0
 23 26  1  0  0  0  0
 26 27  1  0  0  0  0
 26 28  1  0  0  0  0
 26 29  1  0  0  0  0
M  END
> <VM2 Rank>
147

> <Conf_Id>
1602

> <Probability>
0.14

> <Sum Probability>
94.39

> <Delta G>
2.170

> <G>
60.318

> <E>
22.251

> <-TS>
38.066

> <U+W>
-1.893

> <U>
50.557

> <W>
-52.450

> <W(PB)>
-54.892

> <W(SA)>
2.442

> <Valence>
4.083

> <Coulomb>
45.658

> <VdW>
0.816

> <VdW6>
-10.085

> <VdW12>
10.901

> <Bond>
0.289

> <Angle>
1.409

> <Pdih>
2.386

> <Idih>
0.000

> <Tether>
0.000

$$$$
VeraChem MOL file


 29 28  0  0  0  0  0  0  0  0999 V2000     
   21.1266   19.2858   20.8009 C   0  0  0  0  0  0  0  0  0  0  0  0
   21.0876   20.3012   20.3859 H   0  0  0  0  0  0  0  0  0  0  0  0
   21.4217   19.3557   21.8553 H   0  0  0  0  0  0  0  0  0  0  0  0
   21.9164   18.7365   20.2723 H   0  0  0  0  0  0  0  0  0  0  0  0
   19.7676   18.5679   20.6403 C   0  0  0  0  0  0  0  0  0  0  0  0
   19.8248   17.5637   21.0812 H   0  0  0  0  0  0  0  0  0  0  0  0
   19.5723   18.4153   19.5697 H   0  0  0  0  0  0  0  0  0  0  0  0
   18.5794   19.3537   21.2511 C   0  0  0  0  0  0  0  0  0  0  0  0
   18.4682   20.3048   20.7125 H   0  0  0  0  0  0  0  0  0  0  0  0
   17.6524   18.7937   21.0665 H   0  0  0  0  0  0  0  0  0  0  0  0
   18.6950   19.6517   22.7682 C   0  0  0  0  0  0  0  0  0  0  0  0
   17.8069   20.2193   23.0780 H   0  0  0  0  0  0  0  0  0  0  0  0
   19.5541   20.3102   22.9463 H   0  0  0  0  0  0  0  0  0  0  0  0
   18.8076   18.3748   23.6389 C   0  0  0  0  0  0  0  0  0  0  0  0
   18.0011   17.6821   23.3618 H   0  0  0  0  0  0  0  0  0  0  0  0
   19.7507   17.8548   23.4246 H   0  0  0  0  0  0  0  0  0  0  0  0
   18.7156   18.6533   25.1591 C   0  0  0  0  0  0  0  0  0  0  0  0
   18.6779   17.6883   25.6815 H   0  0  0  0  0  0  0  0  0  0  0  0
   17.7684   19.1632   25.3835 H   0  0  0  0  0  0  0  0  0  0  0  0
   19.9005   19.4887   25.7056 C   0  0  0  0  0  0  0  0  0  0  0  0
   20.8517   18.9973   25.4620 H   0  0  0  0  0  0  0  0  0  0  0  0
   19.9195   20.4707   25.2170 H   0  0  0  0  0  0  0  0  0  0  0  0
   19.8143   19.7168   27.2271 C   0  0  0  0  0  0  0  0  0  0  0  0
   18.8598   20.1888   27.4751 H   0  0  0  0  0  0  0  0  0  0  0  0
   20.6185   20.3889   27.5386 H   0  0  0  0  0  0  0  0  0  0  0  0
   19.9374   18.4454   28.0438 N   0  3  0  0  0  0  0  0  0  0  0  0
   19.1879   17.7811   27.8269 H   0  0  0  0  0  0  0  0  0  0  0  0
   19.8898   18.6340   29.0512 H   0  0  0  0  0  0  0  0  0  0  0  0
   20.8272   17.9664   27.8701 H   0  0  0  0  0  0  0  0  0  0  0  0
  1  2  1  0  0  0  0
  1  3  1  0  0  0  0
  1  4  1  0  0  0  0
  1  5  1  0  0  0  0
  5  6  1  0  0  0  0
  5  7  1  0  0  0  0
  5  8  1  0  0  0  0
  8  9  1  0  0  0  0
  8 10  1  0  0  0  0
  8 11  1  0  0  0  0
 11 12  1  0  0  0  0
 11 13  1  0  0  0  0
 11 14  1  0  0  0  0
 14 15  1  0  0  0  0
 14 16  1  0  0  0  0
 14 17  1  0  0  0  0
 17 18  1  0  0  0  0
 17 19  1  0  0  0  0
 17 20  1  0  0  0  0
 20 21  1  0  0  0  0
 20 22  1  0  0  0  0
 20 23  1  0  0  0  0
 23 24  1  0  0  0  0
 23 25  1  0  0  0  0
 23 26  1  0  0  0  0
 26 27  1  0  0  0  0
 26 28  1  0  0  0  0
 26 29  1  0  0  0  0
M  END
> <VM2 Rank>
148

> <Conf_Id>
572

> <Probability>
0.14

> <Sum Probability>
94.53

> <Delta G>
2.182

> <G>
60.330

> <E>
22.508

> <-TS>
37.822

> <U+W>
-1.637

> <U>
50.198

> <W>
-51.835

> <W(PB)>
-54.265

> <W(SA)>
2.430

> <Valence>
4.164

> <Coulomb>
45.026

> <VdW>
1.009

> <VdW6>
-9.773

> <VdW12>
10.782

> <Bond>
0.289

> <Angle>
1.298

> <Pdih>
2.577

> <Idih>
0.000

> <Tether>
0.000

$$$$
VeraChem MOL file


 29 28  0  0  0  0  0  0  0  0999 V2000     
   20.9954   17.9927   21.0991 C   0  0  0  0  0  0  0  0  0  0  0  0
   20.6097   17.1631   21.7045 H   0  0  0  0  0  0  0  0  0  0  0  0
   21.4341   17.5615   20.1899 H   0  0  0  0  0  0  0  0  0  0  0  0
   21.8009   18.4835   21.6606 H   0  0  0  0  0  0  0  0  0  0  0  0
   19.8787   18.9977   20.7364 C   0  0  0  0  0  0  0  0  0  0  0  0
   19.0722   18.4774   20.2011 H   0  0  0  0  0  0  0  0  0  0  0  0
   20.2842   19.7403   20.0352 H   0  0  0  0  0  0  0  0  0  0  0  0
   19.2992   19.7390   21.9649 C   0  0  0  0  0  0  0  0  0  0  0  0
   20.1105   20.2729   22.4769 H   0  0  0  0  0  0  0  0  0  0  0  0
   18.5962   20.5060   21.6120 H   0  0  0  0  0  0  0  0  0  0  0  0
   18.5676   18.8018   22.9582 C   0  0  0  0  0  0  0  0  0  0  0  0
   19.2740   18.0822   23.3904 H   0  0  0  0  0  0  0  0  0  0  0  0
   17.8266   18.2062   22.4077 H   0  0  0  0  0  0  0  0  0  0  0  0
   17.8379   19.5606   24.0962 C   0  0  0  0  0  0  0  0  0  0  0  0
   17.0560   20.1950   23.6565 H   0  0  0  0  0  0  0  0  0  0  0  0
   17.3076   18.8321   24.7242 H   0  0  0  0  0  0  0  0  0  0  0  0
   18.7487   20.4439   24.9910 C   0  0  0  0  0  0  0  0  0  0  0  0
   18.1310   20.8992   25.7774 H   0  0  0  0  0  0  0  0  0  0  0  0
   19.1416   21.2826   24.4011 H   0  0  0  0  0  0  0  0  0  0  0  0
   19.9307   19.6947   25.6547 C   0  0  0  0  0  0  0  0  0  0  0  0
   20.6278   19.3373   24.8859 H   0  0  0  0  0  0  0  0  0  0  0  0
   20.4944   20.4021   26.2771 H   0  0  0  0  0  0  0  0  0  0  0  0
   19.4693   18.5126   26.5268 C   0  0  0  0  0  0  0  0  0  0  0  0
   18.9369   17.7845   25.9092 H   0  0  0  0  0  0  0  0  0  0  0  0
   18.7871   18.8716   27.3021 H   0  0  0  0  0  0  0  0  0  0  0  0
   20.6166   17.7951   27.2077 N   0  3  0  0  0  0  0  0  0  0  0  0
   21.2823   17.4098   26.5297 H   0  0  0  0  0  0  0  0  0  0  0  0
   20.2879   17.0118   27.7830 H   0  0  0  0  0  0  0  0  0  0  0  0
   21.1433   18.4200   27.8270 H   0  0  0  0  0  0  0  0  0  0  0  0
  1  2  1  0  0  0  0
  1  3  1  0  0  0  0
  1  4  1  0  0  0  0
  1  5  1  0  0  0  0
  5  6  1  0  0  0  0
  5  7  1  0  0  0  0
  5  8  1  0  0  0  0
  8  9  1  0  0  0  0
  8 10  1  0  0  0  0
  8 11  1  0  0  0  0
 11 12  1  0  0  0  0
 11 13  1  0  0  0  0
 11 14  1  0  0  0  0
 14 15  1  0  0  0  0
 14 16  1  0  0  0  0
 14 17  1  0  0  0  0
 17 18  1  0  0  0  0
 17 19  1  0  0  0  0
 17 20  1  0  0  0  0
 20 21  1  0  0  0  0
 20 22  1  0  0  0  0
 20 23  1  0  0  0  0
 23 24  1  0  0  0  0
 23 25  1  0  0  0  0
 23 26  1  0  0  0  0
 26 27  1  0  0  0  0
 26 28  1  0  0  0  0
 26 29  1  0  0  0  0
M  END
> <VM2 Rank>
149

> <Conf_Id>
1691

> <Probability>
0.13

> <Sum Probability>
94.65

> <Delta G>
2.230

> <G>
60.378

> <E>
22.368

> <-TS>
38.009

> <U+W>
-1.776

> <U>
50.712

> <W>
-52.488

> <W(PB)>
-54.906

> <W(SA)>
2.418

> <Valence>
4.258

> <Coulomb>
45.781

> <VdW>
0.673

> <VdW6>
-10.326

> <VdW12>
10.999

> <Bond>
0.292

> <Angle>
1.417

> <Pdih>
2.549

> <Idih>
0.000

> <Tether>
0.000

$$$$
VeraChem MOL file


 29 28  0  0  0  0  0  0  0  0999 V2000     
   20.9234   18.3944   20.2947 C   0  0  0  0  0  0  0  0  0  0  0  0
   21.0946   19.2573   19.6379 H   0  0  0  0  0  0  0  0  0  0  0  0
   21.7988   18.2824   20.9476 H   0  0  0  0  0  0  0  0  0  0  0  0
   20.8565   17.4988   19.6635 H   0  0  0  0  0  0  0  0  0  0  0  0
   19.6339   18.5747   21.1231 C   0  0  0  0  0  0  0  0  0  0  0  0
   19.4753   17.6776   21.7361 H   0  0  0  0  0  0  0  0  0  0  0  0
   18.7726   18.6538   20.4451 H   0  0  0  0  0  0  0  0  0  0  0  0
   19.7058   19.8300   22.0237 C   0  0  0  0  0  0  0  0  0  0  0  0
   20.5469   19.7376   22.7233 H   0  0  0  0  0  0  0  0  0  0  0  0
   19.9287   20.7052   21.3980 H   0  0  0  0  0  0  0  0  0  0  0  0
   18.3949   20.1083   22.8033 C   0  0  0  0  0  0  0  0  0  0  0  0
   17.5878   20.2990   22.0827 H   0  0  0  0  0  0  0  0  0  0  0  0
   18.5089   21.0425   23.3687 H   0  0  0  0  0  0  0  0  0  0  0  0
   17.9419   18.9764   23.7648 C   0  0  0  0  0  0  0  0  0  0  0  0
   17.0313   19.3028   24.2856 H   0  0  0  0  0  0  0  0  0  0  0  0
   17.6439   18.0986   23.1761 H   0  0  0  0  0  0  0  0  0  0  0  0
   18.9923   18.5397   24.8184 C   0  0  0  0  0  0  0  0  0  0  0  0
   19.8740   18.1188   24.3171 H   0  0  0  0  0  0  0  0  0  0  0  0
   18.5605   17.7208   25.4086 H   0  0  0  0  0  0  0  0  0  0  0  0
   19.4266   19.6842   25.7676 C   0  0  0  0  0  0  0  0  0  0  0  0
   19.8883   20.4925   25.1870 H   0  0  0  0  0  0  0  0  0  0  0  0
   18.5473   20.1156   26.2640 H   0  0  0  0  0  0  0  0  0  0  0  0
   20.4423   19.2214   26.8297 C   0  0  0  0  0  0  0  0  0  0  0  0
   20.7832   20.0859   27.4059 H   0  0  0  0  0  0  0  0  0  0  0  0
   21.3110   18.7747   26.3385 H   0  0  0  0  0  0  0  0  0  0  0  0
   19.8830   18.2090   27.8099 N   0  3  0  0  0  0  0  0  0  0  0  0
   19.0749   18.5802   28.3202 H   0  0  0  0  0  0  0  0  0  0  0  0
   20.5794   17.9325   28.5107 H   0  0  0  0  0  0  0  0  0  0  0  0
   19.5761   17.3531   27.3373 H   0  0  0  0  0  0  0  0  0  0  0  0
  1  2  1  0  0  0  0
  1  3  1  0  0  0  0
  1  4  1  0  0  0  0
  1  5  1  0  0  0  0
  5  6  1  0  0  0  0
  5  7  1  0  0  0  0
  5  8  1  0  0  0  0
  8  9  1  0  0  0  0
  8 10  1  0  0  0  0
  8 11  1  0  0  0  0
 11 12  1  0  0  0  0
 11 13  1  0  0  0  0
 11 14  1  0  0  0  0
 14 15  1  0  0  0  0
 14 16  1  0  0  0  0
 14 17  1  0  0  0  0
 17 18  1  0  0  0  0
 17 19  1  0  0  0  0
 17 20  1  0  0  0  0
 20 21  1  0  0  0  0
 20 22  1  0  0  0  0
 20 23  1  0  0  0  0
 23 24  1  0  0  0  0
 23 25  1  0  0  0  0
 23 26  1  0  0  0  0
 26 27  1  0  0  0  0
 26 28  1  0  0  0  0
 26 29  1  0  0  0  0
M  END
> <VM2 Rank>
150

> <Conf_Id>
345

> <Probability>
0.13

> <Sum Probability>
94.78

> <Delta G>
2.232

> <G>
60.380

> <E>
22.304

> <-TS>
38.077

> <U+W>
-1.841

> <U>
50.242

> <W>
-52.082

> <W(PB)>
-54.526

> <W(SA)>
2.443

> <Valence>
4.143

> <Coulomb>
45.288

> <VdW>
0.811

> <VdW6>
-10.142

> <VdW12>
10.952

> <Bond>
0.297

> <Angle>
1.473

> <Pdih>
2.372

> <Idih>
0.000

> <Tether>
0.000

$$$$
VeraChem MOL file


 29 28  0  0  0  0  0  0  0  0999 V2000     
   21.2535   19.1273   20.9268 C   0  0  0  0  0  0  0  0  0  0  0  0
   21.8812   18.7178   21.7288 H   0  0  0  0  0  0  0  0  0  0  0  0
   21.8020   19.0185   19.9822 H   0  0  0  0  0  0  0  0  0  0  0  0
   21.1194   20.2008   21.1087 H   0  0  0  0  0  0  0  0  0  0  0  0
   19.8968   18.3908   20.8521 C   0  0  0  0  0  0  0  0  0  0  0  0
   20.0752   17.3487   20.5523 H   0  0  0  0  0  0  0  0  0  0  0  0
   19.2769   18.8365   20.0617 H   0  0  0  0  0  0  0  0  0  0  0  0
   19.1222   18.3969   22.1917 C   0  0  0  0  0  0  0  0  0  0  0  0
   18.2296   17.7656   22.0833 H   0  0  0  0  0  0  0  0  0  0  0  0
   19.7431   17.9281   22.9663 H   0  0  0  0  0  0  0  0  0  0  0  0
   18.6876   19.8140   22.6429 C   0  0  0  0  0  0  0  0  0  0  0  0
   18.1618   20.3074   21.8140 H   0  0  0  0  0  0  0  0  0  0  0  0
   19.5699   20.4318   22.8517 H   0  0  0  0  0  0  0  0  0  0  0  0
   17.7527   19.8082   23.8798 C   0  0  0  0  0  0  0  0  0  0  0  0
   17.4717   20.8441   24.1144 H   0  0  0  0  0  0  0  0  0  0  0  0
   16.8171   19.2957   23.6171 H   0  0  0  0  0  0  0  0  0  0  0  0
   18.3431   19.1466   25.1518 C   0  0  0  0  0  0  0  0  0  0  0  0
   18.5086   18.0772   24.9690 H   0  0  0  0  0  0  0  0  0  0  0  0
   17.5923   19.2044   25.9520 H   0  0  0  0  0  0  0  0  0  0  0  0
   19.6527   19.8128   25.6421 C   0  0  0  0  0  0  0  0  0  0  0  0
   20.4504   19.6822   24.8997 H   0  0  0  0  0  0  0  0  0  0  0  0
   19.4932   20.8940   25.7473 H   0  0  0  0  0  0  0  0  0  0  0  0
   20.1290   19.2546   26.9967 C   0  0  0  0  0  0  0  0  0  0  0  0
   19.3406   19.3791   27.7439 H   0  0  0  0  0  0  0  0  0  0  0  0
   21.0076   19.8130   27.3310 H   0  0  0  0  0  0  0  0  0  0  0  0
   20.5064   17.7870   26.9511 N   0  3  0  0  0  0  0  0  0  0  0  0
   21.2624   17.6093   26.2819 H   0  0  0  0  0  0  0  0  0  0  0  0
   19.7124   17.2004   26.6760 H   0  0  0  0  0  0  0  0  0  0  0  0
   20.8281   17.4486   27.8646 H   0  0  0  0  0  0  0  0  0  0  0  0
  1  2  1  0  0  0  0
  1  3  1  0  0  0  0
  1  4  1  0  0  0  0
  1  5  1  0  0  0  0
  5  6  1  0  0  0  0
  5  7  1  0  0  0  0
  5  8  1  0  0  0  0
  8  9  1  0  0  0  0
  8 10  1  0  0  0  0
  8 11  1  0  0  0  0
 11 12  1  0  0  0  0
 11 13  1  0  0  0  0
 11 14  1  0  0  0  0
 14 15  1  0  0  0  0
 14 16  1  0  0  0  0
 14 17  1  0  0  0  0
 17 18  1  0  0  0  0
 17 19  1  0  0  0  0
 17 20  1  0  0  0  0
 20 21  1  0  0  0  0
 20 22  1  0  0  0  0
 20 23  1  0  0  0  0
 23 24  1  0  0  0  0
 23 25  1  0  0  0  0
 23 26  1  0  0  0  0
 26 27  1  0  0  0  0
 26 28  1  0  0  0  0
 26 29  1  0  0  0  0
M  END
> <VM2 Rank>
151

> <Conf_Id>
1942

> <Probability>
0.12

> <Sum Probability>
94.91

> <Delta G>
2.248

> <G>
60.396

> <E>
22.521

> <-TS>
37.875

> <U+W>
-1.624

> <U>
50.861

> <W>
-52.485

> <W(PB)>
-54.915

> <W(SA)>
2.430

> <Valence>
4.116

> <Coulomb>
45.895

> <VdW>
0.850

> <VdW6>
-9.985

> <VdW12>
10.835

> <Bond>
0.285

> <Angle>
1.253

> <Pdih>
2.578

> <Idih>
0.000

> <Tether>
0.000

$$$$
VeraChem MOL file


 29 28  0  0  0  0  0  0  0  0999 V2000     
   19.5485   19.3855   19.6581 C   0  0  0  0  0  0  0  0  0  0  0  0
   20.4702   19.9374   19.8797 H   0  0  0  0  0  0  0  0  0  0  0  0
   19.8198   18.3584   19.3815 H   0  0  0  0  0  0  0  0  0  0  0  0
   19.0849   19.8575   18.7821 H   0  0  0  0  0  0  0  0  0  0  0  0
   18.5743   19.3991   20.8579 C   0  0  0  0  0  0  0  0  0  0  0  0
   17.6223   18.9489   20.5436 H   0  0  0  0  0  0  0  0  0  0  0  0
   18.3458   20.4370   21.1377 H   0  0  0  0  0  0  0  0  0  0  0  0
   19.1026   18.6281   22.0917 C   0  0  0  0  0  0  0  0  0  0  0  0
   18.2934   18.5793   22.8316 H   0  0  0  0  0  0  0  0  0  0  0  0
   19.3279   17.5910   21.8081 H   0  0  0  0  0  0  0  0  0  0  0  0
   20.3532   19.2780   22.7362 C   0  0  0  0  0  0  0  0  0  0  0  0
   20.1303   20.3156   23.0169 H   0  0  0  0  0  0  0  0  0  0  0  0
   21.1588   19.3340   21.9929 H   0  0  0  0  0  0  0  0  0  0  0  0
   20.8956   18.4998   23.9633 C   0  0  0  0  0  0  0  0  0  0  0  0
   21.2258   17.5049   23.6343 H   0  0  0  0  0  0  0  0  0  0  0  0
   21.7978   19.0083   24.3303 H   0  0  0  0  0  0  0  0  0  0  0  0
   19.9036   18.3289   25.1432 C   0  0  0  0  0  0  0  0  0  0  0  0
   20.4138   17.7635   25.9340 H   0  0  0  0  0  0  0  0  0  0  0  0
   19.0524   17.7088   24.8324 H   0  0  0  0  0  0  0  0  0  0  0  0
   19.3899   19.6714   25.7208 C   0  0  0  0  0  0  0  0  0  0  0  0
   20.2378   20.3043   26.0142 H   0  0  0  0  0  0  0  0  0  0  0  0
   18.8391   20.2209   24.9471 H   0  0  0  0  0  0  0  0  0  0  0  0
   18.4497   19.4785   26.9261 C   0  0  0  0  0  0  0  0  0  0  0  0
   17.6147   18.8323   26.6421 H   0  0  0  0  0  0  0  0  0  0  0  0
   18.0436   20.4479   27.2274 H   0  0  0  0  0  0  0  0  0  0  0  0
   19.1266   18.8686   28.1378 N   0  3  0  0  0  0  0  0  0  0  0  0
   19.5007   17.9365   27.9344 H   0  0  0  0  0  0  0  0  0  0  0  0
   18.4773   18.7667   28.9256 H   0  0  0  0  0  0  0  0  0  0  0  0
   19.9087   19.4444   28.4664 H   0  0  0  0  0  0  0  0  0  0  0  0
  1  2  1  0  0  0  0
  1  3  1  0  0  0  0
  1  4  1  0  0  0  0
  1  5  1  0  0  0  0
  5  6  1  0  0  0  0
  5  7  1  0  0  0  0
  5  8  1  0  0  0  0
  8  9  1  0  0  0  0
  8 10  1  0  0  0  0
  8 11  1  0  0  0  0
 11 12  1  0  0  0  0
 11 13  1  0  0  0  0
 11 14  1  0  0  0  0
 14 15  1  0  0  0  0
 14 16  1  0  0  0  0
 14 17  1  0  0  0  0
 17 18  1  0  0  0  0
 17 19  1  0  0  0  0
 17 20  1  0  0  0  0
 20 21  1  0  0  0  0
 20 22  1  0  0  0  0
 20 23  1  0  0  0  0
 23 24  1  0  0  0  0
 23 25  1  0  0  0  0
 23 26  1  0  0  0  0
 26 27  1  0  0  0  0
 26 28  1  0  0  0  0
 26 29  1  0  0  0  0
M  END
> <VM2 Rank>
152

> <Conf_Id>
1662

> <Probability>
0.12

> <Sum Probability>
95.03

> <Delta G>
2.251

> <G>
60.399

> <E>
22.594

> <-TS>
37.806

> <U+W>
-1.551

> <U>
50.427

> <W>
-51.978

> <W(PB)>
-54.427

> <W(SA)>
2.449

> <Valence>
4.273

> <Coulomb>
45.070

> <VdW>
1.084

> <VdW6>
-9.709

> <VdW12>
10.792

> <Bond>
0.299

> <Angle>
1.475

> <Pdih>
2.499

> <Idih>
0.000

> <Tether>
0.000

$$$$
VeraChem MOL file


 29 28  0  0  0  0  0  0  0  0999 V2000     
   20.6568   18.7620   20.3917 C   0  0  0  0  0  0  0  0  0  0  0  0
   20.0970   19.0425   19.4901 H   0  0  0  0  0  0  0  0  0  0  0  0
   21.7191   18.7007   20.1226 H   0  0  0  0  0  0  0  0  0  0  0  0
   20.3345   17.7591   20.6983 H   0  0  0  0  0  0  0  0  0  0  0  0
   20.4429   19.7948   21.5211 C   0  0  0  0  0  0  0  0  0  0  0  0
   20.8773   20.7548   21.2096 H   0  0  0  0  0  0  0  0  0  0  0  0
   21.0017   19.4874   22.4152 H   0  0  0  0  0  0  0  0  0  0  0  0
   18.9504   20.0187   21.8732 C   0  0  0  0  0  0  0  0  0  0  0  0
   18.8780   20.8033   22.6379 H   0  0  0  0  0  0  0  0  0  0  0  0
   18.4353   20.4212   20.9903 H   0  0  0  0  0  0  0  0  0  0  0  0
   18.1888   18.7550   22.3563 C   0  0  0  0  0  0  0  0  0  0  0  0
   18.1074   18.0418   21.5253 H   0  0  0  0  0  0  0  0  0  0  0  0
   17.1565   19.0401   22.6013 H   0  0  0  0  0  0  0  0  0  0  0  0
   18.8124   18.0318   23.5777 C   0  0  0  0  0  0  0  0  0  0  0  0
   18.1985   17.1500   23.8070 H   0  0  0  0  0  0  0  0  0  0  0  0
   19.8074   17.6474   23.3174 H   0  0  0  0  0  0  0  0  0  0  0  0
   18.9080   18.9218   24.8398 C   0  0  0  0  0  0  0  0  0  0  0  0
   17.9160   19.3313   25.0757 H   0  0  0  0  0  0  0  0  0  0  0  0
   19.5678   19.7752   24.6394 H   0  0  0  0  0  0  0  0  0  0  0  0
   19.4426   18.1316   26.0575 C   0  0  0  0  0  0  0  0  0  0  0  0
   18.7982   17.2608   26.2376 H   0  0  0  0  0  0  0  0  0  0  0  0
   20.4455   17.7401   25.8410 H   0  0  0  0  0  0  0  0  0  0  0  0
   19.4873   18.9786   27.3438 C   0  0  0  0  0  0  0  0  0  0  0  0
   19.7895   18.3471   28.1836 H   0  0  0  0  0  0  0  0  0  0  0  0
   18.4916   19.3767   27.5572 H   0  0  0  0  0  0  0  0  0  0  0  0
   20.4548   20.1437   27.2737 N   0  3  0  0  0  0  0  0  0  0  0  0
   21.4150   19.8305   27.0970 H   0  0  0  0  0  0  0  0  0  0  0  0
   20.4700   20.6787   28.1490 H   0  0  0  0  0  0  0  0  0  0  0  0
   20.2062   20.7984   26.5256 H   0  0  0  0  0  0  0  0  0  0  0  0
  1  2  1  0  0  0  0
  1  3  1  0  0  0  0
  1  4  1  0  0  0  0
  1  5  1  0  0  0  0
  5  6  1  0  0  0  0
  5  7  1  0  0  0  0
  5  8  1  0  0  0  0
  8  9  1  0  0  0  0
  8 10  1  0  0  0  0
  8 11  1  0  0  0  0
 11 12  1  0  0  0  0
 11 13  1  0  0  0  0
 11 14  1  0  0  0  0
 14 15  1  0  0  0  0
 14 16  1  0  0  0  0
 14 17  1  0  0  0  0
 17 18  1  0  0  0  0
 17 19  1  0  0  0  0
 17 20  1  0  0  0  0
 20 21  1  0  0  0  0
 20 22  1  0  0  0  0
 20 23  1  0  0  0  0
 23 24  1  0  0  0  0
 23 25  1  0  0  0  0
 23 26  1  0  0  0  0
 26 27  1  0  0  0  0
 26 28  1  0  0  0  0
 26 29  1  0  0  0  0
M  END
> <VM2 Rank>
153

> <Conf_Id>
254

> <Probability>
0.12

> <Sum Probability>
95.15

> <Delta G>
2.253

> <G>
60.401

> <E>
22.335

> <-TS>
38.066

> <U+W>
-1.810

> <U>
50.557

> <W>
-52.367

> <W(PB)>
-54.823

> <W(SA)>
2.456

> <Valence>
4.083

> <Coulomb>
45.658

> <VdW>
0.816

> <VdW6>
-10.085

> <VdW12>
10.901

> <Bond>
0.289

> <Angle>
1.409

> <Pdih>
2.386

> <Idih>
0.000

> <Tether>
0.000

$$$$
VeraChem MOL file


 29 28  0  0  0  0  0  0  0  0999 V2000     
   21.3690   19.0404   21.1227 C   0  0  0  0  0  0  0  0  0  0  0  0
   21.6745   18.1290   21.6527 H   0  0  0  0  0  0  0  0  0  0  0  0
   21.9943   19.1326   20.2253 H   0  0  0  0  0  0  0  0  0  0  0  0
   21.5862   19.9020   21.7660 H   0  0  0  0  0  0  0  0  0  0  0  0
   19.8736   18.9835   20.7362 C   0  0  0  0  0  0  0  0  0  0  0  0
   19.7281   18.1804   20.0003 H   0  0  0  0  0  0  0  0  0  0  0  0
   19.5856   19.9173   20.2334 H   0  0  0  0  0  0  0  0  0  0  0  0
   18.9386   18.7276   21.9423 C   0  0  0  0  0  0  0  0  0  0  0  0
   17.9141   18.5927   21.5691 H   0  0  0  0  0  0  0  0  0  0  0  0
   19.2221   17.7812   22.4212 H   0  0  0  0  0  0  0  0  0  0  0  0
   18.9504   19.8760   22.9822 C   0  0  0  0  0  0  0  0  0  0  0  0
   18.7608   20.8271   22.4663 H   0  0  0  0  0  0  0  0  0  0  0  0
   19.9465   19.9690   23.4325 H   0  0  0  0  0  0  0  0  0  0  0  0
   17.8893   19.7050   24.0994 C   0  0  0  0  0  0  0  0  0  0  0  0
   17.9302   20.5791   24.7633 H   0  0  0  0  0  0  0  0  0  0  0  0
   16.8887   19.7260   23.6460 H   0  0  0  0  0  0  0  0  0  0  0  0
   18.0238   18.4102   24.9456 C   0  0  0  0  0  0  0  0  0  0  0  0
   17.8061   17.5363   24.3174 H   0  0  0  0  0  0  0  0  0  0  0  0
   17.2463   18.4173   25.7220 H   0  0  0  0  0  0  0  0  0  0  0  0
   19.4037   18.2163   25.6216 C   0  0  0  0  0  0  0  0  0  0  0  0
   19.3842   17.2879   26.2075 H   0  0  0  0  0  0  0  0  0  0  0  0
   20.1805   18.0824   24.8578 H   0  0  0  0  0  0  0  0  0  0  0  0
   19.7814   19.3881   26.5463 C   0  0  0  0  0  0  0  0  0  0  0  0
   19.0151   19.5109   27.3164 H   0  0  0  0  0  0  0  0  0  0  0  0
   19.8380   20.3125   25.9656 H   0  0  0  0  0  0  0  0  0  0  0  0
   21.1142   19.1909   27.2387 N   0  3  0  0  0  0  0  0  0  0  0  0
   21.1184   18.3498   27.8252 H   0  0  0  0  0  0  0  0  0  0  0  0
   21.3468   19.9820   27.8492 H   0  0  0  0  0  0  0  0  0  0  0  0
   21.8830   19.0950   26.5671 H   0  0  0  0  0  0  0  0  0  0  0  0
  1  2  1  0  0  0  0
  1  3  1  0  0  0  0
  1  4  1  0  0  0  0
  1  5  1  0  0  0  0
  5  6  1  0  0  0  0
  5  7  1  0  0  0  0
  5  8  1  0  0  0  0
  8  9  1  0  0  0  0
  8 10  1  0  0  0  0
  8 11  1  0  0  0  0
 11 12  1  0  0  0  0
 11 13  1  0  0  0  0
 11 14  1  0  0  0  0
 14 15  1  0  0  0  0
 14 16  1  0  0  0  0
 14 17  1  0  0  0  0
 17 18  1  0  0  0  0
 17 19  1  0  0  0  0
 17 20  1  0  0  0  0
 20 21  1  0  0  0  0
 20 22  1  0  0  0  0
 20 23  1  0  0  0  0
 23 24  1  0  0  0  0
 23 25  1  0  0  0  0
 23 26  1  0  0  0  0
 26 27  1  0  0  0  0
 26 28  1  0  0  0  0
 26 29  1  0  0  0  0
M  END
> <VM2 Rank>
154

> <Conf_Id>
621

> <Probability>
0.12

> <Sum Probability>
95.27

> <Delta G>
2.276

> <G>
60.424

> <E>
22.415

> <-TS>
38.010

> <U+W>
-1.730

> <U>
50.712

> <W>
-52.442

> <W(PB)>
-54.895

> <W(SA)>
2.453

> <Valence>
4.258

> <Coulomb>
45.781

> <VdW>
0.673

> <VdW6>
-10.326

> <VdW12>
10.999

> <Bond>
0.292

> <Angle>
1.417

> <Pdih>
2.549

> <Idih>
0.000

> <Tether>
0.000

$$$$
VeraChem MOL file


 29 28  0  0  0  0  0  0  0  0999 V2000     
   20.1020   18.2702   19.8280 C   0  0  0  0  0  0  0  0  0  0  0  0
   19.6731   17.3863   19.3383 H   0  0  0  0  0  0  0  0  0  0  0  0
   20.1276   19.0840   19.0917 H   0  0  0  0  0  0  0  0  0  0  0  0
   21.1357   18.0312   20.1100 H   0  0  0  0  0  0  0  0  0  0  0  0
   19.2678   18.6664   21.0646 C   0  0  0  0  0  0  0  0  0  0  0  0
   19.2326   17.8155   21.7579 H   0  0  0  0  0  0  0  0  0  0  0  0
   18.2329   18.8706   20.7566 H   0  0  0  0  0  0  0  0  0  0  0  0
   19.8558   19.9082   21.7749 C   0  0  0  0  0  0  0  0  0  0  0  0
   20.8750   19.6910   22.1201 H   0  0  0  0  0  0  0  0  0  0  0  0
   19.9539   20.7232   21.0446 H   0  0  0  0  0  0  0  0  0  0  0  0
   18.9903   20.4162   22.9571 C   0  0  0  0  0  0  0  0  0  0  0  0
   18.0197   20.7519   22.5666 H   0  0  0  0  0  0  0  0  0  0  0  0
   19.4665   21.3096   23.3839 H   0  0  0  0  0  0  0  0  0  0  0  0
   18.7397   19.3897   24.0922 C   0  0  0  0  0  0  0  0  0  0  0  0
   18.1047   19.8716   24.8469 H   0  0  0  0  0  0  0  0  0  0  0  0
   18.1592   18.5405   23.7085 H   0  0  0  0  0  0  0  0  0  0  0  0
   20.0398   18.8761   24.7610 C   0  0  0  0  0  0  0  0  0  0  0  0
   20.6319   19.7265   25.1243 H   0  0  0  0  0  0  0  0  0  0  0  0
   20.6612   18.3676   24.0124 H   0  0  0  0  0  0  0  0  0  0  0  0
   19.7772   17.8814   25.9197 C   0  0  0  0  0  0  0  0  0  0  0  0
   19.2518   17.0004   25.5279 H   0  0  0  0  0  0  0  0  0  0  0  0
   20.7374   17.5172   26.3084 H   0  0  0  0  0  0  0  0  0  0  0  0
   18.9551   18.4709   27.0838 C   0  0  0  0  0  0  0  0  0  0  0  0
   18.8017   17.7019   27.8457 H   0  0  0  0  0  0  0  0  0  0  0  0
   17.9744   18.7890   26.7212 H   0  0  0  0  0  0  0  0  0  0  0  0
   19.6163   19.6588   27.7538 N   0  3  0  0  0  0  0  0  0  0  0  0
   20.5334   19.4144   28.1417 H   0  0  0  0  0  0  0  0  0  0  0  0
   19.0502   20.0243   28.5274 H   0  0  0  0  0  0  0  0  0  0  0  0
   19.7611   20.4301   27.0945 H   0  0  0  0  0  0  0  0  0  0  0  0
  1  2  1  0  0  0  0
  1  3  1  0  0  0  0
  1  4  1  0  0  0  0
  1  5  1  0  0  0  0
  5  6  1  0  0  0  0
  5  7  1  0  0  0  0
  5  8  1  0  0  0  0
  8  9  1  0  0  0  0
  8 10  1  0  0  0  0
  8 11  1  0  0  0  0
 11 12  1  0  0  0  0
 11 13  1  0  0  0  0
 11 14  1  0  0  0  0
 14 15  1  0  0  0  0
 14 16  1  0  0  0  0
 14 17  1  0  0  0  0
 17 18  1  0  0  0  0
 17 19  1  0  0  0  0
 17 20  1  0  0  0  0
 20 21  1  0  0  0  0
 20 22  1  0  0  0  0
 20 23  1  0  0  0  0
 23 24  1  0  0  0  0
 23 25  1  0  0  0  0
 23 26  1  0  0  0  0
 26 27  1  0  0  0  0
 26 28  1  0  0  0  0
 26 29  1  0  0  0  0
M  END
> <VM2 Rank>
155

> <Conf_Id>
2015

> <Probability>
0.12

> <Sum Probability>
95.39

> <Delta G>
2.283

> <G>
60.431

> <E>
22.523

> <-TS>
37.908

> <U+W>
-1.622

> <U>
50.350

> <W>
-51.972

> <W(PB)>
-54.437

> <W(SA)>
2.465

> <Valence>
4.001

> <Coulomb>
45.464

> <VdW>
0.885

> <VdW6>
-9.930

> <VdW12>
10.816

> <Bond>
0.283

> <Angle>
1.376

> <Pdih>
2.342

> <Idih>
0.000

> <Tether>
0.000

$$$$
VeraChem MOL file


 29 28  0  0  0  0  0  0  0  0999 V2000     
   20.3823   18.7642   19.5634 C   0  0  0  0  0  0  0  0  0  0  0  0
   21.4323   18.5341   19.7866 H   0  0  0  0  0  0  0  0  0  0  0  0
   20.0282   18.0371   18.8210 H   0  0  0  0  0  0  0  0  0  0  0  0
   20.3404   19.7609   19.1051 H   0  0  0  0  0  0  0  0  0  0  0  0
   19.5182   18.7035   20.8407 C   0  0  0  0  0  0  0  0  0  0  0  0
   19.5526   17.6831   21.2445 H   0  0  0  0  0  0  0  0  0  0  0  0
   18.4703   18.9091   20.5814 H   0  0  0  0  0  0  0  0  0  0  0  0
   20.0019   19.7175   21.9042 C   0  0  0  0  0  0  0  0  0  0  0  0
   21.0310   19.4772   22.2051 H   0  0  0  0  0  0  0  0  0  0  0  0
   20.0396   20.7173   21.4500 H   0  0  0  0  0  0  0  0  0  0  0  0
   19.0962   19.7847   23.1585 C   0  0  0  0  0  0  0  0  0  0  0  0
   18.0667   20.0214   22.8568 H   0  0  0  0  0  0  0  0  0  0  0  0
   19.4387   20.6244   23.7767 H   0  0  0  0  0  0  0  0  0  0  0  0
   19.1094   18.4846   24.0019 C   0  0  0  0  0  0  0  0  0  0  0  0
   18.7642   17.6449   23.3854 H   0  0  0  0  0  0  0  0  0  0  0  0
   20.1400   18.2436   24.2939 H   0  0  0  0  0  0  0  0  0  0  0  0
   18.2030   18.5534   25.2585 C   0  0  0  0  0  0  0  0  0  0  0  0
   18.2166   17.5751   25.7573 H   0  0  0  0  0  0  0  0  0  0  0  0
   17.1626   18.7102   24.9417 H   0  0  0  0  0  0  0  0  0  0  0  0
   18.5842   19.6529   26.2845 C   0  0  0  0  0  0  0  0  0  0  0  0
   18.3961   20.6439   25.8524 H   0  0  0  0  0  0  0  0  0  0  0  0
   17.9213   19.5770   27.1566 H   0  0  0  0  0  0  0  0  0  0  0  0
   20.0498   19.5860   26.7585 C   0  0  0  0  0  0  0  0  0  0  0  0
   20.2458   20.4078   27.4525 H   0  0  0  0  0  0  0  0  0  0  0  0
   20.7197   19.6967   25.9018 H   0  0  0  0  0  0  0  0  0  0  0  0
   20.3990   18.2913   27.4649 N   0  3  0  0  0  0  0  0  0  0  0  0
   19.8219   18.1467   28.2998 H   0  0  0  0  0  0  0  0  0  0  0  0
   21.3784   18.2750   27.7697 H   0  0  0  0  0  0  0  0  0  0  0  0
   20.2582   17.4801   26.8547 H   0  0  0  0  0  0  0  0  0  0  0  0
  1  2  1  0  0  0  0
  1  3  1  0  0  0  0
  1  4  1  0  0  0  0
  1  5  1  0  0  0  0
  5  6  1  0  0  0  0
  5  7  1  0  0  0  0
  5  8  1  0  0  0  0
  8  9  1  0  0  0  0
  8 10  1  0  0  0  0
  8 11  1  0  0  0  0
 11 12  1  0  0  0  0
 11 13  1  0  0  0  0
 11 14  1  0  0  0  0
 14 15  1  0  0  0  0
 14 16  1  0  0  0  0
 14 17  1  0  0  0  0
 17 18  1  0  0  0  0
 17 19  1  0  0  0  0
 17 20  1  0  0  0  0
 20 21  1  0  0  0  0
 20 22  1  0  0  0  0
 20 23  1  0  0  0  0
 23 24  1  0  0  0  0
 23 25  1  0  0  0  0
 23 26  1  0  0  0  0
 26 27  1  0  0  0  0
 26 28  1  0  0  0  0
 26 29  1  0  0  0  0
M  END
> <VM2 Rank>
156

> <Conf_Id>
1367

> <Probability>
0.11

> <Sum Probability>
95.50

> <Delta G>
2.306

> <G>
60.455

> <E>
22.661

> <-TS>
37.794

> <U+W>
-1.484

> <U>
50.507

> <W>
-51.991

> <W(PB)>
-54.449

> <W(SA)>
2.458

> <Valence>
4.059

> <Coulomb>
45.540

> <VdW>
0.908

> <VdW6>
-9.838

> <VdW12>
10.746

> <Bond>
0.285

> <Angle>
1.295

> <Pdih>
2.479

> <Idih>
0.000

> <Tether>
0.000

$$$$
VeraChem MOL file


 29 28  0  0  0  0  0  0  0  0999 V2000     
   20.2425   19.5240   19.6516 C   0  0  0  0  0  0  0  0  0  0  0  0
   20.8913   20.2506   20.1560 H   0  0  0  0  0  0  0  0  0  0  0  0
   20.7967   18.5824   19.5456 H   0  0  0  0  0  0  0  0  0  0  0  0
   20.0388   19.9088   18.6440 H   0  0  0  0  0  0  0  0  0  0  0  0
   18.9215   19.3075   20.4243 C   0  0  0  0  0  0  0  0  0  0  0  0
   18.2577   18.6766   19.8167 H   0  0  0  0  0  0  0  0  0  0  0  0
   18.4031   20.2686   20.5482 H   0  0  0  0  0  0  0  0  0  0  0  0
   19.1157   18.6352   21.8050 C   0  0  0  0  0  0  0  0  0  0  0  0
   18.1228   18.4001   22.2086 H   0  0  0  0  0  0  0  0  0  0  0  0
   19.6336   17.6750   21.6755 H   0  0  0  0  0  0  0  0  0  0  0  0
   19.8925   19.5167   22.8162 C   0  0  0  0  0  0  0  0  0  0  0  0
   19.3726   20.4752   22.9495 H   0  0  0  0  0  0  0  0  0  0  0  0
   20.8812   19.7563   22.4044 H   0  0  0  0  0  0  0  0  0  0  0  0
   20.1022   18.8431   24.1949 C   0  0  0  0  0  0  0  0  0  0  0  0
   20.6058   17.8762   24.0587 H   0  0  0  0  0  0  0  0  0  0  0  0
   20.7912   19.4700   24.7758 H   0  0  0  0  0  0  0  0  0  0  0  0
   18.7897   18.6421   24.9947 C   0  0  0  0  0  0  0  0  0  0  0  0
   18.1111   17.9883   24.4324 H   0  0  0  0  0  0  0  0  0  0  0  0
   18.2694   19.6030   25.1027 H   0  0  0  0  0  0  0  0  0  0  0  0
   19.0179   18.0064   26.3894 C   0  0  0  0  0  0  0  0  0  0  0  0
   18.0468   17.8406   26.8745 H   0  0  0  0  0  0  0  0  0  0  0  0
   19.4708   17.0139   26.2648 H   0  0  0  0  0  0  0  0  0  0  0  0
   19.9110   18.8439   27.3272 C   0  0  0  0  0  0  0  0  0  0  0  0
   20.9002   18.9721   26.8804 H   0  0  0  0  0  0  0  0  0  0  0  0
   20.0340   18.3169   28.2772 H   0  0  0  0  0  0  0  0  0  0  0  0
   19.3511   20.2191   27.6316 N   0  3  0  0  0  0  0  0  0  0  0  0
   19.2402   20.7774   26.7794 H   0  0  0  0  0  0  0  0  0  0  0  0
   19.9624   20.7486   28.2627 H   0  0  0  0  0  0  0  0  0  0  0  0
   18.4310   20.1639   28.0807 H   0  0  0  0  0  0  0  0  0  0  0  0
  1  2  1  0  0  0  0
  1  3  1  0  0  0  0
  1  4  1  0  0  0  0
  1  5  1  0  0  0  0
  5  6  1  0  0  0  0
  5  7  1  0  0  0  0
  5  8  1  0  0  0  0
  8  9  1  0  0  0  0
  8 10  1  0  0  0  0
  8 11  1  0  0  0  0
 11 12  1  0  0  0  0
 11 13  1  0  0  0  0
 11 14  1  0  0  0  0
 14 15  1  0  0  0  0
 14 16  1  0  0  0  0
 14 17  1  0  0  0  0
 17 18  1  0  0  0  0
 17 19  1  0  0  0  0
 17 20  1  0  0  0  0
 20 21  1  0  0  0  0
 20 22  1  0  0  0  0
 20 23  1  0  0  0  0
 23 24  1  0  0  0  0
 23 25  1  0  0  0  0
 23 26  1  0  0  0  0
 26 27  1  0  0  0  0
 26 28  1  0  0  0  0
 26 29  1  0  0  0  0
M  END
> <VM2 Rank>
157

> <Conf_Id>
647

> <Probability>
0.11

> <Sum Probability>
95.61

> <Delta G>
2.309

> <G>
60.457

> <E>
22.872

> <-TS>
37.585

> <U+W>
-1.273

> <U>
50.585

> <W>
-51.858

> <W(PB)>
-54.330

> <W(SA)>
2.472

> <Valence>
4.139

> <Coulomb>
45.307

> <VdW>
1.139

> <VdW6>
-9.438

> <VdW12>
10.577

> <Bond>
0.283

> <Angle>
1.231

> <Pdih>
2.625

> <Idih>
0.000

> <Tether>
0.000

$$$$
VeraChem MOL file


 29 28  0  0  0  0  0  0  0  0999 V2000     
   19.9829   18.5507   19.8567 C   0  0  0  0  0  0  0  0  0  0  0  0
   20.7089   17.7962   20.1863 H   0  0  0  0  0  0  0  0  0  0  0  0
   18.9763   18.1252   19.9535 H   0  0  0  0  0  0  0  0  0  0  0  0
   20.1589   18.7431   18.7904 H   0  0  0  0  0  0  0  0  0  0  0  0
   20.1279   19.8550   20.6729 C   0  0  0  0  0  0  0  0  0  0  0  0
   19.3743   20.5834   20.3425 H   0  0  0  0  0  0  0  0  0  0  0  0
   21.1066   20.3039   20.4532 H   0  0  0  0  0  0  0  0  0  0  0  0
   20.0120   19.6381   22.2008 C   0  0  0  0  0  0  0  0  0  0  0  0
   20.7887   18.9319   22.5223 H   0  0  0  0  0  0  0  0  0  0  0  0
   20.2271   20.5898   22.7057 H   0  0  0  0  0  0  0  0  0  0  0  0
   18.6158   19.1330   22.6442 C   0  0  0  0  0  0  0  0  0  0  0  0
   18.4345   18.1267   22.2442 H   0  0  0  0  0  0  0  0  0  0  0  0
   17.8448   19.7835   22.2089 H   0  0  0  0  0  0  0  0  0  0  0  0
   18.4295   19.1108   24.1810 C   0  0  0  0  0  0  0  0  0  0  0  0
   18.5802   20.1236   24.5778 H   0  0  0  0  0  0  0  0  0  0  0  0
   17.3866   18.8443   24.4014 H   0  0  0  0  0  0  0  0  0  0  0  0
   19.3687   18.1095   24.8995 C   0  0  0  0  0  0  0  0  0  0  0  0
   20.4156   18.4103   24.7675 H   0  0  0  0  0  0  0  0  0  0  0  0
   19.2713   17.1221   24.4276 H   0  0  0  0  0  0  0  0  0  0  0  0
   19.0591   17.9667   26.4106 C   0  0  0  0  0  0  0  0  0  0  0  0
   18.0421   17.5721   26.5362 H   0  0  0  0  0  0  0  0  0  0  0  0
   19.7336   17.2201   26.8506 H   0  0  0  0  0  0  0  0  0  0  0  0
   19.1793   19.2849   27.2018 C   0  0  0  0  0  0  0  0  0  0  0  0
   18.9200   19.1052   28.2486 H   0  0  0  0  0  0  0  0  0  0  0  0
   18.4793   20.0222   26.8003 H   0  0  0  0  0  0  0  0  0  0  0  0
   20.5689   19.8892   27.1676 N   0  3  0  0  0  0  0  0  0  0  0  0
   20.6190   20.7606   27.7067 H   0  0  0  0  0  0  0  0  0  0  0  0
   20.8603   20.1087   26.2099 H   0  0  0  0  0  0  0  0  0  0  0  0
   21.2698   19.2523   27.5604 H   0  0  0  0  0  0  0  0  0  0  0  0
  1  2  1  0  0  0  0
  1  3  1  0  0  0  0
  1  4  1  0  0  0  0
  1  5  1  0  0  0  0
  5  6  1  0  0  0  0
  5  7  1  0  0  0  0
  5  8  1  0  0  0  0
  8  9  1  0  0  0  0
  8 10  1  0  0  0  0
  8 11  1  0  0  0  0
 11 12  1  0  0  0  0
 11 13  1  0  0  0  0
 11 14  1  0  0  0  0
 14 15  1  0  0  0  0
 14 16  1  0  0  0  0
 14 17  1  0  0  0  0
 17 18  1  0  0  0  0
 17 19  1  0  0  0  0
 17 20  1  0  0  0  0
 20 21  1  0  0  0  0
 20 22  1  0  0  0  0
 20 23  1  0  0  0  0
 23 24  1  0  0  0  0
 23 25  1  0  0  0  0
 23 26  1  0  0  0  0
 26 27  1  0  0  0  0
 26 28  1  0  0  0  0
 26 29  1  0  0  0  0
M  END
> <VM2 Rank>
158

> <Conf_Id>
2005

> <Probability>
0.11

> <Sum Probability>
95.72

> <Delta G>
2.311

> <G>
60.459

> <E>
22.739

> <-TS>
37.720

> <U+W>
-1.406

> <U>
50.719

> <W>
-52.125

> <W(PB)>
-54.578

> <W(SA)>
2.453

> <Valence>
3.960

> <Coulomb>
45.808

> <VdW>
0.951

> <VdW6>
-9.643

> <VdW12>
10.594

> <Bond>
0.266

> <Angle>
1.045

> <Pdih>
2.649

> <Idih>
0.000

> <Tether>
0.000

$$$$
VeraChem MOL file


 29 28  0  0  0  0  0  0  0  0999 V2000     
   21.0701   18.8058   20.3036 C   0  0  0  0  0  0  0  0  0  0  0  0
   21.8095   18.3126   20.9479 H   0  0  0  0  0  0  0  0  0  0  0  0
   20.6657   18.0562   19.6109 H   0  0  0  0  0  0  0  0  0  0  0  0
   21.5940   19.5656   19.7093 H   0  0  0  0  0  0  0  0  0  0  0  0
   19.9462   19.4498   21.1424 C   0  0  0  0  0  0  0  0  0  0  0  0
   19.2389   19.9606   20.4742 H   0  0  0  0  0  0  0  0  0  0  0  0
   20.3826   20.2196   21.7927 H   0  0  0  0  0  0  0  0  0  0  0  0
   19.1947   18.3980   21.9916 C   0  0  0  0  0  0  0  0  0  0  0  0
   18.8221   17.6050   21.3288 H   0  0  0  0  0  0  0  0  0  0  0  0
   19.8944   17.9095   22.6824 H   0  0  0  0  0  0  0  0  0  0  0  0
   17.9928   18.9818   22.7781 C   0  0  0  0  0  0  0  0  0  0  0  0
   17.4818   18.1648   23.3045 H   0  0  0  0  0  0  0  0  0  0  0  0
   17.2575   19.3737   22.0621 H   0  0  0  0  0  0  0  0  0  0  0  0
   18.3451   20.1055   23.7900 C   0  0  0  0  0  0  0  0  0  0  0  0
   18.6784   20.9961   23.2409 H   0  0  0  0  0  0  0  0  0  0  0  0
   17.4263   20.4089   24.3103 H   0  0  0  0  0  0  0  0  0  0  0  0
   19.4196   19.7364   24.8452 C   0  0  0  0  0  0  0  0  0  0  0  0
   19.5954   20.6195   25.4735 H   0  0  0  0  0  0  0  0  0  0  0  0
   20.3756   19.5236   24.3486 H   0  0  0  0  0  0  0  0  0  0  0  0
   19.0179   18.5390   25.7421 C   0  0  0  0  0  0  0  0  0  0  0  0
   18.0571   18.7423   26.2333 H   0  0  0  0  0  0  0  0  0  0  0  0
   18.8719   17.6448   25.1233 H   0  0  0  0  0  0  0  0  0  0  0  0
   20.0819   18.2118   26.8073 C   0  0  0  0  0  0  0  0  0  0  0  0
   21.0440   18.0268   26.3221 H   0  0  0  0  0  0  0  0  0  0  0  0
   19.7903   17.3049   27.3439 H   0  0  0  0  0  0  0  0  0  0  0  0
   20.2758   19.3098   27.8346 N   0  3  0  0  0  0  0  0  0  0  0  0
   20.5867   20.1846   27.4007 H   0  0  0  0  0  0  0  0  0  0  0  0
   20.9798   19.0550   28.5360 H   0  0  0  0  0  0  0  0  0  0  0  0
   19.4080   19.5141   28.3411 H   0  0  0  0  0  0  0  0  0  0  0  0
  1  2  1  0  0  0  0
  1  3  1  0  0  0  0
  1  4  1  0  0  0  0
  1  5  1  0  0  0  0
  5  6  1  0  0  0  0
  5  7  1  0  0  0  0
  5  8  1  0  0  0  0
  8  9  1  0  0  0  0
  8 10  1  0  0  0  0
  8 11  1  0  0  0  0
 11 12  1  0  0  0  0
 11 13  1  0  0  0  0
 11 14  1  0  0  0  0
 14 15  1  0  0  0  0
 14 16  1  0  0  0  0
 14 17  1  0  0  0  0
 17 18  1  0  0  0  0
 17 19  1  0  0  0  0
 17 20  1  0  0  0  0
 20 21  1  0  0  0  0
 20 22  1  0  0  0  0
 20 23  1  0  0  0  0
 23 24  1  0  0  0  0
 23 25  1  0  0  0  0
 23 26  1  0  0  0  0
 26 27  1  0  0  0  0
 26 28  1  0  0  0  0
 26 29  1  0  0  0  0
M  END
> <VM2 Rank>
159

> <Conf_Id>
1273

> <Probability>
0.11

> <Sum Probability>
95.83

> <Delta G>
2.318

> <G>
60.466

> <E>
22.390

> <-TS>
38.076

> <U+W>
-1.754

> <U>
50.241

> <W>
-51.996

> <W(PB)>
-54.449

> <W(SA)>
2.453

> <Valence>
4.143

> <Coulomb>
45.288

> <VdW>
0.811

> <VdW6>
-10.141

> <VdW12>
10.952

> <Bond>
0.297

> <Angle>
1.473

> <Pdih>
2.372

> <Idih>
0.000

> <Tether>
0.000

$$$$
VeraChem MOL file


 29 28  0  0  0  0  0  0  0  0999 V2000     
   21.0784   19.2847   20.8157 C   0  0  0  0  0  0  0  0  0  0  0  0
   20.7755   18.9662   19.8098 H   0  0  0  0  0  0  0  0  0  0  0  0
   21.9789   19.9043   20.7154 H   0  0  0  0  0  0  0  0  0  0  0  0
   21.3533   18.3917   21.3907 H   0  0  0  0  0  0  0  0  0  0  0  0
   19.9490   20.0790   21.5095 C   0  0  0  0  0  0  0  0  0  0  0  0
   19.7841   21.0148   20.9578 H   0  0  0  0  0  0  0  0  0  0  0  0
   20.2697   20.3760   22.5170 H   0  0  0  0  0  0  0  0  0  0  0  0
   18.6084   19.3047   21.5808 C   0  0  0  0  0  0  0  0  0  0  0  0
   17.8464   19.9525   22.0340 H   0  0  0  0  0  0  0  0  0  0  0  0
   18.2576   19.1096   20.5582 H   0  0  0  0  0  0  0  0  0  0  0  0
   18.6637   17.9573   22.3501 C   0  0  0  0  0  0  0  0  0  0  0  0
   19.2913   17.2481   21.7942 H   0  0  0  0  0  0  0  0  0  0  0  0
   17.6575   17.5162   22.3579 H   0  0  0  0  0  0  0  0  0  0  0  0
   19.1824   18.0501   23.8080 C   0  0  0  0  0  0  0  0  0  0  0  0
   19.1918   17.0386   24.2367 H   0  0  0  0  0  0  0  0  0  0  0  0
   20.2265   18.3878   23.8058 H   0  0  0  0  0  0  0  0  0  0  0  0
   18.3224   18.9717   24.7089 C   0  0  0  0  0  0  0  0  0  0  0  0
   17.2699   18.6641   24.6398 H   0  0  0  0  0  0  0  0  0  0  0  0
   18.3700   20.0067   24.3451 H   0  0  0  0  0  0  0  0  0  0  0  0
   18.7547   18.9382   26.1933 C   0  0  0  0  0  0  0  0  0  0  0  0
   18.0540   19.5445   26.7826 H   0  0  0  0  0  0  0  0  0  0  0  0
   18.6819   17.9116   26.5764 H   0  0  0  0  0  0  0  0  0  0  0  0
   20.1840   19.4707   26.4062 C   0  0  0  0  0  0  0  0  0  0  0  0
   20.2559   20.4936   26.0268 H   0  0  0  0  0  0  0  0  0  0  0  0
   20.8963   18.8487   25.8581 H   0  0  0  0  0  0  0  0  0  0  0  0
   20.6010   19.4816   27.8625 N   0  3  0  0  0  0  0  0  0  0  0  0
   19.9861   20.0731   28.4312 H   0  0  0  0  0  0  0  0  0  0  0  0
   21.5551   19.8392   27.9831 H   0  0  0  0  0  0  0  0  0  0  0  0
   20.5799   18.5420   28.2726 H   0  0  0  0  0  0  0  0  0  0  0  0
  1  2  1  0  0  0  0
  1  3  1  0  0  0  0
  1  4  1  0  0  0  0
  1  5  1  0  0  0  0
  5  6  1  0  0  0  0
  5  7  1  0  0  0  0
  5  8  1  0  0  0  0
  8  9  1  0  0  0  0
  8 10  1  0  0  0  0
  8 11  1  0  0  0  0
 11 12  1  0  0  0  0
 11 13  1  0  0  0  0
 11 14  1  0  0  0  0
 14 15  1  0  0  0  0
 14 16  1  0  0  0  0
 14 17  1  0  0  0  0
 17 18  1  0  0  0  0
 17 19  1  0  0  0  0
 17 20  1  0  0  0  0
 20 21  1  0  0  0  0
 20 22  1  0  0  0  0
 20 23  1  0  0  0  0
 23 24  1  0  0  0  0
 23 25  1  0  0  0  0
 23 26  1  0  0  0  0
 26 27  1  0  0  0  0
 26 28  1  0  0  0  0
 26 29  1  0  0  0  0
M  END
> <VM2 Rank>
160

> <Conf_Id>
987

> <Probability>
0.11

> <Sum Probability>
95.94

> <Delta G>
2.326

> <G>
60.474

> <E>
22.407

> <-TS>
38.067

> <U+W>
-1.737

> <U>
50.366

> <W>
-52.103

> <W(PB)>
-54.540

> <W(SA)>
2.437

> <Valence>
4.264

> <Coulomb>
45.392

> <VdW>
0.710

> <VdW6>
-10.226

> <VdW12>
10.935

> <Bond>
0.291

> <Angle>
1.460

> <Pdih>
2.514

> <Idih>
0.000

> <Tether>
0.000

$$$$
VeraChem MOL file


 29 28  0  0  0  0  0  0  0  0999 V2000     
   20.2629   17.9224   20.3474 C   0  0  0  0  0  0  0  0  0  0  0  0
   21.2695   18.2898   20.1095 H   0  0  0  0  0  0  0  0  0  0  0  0
   20.3192   17.3395   21.2752 H   0  0  0  0  0  0  0  0  0  0  0  0
   19.9560   17.2386   19.5456 H   0  0  0  0  0  0  0  0  0  0  0  0
   19.2608   19.0918   20.4746 C   0  0  0  0  0  0  0  0  0  0  0  0
   18.2673   18.7024   20.7336 H   0  0  0  0  0  0  0  0  0  0  0  0
   19.1480   19.5691   19.4912 H   0  0  0  0  0  0  0  0  0  0  0  0
   19.6983   20.1709   21.4979 C   0  0  0  0  0  0  0  0  0  0  0  0
   20.6277   20.6372   21.1432 H   0  0  0  0  0  0  0  0  0  0  0  0
   18.9465   20.9719   21.5107 H   0  0  0  0  0  0  0  0  0  0  0  0
   19.9203   19.6652   22.9471 C   0  0  0  0  0  0  0  0  0  0  0  0
   20.2582   20.5172   23.5505 H   0  0  0  0  0  0  0  0  0  0  0  0
   20.7404   18.9356   22.9675 H   0  0  0  0  0  0  0  0  0  0  0  0
   18.6521   19.0476   23.5890 C   0  0  0  0  0  0  0  0  0  0  0  0
   17.8327   19.7792   23.5708 H   0  0  0  0  0  0  0  0  0  0  0  0
   18.3181   18.1932   22.9864 H   0  0  0  0  0  0  0  0  0  0  0  0
   18.8732   18.5505   25.0387 C   0  0  0  0  0  0  0  0  0  0  0  0
   19.6901   17.8165   25.0494 H   0  0  0  0  0  0  0  0  0  0  0  0
   17.9706   18.0142   25.3631 H   0  0  0  0  0  0  0  0  0  0  0  0
   19.1678   19.6897   26.0464 C   0  0  0  0  0  0  0  0  0  0  0  0
   20.1249   20.1724   25.8130 H   0  0  0  0  0  0  0  0  0  0  0  0
   18.3938   20.4635   25.9578 H   0  0  0  0  0  0  0  0  0  0  0  0
   19.1977   19.1944   27.5050 C   0  0  0  0  0  0  0  0  0  0  0  0
   18.2467   18.7139   27.7502 H   0  0  0  0  0  0  0  0  0  0  0  0
   19.3321   20.0474   28.1757 H   0  0  0  0  0  0  0  0  0  0  0  0
   20.3111   18.2055   27.7887 N   0  3  0  0  0  0  0  0  0  0  0  0
   20.3106   17.9024   28.7689 H   0  0  0  0  0  0  0  0  0  0  0  0
   21.2348   18.6082   27.5996 H   0  0  0  0  0  0  0  0  0  0  0  0
   20.2241   17.3621   27.2131 H   0  0  0  0  0  0  0  0  0  0  0  0
  1  2  1  0  0  0  0
  1  3  1  0  0  0  0
  1  4  1  0  0  0  0
  1  5  1  0  0  0  0
  5  6  1  0  0  0  0
  5  7  1  0  0  0  0
  5  8  1  0  0  0  0
  8  9  1  0  0  0  0
  8 10  1  0  0  0  0
  8 11  1  0  0  0  0
 11 12  1  0  0  0  0
 11 13  1  0  0  0  0
 11 14  1  0  0  0  0
 14 15  1  0  0  0  0
 14 16  1  0  0  0  0
 14 17  1  0  0  0  0
 17 18  1  0  0  0  0
 17 19  1  0  0  0  0
 17 20  1  0  0  0  0
 20 21  1  0  0  0  0
 20 22  1  0  0  0  0
 20 23  1  0  0  0  0
 23 24  1  0  0  0  0
 23 25  1  0  0  0  0
 23 26  1  0  0  0  0
 26 27  1  0  0  0  0
 26 28  1  0  0  0  0
 26 29  1  0  0  0  0
M  END
> <VM2 Rank>
161

> <Conf_Id>
2576

> <Probability>
0.11

> <Sum Probability>
96.05

> <Delta G>
2.342

> <G>
60.490

> <E>
22.701

> <-TS>
37.789

> <U+W>
-1.443

> <U>
50.446

> <W>
-51.889

> <W(PB)>
-54.352

> <W(SA)>
2.463

> <Valence>
4.250

> <Coulomb>
45.120

> <VdW>
1.076

> <VdW6>
-9.657

> <VdW12>
10.734

> <Bond>
0.293

> <Angle>
1.397

> <Pdih>
2.559

> <Idih>
0.000

> <Tether>
0.000

$$$$
VeraChem MOL file


 29 28  0  0  0  0  0  0  0  0999 V2000     
   19.3882   18.9340   19.6480 C   0  0  0  0  0  0  0  0  0  0  0  0
   20.2502   19.5700   19.4085 H   0  0  0  0  0  0  0  0  0  0  0  0
   19.7523   17.9163   19.8347 H   0  0  0  0  0  0  0  0  0  0  0  0
   18.7431   18.8951   18.7607 H   0  0  0  0  0  0  0  0  0  0  0  0
   18.6068   19.4905   20.8599 C   0  0  0  0  0  0  0  0  0  0  0  0
   17.7711   18.8190   21.1017 H   0  0  0  0  0  0  0  0  0  0  0  0
   18.1562   20.4521   20.5770 H   0  0  0  0  0  0  0  0  0  0  0  0
   19.4855   19.7062   22.1157 C   0  0  0  0  0  0  0  0  0  0  0  0
   20.3183   20.3794   21.8702 H   0  0  0  0  0  0  0  0  0  0  0  0
   18.8780   20.2250   22.8683 H   0  0  0  0  0  0  0  0  0  0  0  0
   20.0373   18.3885   22.7163 C   0  0  0  0  0  0  0  0  0  0  0  0
   20.6377   17.8666   21.9603 H   0  0  0  0  0  0  0  0  0  0  0  0
   19.2062   17.7135   22.9588 H   0  0  0  0  0  0  0  0  0  0  0  0
   20.9316   18.6012   23.9656 C   0  0  0  0  0  0  0  0  0  0  0  0
   21.3060   17.6237   24.2995 H   0  0  0  0  0  0  0  0  0  0  0  0
   21.8198   19.1773   23.6717 H   0  0  0  0  0  0  0  0  0  0  0  0
   20.2529   19.3125   25.1651 C   0  0  0  0  0  0  0  0  0  0  0  0
   19.9876   20.3421   24.8911 H   0  0  0  0  0  0  0  0  0  0  0  0
   20.9941   19.3978   25.9705 H   0  0  0  0  0  0  0  0  0  0  0  0
   18.9996   18.5728   25.6962 C   0  0  0  0  0  0  0  0  0  0  0  0
   18.2366   18.5249   24.9092 H   0  0  0  0  0  0  0  0  0  0  0  0
   19.2545   17.5359   25.9523 H   0  0  0  0  0  0  0  0  0  0  0  0
   18.3747   19.2673   26.9214 C   0  0  0  0  0  0  0  0  0  0  0  0
   17.4440   18.7600   27.1897 H   0  0  0  0  0  0  0  0  0  0  0  0
   18.1382   20.3060   26.6752 H   0  0  0  0  0  0  0  0  0  0  0  0
   19.2674   19.2650   28.1467 N   0  3  0  0  0  0  0  0  0  0  0  0
   19.5067   18.3124   28.4410 H   0  0  0  0  0  0  0  0  0  0  0  0
   18.8167   19.7220   28.9471 H   0  0  0  0  0  0  0  0  0  0  0  0
   20.1483   19.7596   27.9753 H   0  0  0  0  0  0  0  0  0  0  0  0
  1  2  1  0  0  0  0
  1  3  1  0  0  0  0
  1  4  1  0  0  0  0
  1  5  1  0  0  0  0
  5  6  1  0  0  0  0
  5  7  1  0  0  0  0
  5  8  1  0  0  0  0
  8  9  1  0  0  0  0
  8 10  1  0  0  0  0
  8 11  1  0  0  0  0
 11 12  1  0  0  0  0
 11 13  1  0  0  0  0
 11 14  1  0  0  0  0
 14 15  1  0  0  0  0
 14 16  1  0  0  0  0
 14 17  1  0  0  0  0
 17 18  1  0  0  0  0
 17 19  1  0  0  0  0
 17 20  1  0  0  0  0
 20 21  1  0  0  0  0
 20 22  1  0  0  0  0
 20 23  1  0  0  0  0
 23 24  1  0  0  0  0
 23 25  1  0  0  0  0
 23 26  1  0  0  0  0
 26 27  1  0  0  0  0
 26 28  1  0  0  0  0
 26 29  1  0  0  0  0
M  END
> <VM2 Rank>
162

> <Conf_Id>
671

> <Probability>
0.11

> <Sum Probability>
96.15

> <Delta G>
2.342

> <G>
60.490

> <E>
22.684

> <-TS>
37.806

> <U+W>
-1.460

> <U>
50.427

> <W>
-51.887

> <W(PB)>
-54.335

> <W(SA)>
2.448

> <Valence>
4.273

> <Coulomb>
45.070

> <VdW>
1.084

> <VdW6>
-9.708

> <VdW12>
10.792

> <Bond>
0.299

> <Angle>
1.475

> <Pdih>
2.499

> <Idih>
0.000

> <Tether>
0.000

$$$$
VeraChem MOL file


 29 28  0  0  0  0  0  0  0  0999 V2000     
   20.8445   17.9038   20.6084 C   0  0  0  0  0  0  0  0  0  0  0  0
   21.4127   18.6358   20.0198 H   0  0  0  0  0  0  0  0  0  0  0  0
   21.5164   17.4772   21.3646 H   0  0  0  0  0  0  0  0  0  0  0  0
   20.5384   17.0937   19.9338 H   0  0  0  0  0  0  0  0  0  0  0  0
   19.6124   18.5582   21.2681 C   0  0  0  0  0  0  0  0  0  0  0  0
   19.0492   17.7894   21.8136 H   0  0  0  0  0  0  0  0  0  0  0  0
   18.9447   18.9488   20.4876 H   0  0  0  0  0  0  0  0  0  0  0  0
   20.0192   19.7019   22.2265 C   0  0  0  0  0  0  0  0  0  0  0  0
   20.6613   19.3070   23.0246 H   0  0  0  0  0  0  0  0  0  0  0  0
   20.6343   20.4267   21.6756 H   0  0  0  0  0  0  0  0  0  0  0  0
   18.8108   20.4545   22.8408 C   0  0  0  0  0  0  0  0  0  0  0  0
   18.2400   20.9294   22.0311 H   0  0  0  0  0  0  0  0  0  0  0  0
   19.1846   21.2807   23.4599 H   0  0  0  0  0  0  0  0  0  0  0  0
   17.8424   19.5795   23.6818 C   0  0  0  0  0  0  0  0  0  0  0  0
   17.0538   20.2251   24.0922 H   0  0  0  0  0  0  0  0  0  0  0  0
   17.3262   18.8704   23.0211 H   0  0  0  0  0  0  0  0  0  0  0  0
   18.5027   18.7939   24.8437 C   0  0  0  0  0  0  0  0  0  0  0  0
   19.2173   18.0665   24.4382 H   0  0  0  0  0  0  0  0  0  0  0  0
   17.7252   18.2056   25.3502 H   0  0  0  0  0  0  0  0  0  0  0  0
   19.2002   19.7056   25.8835 C   0  0  0  0  0  0  0  0  0  0  0  0
   20.0395   20.2412   25.4222 H   0  0  0  0  0  0  0  0  0  0  0  0
   18.4915   20.4692   26.2304 H   0  0  0  0  0  0  0  0  0  0  0  0
   19.7128   18.9224   27.1070 C   0  0  0  0  0  0  0  0  0  0  0  0
   18.8834   18.3835   27.5730 H   0  0  0  0  0  0  0  0  0  0  0  0
   20.1208   19.6221   27.8414 H   0  0  0  0  0  0  0  0  0  0  0  0
   20.7990   17.9182   26.7752 N   0  3  0  0  0  0  0  0  0  0  0  0
   20.4695   17.2092   26.1127 H   0  0  0  0  0  0  0  0  0  0  0  0
   21.1250   17.4207   27.6111 H   0  0  0  0  0  0  0  0  0  0  0  0
   21.6185   18.3692   26.3557 H   0  0  0  0  0  0  0  0  0  0  0  0
  1  2  1  0  0  0  0
  1  3  1  0  0  0  0
  1  4  1  0  0  0  0
  1  5  1  0  0  0  0
  5  6  1  0  0  0  0
  5  7  1  0  0  0  0
  5  8  1  0  0  0  0
  8  9  1  0  0  0  0
  8 10  1  0  0  0  0
  8 11  1  0  0  0  0
 11 12  1  0  0  0  0
 11 13  1  0  0  0  0
 11 14  1  0  0  0  0
 14 15  1  0  0  0  0
 14 16  1  0  0  0  0
 14 17  1  0  0  0  0
 17 18  1  0  0  0  0
 17 19  1  0  0  0  0
 17 20  1  0  0  0  0
 20 21  1  0  0  0  0
 20 22  1  0  0  0  0
 20 23  1  0  0  0  0
 23 24  1  0  0  0  0
 23 25  1  0  0  0  0
 23 26  1  0  0  0  0
 26 27  1  0  0  0  0
 26 28  1  0  0  0  0
 26 29  1  0  0  0  0
M  END
> <VM2 Rank>
163

> <Conf_Id>
1054

> <Probability>
0.10

> <Sum Probability>
96.25

> <Delta G>
2.356

> <G>
60.504

> <E>
22.414

> <-TS>
38.090

> <U+W>
-1.731

> <U>
50.851

> <W>
-52.582

> <W(PB)>
-54.998

> <W(SA)>
2.416

> <Valence>
4.102

> <Coulomb>
46.056

> <VdW>
0.692

> <VdW6>
-10.268

> <VdW12>
10.960

> <Bond>
0.293

> <Angle>
1.409

> <Pdih>
2.400

> <Idih>
0.000

> <Tether>
0.000

$$$$
VeraChem MOL file


 29 28  0  0  0  0  0  0  0  0999 V2000     
   20.2368   18.3776   19.9011 C   0  0  0  0  0  0  0  0  0  0  0  0
   21.0021   19.0687   19.5245 H   0  0  0  0  0  0  0  0  0  0  0  0
   20.7442   17.4893   20.2994 H   0  0  0  0  0  0  0  0  0  0  0  0
   19.6208   18.0606   19.0496 H   0  0  0  0  0  0  0  0  0  0  0  0
   19.3659   19.0500   20.9832 C   0  0  0  0  0  0  0  0  0  0  0  0
   18.5895   18.3437   21.3059 H   0  0  0  0  0  0  0  0  0  0  0  0
   18.8481   19.9164   20.5485 H   0  0  0  0  0  0  0  0  0  0  0  0
   20.2122   19.5025   22.1961 C   0  0  0  0  0  0  0  0  0  0  0  0
   20.7014   18.6319   22.6522 H   0  0  0  0  0  0  0  0  0  0  0  0
   21.0233   20.1534   21.8417 H   0  0  0  0  0  0  0  0  0  0  0  0
   19.3980   20.2755   23.2654 C   0  0  0  0  0  0  0  0  0  0  0  0
   18.9962   21.1916   22.8113 H   0  0  0  0  0  0  0  0  0  0  0  0
   20.0810   20.6144   24.0556 H   0  0  0  0  0  0  0  0  0  0  0  0
   18.2256   19.4836   23.9043 C   0  0  0  0  0  0  0  0  0  0  0  0
   17.7344   20.1233   24.6497 H   0  0  0  0  0  0  0  0  0  0  0  0
   17.4594   19.2907   23.1419 H   0  0  0  0  0  0  0  0  0  0  0  0
   18.6227   18.1368   24.5662 C   0  0  0  0  0  0  0  0  0  0  0  0
   18.9724   17.4374   23.7953 H   0  0  0  0  0  0  0  0  0  0  0  0
   17.7213   17.6781   24.9955 H   0  0  0  0  0  0  0  0  0  0  0  0
   19.7003   18.2517   25.6726 C   0  0  0  0  0  0  0  0  0  0  0  0
   19.8992   17.2511   26.0789 H   0  0  0  0  0  0  0  0  0  0  0  0
   20.6462   18.6031   25.2411 H   0  0  0  0  0  0  0  0  0  0  0  0
   19.2753   19.1860   26.8202 C   0  0  0  0  0  0  0  0  0  0  0  0
   18.3398   18.8284   27.2586 H   0  0  0  0  0  0  0  0  0  0  0  0
   19.1111   20.1949   26.4328 H   0  0  0  0  0  0  0  0  0  0  0  0
   20.3071   19.2742   27.9259 N   0  3  0  0  0  0  0  0  0  0  0  0
   20.4879   18.3595   28.3526 H   0  0  0  0  0  0  0  0  0  0  0  0
   20.0049   19.9011   28.6797 H   0  0  0  0  0  0  0  0  0  0  0  0
   21.2052   19.6304   27.5825 H   0  0  0  0  0  0  0  0  0  0  0  0
  1  2  1  0  0  0  0
  1  3  1  0  0  0  0
  1  4  1  0  0  0  0
  1  5  1  0  0  0  0
  5  6  1  0  0  0  0
  5  7  1  0  0  0  0
  5  8  1  0  0  0  0
  8  9  1  0  0  0  0
  8 10  1  0  0  0  0
  8 11  1  0  0  0  0
 11 12  1  0  0  0  0
 11 13  1  0  0  0  0
 11 14  1  0  0  0  0
 14 15  1  0  0  0  0
 14 16  1  0  0  0  0
 14 17  1  0  0  0  0
 17 18  1  0  0  0  0
 17 19  1  0  0  0  0
 17 20  1  0  0  0  0
 20 21  1  0  0  0  0
 20 22  1  0  0  0  0
 20 23  1  0  0  0  0
 23 24  1  0  0  0  0
 23 25  1  0  0  0  0
 23 26  1  0  0  0  0
 26 27  1  0  0  0  0
 26 28  1  0  0  0  0
 26 29  1  0  0  0  0
M  END
> <VM2 Rank>
164

> <Conf_Id>
841

> <Probability>
0.10

> <Sum Probability>
96.36

> <Delta G>
2.356

> <G>
60.504

> <E>
22.318

> <-TS>
38.186

> <U+W>
-1.826

> <U>
50.384

> <W>
-52.210

> <W(PB)>
-54.658

> <W(SA)>
2.448

> <Valence>
4.249

> <Coulomb>
45.544

> <VdW>
0.592

> <VdW6>
-10.475

> <VdW12>
11.067

> <Bond>
0.300

> <Angle>
1.566

> <Pdih>
2.383

> <Idih>
0.000

> <Tether>
0.000

$$$$
VeraChem MOL file


 29 28  0  0  0  0  0  0  0  0999 V2000     
   21.4118   19.2298   21.7064 C   0  0  0  0  0  0  0  0  0  0  0  0
   21.7254   18.2322   21.3725 H   0  0  0  0  0  0  0  0  0  0  0  0
   22.1759   19.9483   21.3832 H   0  0  0  0  0  0  0  0  0  0  0  0
   21.3953   19.2362   22.8032 H   0  0  0  0  0  0  0  0  0  0  0  0
   20.0330   19.6042   21.1171 C   0  0  0  0  0  0  0  0  0  0  0  0
   20.1292   19.7022   20.0268 H   0  0  0  0  0  0  0  0  0  0  0  0
   19.7310   20.5951   21.4817 H   0  0  0  0  0  0  0  0  0  0  0  0
   18.9276   18.5613   21.4224 C   0  0  0  0  0  0  0  0  0  0  0  0
   17.9921   18.8871   20.9473 H   0  0  0  0  0  0  0  0  0  0  0  0
   19.1941   17.6104   20.9408 H   0  0  0  0  0  0  0  0  0  0  0  0
   18.6648   18.2993   22.9276 C   0  0  0  0  0  0  0  0  0  0  0  0
   19.5632   17.8664   23.3848 H   0  0  0  0  0  0  0  0  0  0  0  0
   17.8806   17.5349   23.0152 H   0  0  0  0  0  0  0  0  0  0  0  0
   18.2242   19.5649   23.7050 C   0  0  0  0  0  0  0  0  0  0  0  0
   19.0315   20.3082   23.7040 H   0  0  0  0  0  0  0  0  0  0  0  0
   17.3801   20.0316   23.1790 H   0  0  0  0  0  0  0  0  0  0  0  0
   17.7914   19.2721   25.1647 C   0  0  0  0  0  0  0  0  0  0  0  0
   16.9120   18.6135   25.1552 H   0  0  0  0  0  0  0  0  0  0  0  0
   17.4605   20.2115   25.6290 H   0  0  0  0  0  0  0  0  0  0  0  0
   18.8888   18.6337   26.0522 C   0  0  0  0  0  0  0  0  0  0  0  0
   18.4904   18.4996   27.0666 H   0  0  0  0  0  0  0  0  0  0  0  0
   19.1333   17.6296   25.6830 H   0  0  0  0  0  0  0  0  0  0  0  0
   20.1691   19.4867   26.1223 C   0  0  0  0  0  0  0  0  0  0  0  0
   19.9276   20.4820   26.5050 H   0  0  0  0  0  0  0  0  0  0  0  0
   20.5947   19.5957   25.1215 H   0  0  0  0  0  0  0  0  0  0  0  0
   21.2334   18.8860   27.0173 N   0  3  0  0  0  0  0  0  0  0  0  0
   21.5237   17.9570   26.6951 H   0  0  0  0  0  0  0  0  0  0  0  0
   20.9049   18.7817   27.9830 H   0  0  0  0  0  0  0  0  0  0  0  0
   22.0770   19.4690   27.0501 H   0  0  0  0  0  0  0  0  0  0  0  0
  1  2  1  0  0  0  0
  1  3  1  0  0  0  0
  1  4  1  0  0  0  0
  1  5  1  0  0  0  0
  5  6  1  0  0  0  0
  5  7  1  0  0  0  0
  5  8  1  0  0  0  0
  8  9  1  0  0  0  0
  8 10  1  0  0  0  0
  8 11  1  0  0  0  0
 11 12  1  0  0  0  0
 11 13  1  0  0  0  0
 11 14  1  0  0  0  0
 14 15  1  0  0  0  0
 14 16  1  0  0  0  0
 14 17  1  0  0  0  0
 17 18  1  0  0  0  0
 17 19  1  0  0  0  0
 17 20  1  0  0  0  0
 20 21  1  0  0  0  0
 20 22  1  0  0  0  0
 20 23  1  0  0  0  0
 23 24  1  0  0  0  0
 23 25  1  0  0  0  0
 23 26  1  0  0  0  0
 26 27  1  0  0  0  0
 26 28  1  0  0  0  0
 26 29  1  0  0  0  0
M  END
> <VM2 Rank>
165

> <Conf_Id>
1622

> <Probability>
0.10

> <Sum Probability>
96.46

> <Delta G>
2.357

> <G>
60.505

> <E>
22.455

> <-TS>
38.050

> <U+W>
-1.690

> <U>
50.968

> <W>
-52.658

> <W(PB)>
-55.065

> <W(SA)>
2.407

> <Valence>
4.230

> <Coulomb>
46.141

> <VdW>
0.598

> <VdW6>
-10.517

> <VdW12>
11.115

> <Bond>
0.292

> <Angle>
1.459

> <Pdih>
2.478

> <Idih>
0.000

> <Tether>
0.000

$$$$
VeraChem MOL file


 29 28  0  0  0  0  0  0  0  0999 V2000     
   21.3155   19.2245   20.6389 C   0  0  0  0  0  0  0  0  0  0  0  0
   21.3015   18.3222   20.0137 H   0  0  0  0  0  0  0  0  0  0  0  0
   21.6002   20.0717   20.0014 H   0  0  0  0  0  0  0  0  0  0  0  0
   22.0948   19.0999   21.4020 H   0  0  0  0  0  0  0  0  0  0  0  0
   19.9377   19.4707   21.2889 C   0  0  0  0  0  0  0  0  0  0  0  0
   19.1849   19.6215   20.5028 H   0  0  0  0  0  0  0  0  0  0  0  0
   19.9795   20.4000   21.8724 H   0  0  0  0  0  0  0  0  0  0  0  0
   19.5161   18.2905   22.1952 C   0  0  0  0  0  0  0  0  0  0  0  0
   19.5423   17.3627   21.6073 H   0  0  0  0  0  0  0  0  0  0  0  0
   20.2518   18.1585   22.9993 H   0  0  0  0  0  0  0  0  0  0  0  0
   18.0955   18.4477   22.7960 C   0  0  0  0  0  0  0  0  0  0  0  0
   17.8538   17.5476   23.3765 H   0  0  0  0  0  0  0  0  0  0  0  0
   17.3646   18.4731   21.9761 H   0  0  0  0  0  0  0  0  0  0  0  0
   17.8863   19.7037   23.6845 C   0  0  0  0  0  0  0  0  0  0  0  0
   17.9439   20.6049   23.0597 H   0  0  0  0  0  0  0  0  0  0  0  0
   16.8615   19.6863   24.0801 H   0  0  0  0  0  0  0  0  0  0  0  0
   18.8781   19.8483   24.8671 C   0  0  0  0  0  0  0  0  0  0  0  0
   18.6404   20.7751   25.4074 H   0  0  0  0  0  0  0  0  0  0  0  0
   19.8973   19.9756   24.4806 H   0  0  0  0  0  0  0  0  0  0  0  0
   18.8276   18.6608   25.8601 C   0  0  0  0  0  0  0  0  0  0  0  0
   17.7911   18.5044   26.1869 H   0  0  0  0  0  0  0  0  0  0  0  0
   19.1454   17.7339   25.3661 H   0  0  0  0  0  0  0  0  0  0  0  0
   19.7031   18.8944   27.1060 C   0  0  0  0  0  0  0  0  0  0  0  0
   19.5665   18.0660   27.8065 H   0  0  0  0  0  0  0  0  0  0  0  0
   19.3952   19.8174   27.6046 H   0  0  0  0  0  0  0  0  0  0  0  0
   21.1840   18.9973   26.7983 N   0  3  0  0  0  0  0  0  0  0  0  0
   21.5392   18.1466   26.3498 H   0  0  0  0  0  0  0  0  0  0  0  0
   21.7397   19.1430   27.6483 H   0  0  0  0  0  0  0  0  0  0  0  0
   21.3863   19.7804   26.1690 H   0  0  0  0  0  0  0  0  0  0  0  0
  1  2  1  0  0  0  0
  1  3  1  0  0  0  0
  1  4  1  0  0  0  0
  1  5  1  0  0  0  0
  5  6  1  0  0  0  0
  5  7  1  0  0  0  0
  5  8  1  0  0  0  0
  8  9  1  0  0  0  0
  8 10  1  0  0  0  0
  8 11  1  0  0  0  0
 11 12  1  0  0  0  0
 11 13  1  0  0  0  0
 11 14  1  0  0  0  0
 14 15  1  0  0  0  0
 14 16  1  0  0  0  0
 14 17  1  0  0  0  0
 17 18  1  0  0  0  0
 17 19  1  0  0  0  0
 17 20  1  0  0  0  0
 20 21  1  0  0  0  0
 20 22  1  0  0  0  0
 20 23  1  0  0  0  0
 23 24  1  0  0  0  0
 23 25  1  0  0  0  0
 23 26  1  0  0  0  0
 26 27  1  0  0  0  0
 26 28  1  0  0  0  0
 26 29  1  0  0  0  0
M  END
> <VM2 Rank>
166

> <Conf_Id>
82

> <Probability>
0.10

> <Sum Probability>
96.56

> <Delta G>
2.362

> <G>
60.510

> <E>
22.419

> <-TS>
38.091

> <U+W>
-1.725

> <U>
50.852

> <W>
-52.577

> <W(PB)>
-55.008

> <W(SA)>
2.431

> <Valence>
4.102

> <Coulomb>
46.058

> <VdW>
0.693

> <VdW6>
-10.269

> <VdW12>
10.961

> <Bond>
0.293

> <Angle>
1.409

> <Pdih>
2.400

> <Idih>
0.000

> <Tether>
0.000

$$$$
VeraChem MOL file


 29 28  0  0  0  0  0  0  0  0999 V2000     
   19.7904   20.2888   20.2062 C   0  0  0  0  0  0  0  0  0  0  0  0
   19.8537   20.9001   21.1150 H   0  0  0  0  0  0  0  0  0  0  0  0
   20.5205   20.6859   19.4892 H   0  0  0  0  0  0  0  0  0  0  0  0
   18.7898   20.4172   19.7734 H   0  0  0  0  0  0  0  0  0  0  0  0
   20.0791   18.8004   20.5048 C   0  0  0  0  0  0  0  0  0  0  0  0
   21.0751   18.6991   20.9560 H   0  0  0  0  0  0  0  0  0  0  0  0
   20.1244   18.2515   19.5538 H   0  0  0  0  0  0  0  0  0  0  0  0
   19.0099   18.1333   21.4074 C   0  0  0  0  0  0  0  0  0  0  0  0
   18.0501   18.1288   20.8728 H   0  0  0  0  0  0  0  0  0  0  0  0
   19.2777   17.0776   21.5521 H   0  0  0  0  0  0  0  0  0  0  0  0
   18.8003   18.7945   22.7946 C   0  0  0  0  0  0  0  0  0  0  0  0
   17.9981   18.2485   23.3065 H   0  0  0  0  0  0  0  0  0  0  0  0
   18.4344   19.8219   22.6680 H   0  0  0  0  0  0  0  0  0  0  0  0
   20.0732   18.7959   23.6790 C   0  0  0  0  0  0  0  0  0  0  0  0
   20.4363   17.7673   23.8097 H   0  0  0  0  0  0  0  0  0  0  0  0
   20.8725   19.3434   23.1633 H   0  0  0  0  0  0  0  0  0  0  0  0
   19.8651   19.4539   25.0654 C   0  0  0  0  0  0  0  0  0  0  0  0
   19.4860   20.4769   24.9339 H   0  0  0  0  0  0  0  0  0  0  0  0
   20.8470   19.5487   25.5474 H   0  0  0  0  0  0  0  0  0  0  0  0
   18.9135   18.6588   25.9945 C   0  0  0  0  0  0  0  0  0  0  0  0
   17.9155   18.5989   25.5434 H   0  0  0  0  0  0  0  0  0  0  0  0
   19.2713   17.6267   26.1060 H   0  0  0  0  0  0  0  0  0  0  0  0
   18.7660   19.3046   27.3858 C   0  0  0  0  0  0  0  0  0  0  0  0
   18.0123   18.7591   27.9601 H   0  0  0  0  0  0  0  0  0  0  0  0
   18.4296   20.3392   27.2777 H   0  0  0  0  0  0  0  0  0  0  0  0
   20.0466   19.3078   28.1974 N   0  3  0  0  0  0  0  0  0  0  0  0
   20.7900   19.8372   27.7313 H   0  0  0  0  0  0  0  0  0  0  0  0
   20.4013   18.3583   28.3520 H   0  0  0  0  0  0  0  0  0  0  0  0
   19.9102   19.7313   29.1219 H   0  0  0  0  0  0  0  0  0  0  0  0
  1  2  1  0  0  0  0
  1  3  1  0  0  0  0
  1  4  1  0  0  0  0
  1  5  1  0  0  0  0
  5  6  1  0  0  0  0
  5  7  1  0  0  0  0
  5  8  1  0  0  0  0
  8  9  1  0  0  0  0
  8 10  1  0  0  0  0
  8 11  1  0  0  0  0
 11 12  1  0  0  0  0
 11 13  1  0  0  0  0
 11 14  1  0  0  0  0
 14 15  1  0  0  0  0
 14 16  1  0  0  0  0
 14 17  1  0  0  0  0
 17 18  1  0  0  0  0
 17 19  1  0  0  0  0
 17 20  1  0  0  0  0
 20 21  1  0  0  0  0
 20 22  1  0  0  0  0
 20 23  1  0  0  0  0
 23 24  1  0  0  0  0
 23 25  1  0  0  0  0
 23 26  1  0  0  0  0
 26 27  1  0  0  0  0
 26 28  1  0  0  0  0
 26 29  1  0  0  0  0
M  END
> <VM2 Rank>
167

> <Conf_Id>
1311

> <Probability>
0.10

> <Sum Probability>
96.66

> <Delta G>
2.369

> <G>
60.517

> <E>
22.772

> <-TS>
37.744

> <U+W>
-1.372

> <U>
50.320

> <W>
-51.692

> <W(PB)>
-54.159

> <W(SA)>
2.467

> <Valence>
4.288

> <Coulomb>
44.897

> <VdW>
1.135

> <VdW6>
-9.608

> <VdW12>
10.744

> <Bond>
0.299

> <Angle>
1.449

> <Pdih>
2.539

> <Idih>
0.000

> <Tether>
0.000

$$$$
VeraChem MOL file


 29 28  0  0  0  0  0  0  0  0999 V2000     
   21.1781   18.5100   21.1148 C   0  0  0  0  0  0  0  0  0  0  0  0
   21.4163   19.2947   20.3852 H   0  0  0  0  0  0  0  0  0  0  0  0
   21.4981   18.8532   22.1065 H   0  0  0  0  0  0  0  0  0  0  0  0
   21.7751   17.6240   20.8631 H   0  0  0  0  0  0  0  0  0  0  0  0
   19.6705   18.1711   21.0930 C   0  0  0  0  0  0  0  0  0  0  0  0
   19.4531   17.3996   21.8436 H   0  0  0  0  0  0  0  0  0  0  0  0
   19.4232   17.7218   20.1211 H   0  0  0  0  0  0  0  0  0  0  0  0
   18.7579   19.4046   21.3121 C   0  0  0  0  0  0  0  0  0  0  0  0
   18.9022   20.1049   20.4779 H   0  0  0  0  0  0  0  0  0  0  0  0
   17.7089   19.0828   21.2562 H   0  0  0  0  0  0  0  0  0  0  0  0
   18.9806   20.1668   22.6439 C   0  0  0  0  0  0  0  0  0  0  0  0
   18.2919   21.0224   22.6708 H   0  0  0  0  0  0  0  0  0  0  0  0
   19.9922   20.5931   22.6663 H   0  0  0  0  0  0  0  0  0  0  0  0
   18.7513   19.2951   23.9015 C   0  0  0  0  0  0  0  0  0  0  0  0
   17.7526   18.8398   23.8546 H   0  0  0  0  0  0  0  0  0  0  0  0
   19.4779   18.4732   23.9147 H   0  0  0  0  0  0  0  0  0  0  0  0
   18.8815   20.1227   25.2025 C   0  0  0  0  0  0  0  0  0  0  0  0
   18.1778   20.9657   25.1653 H   0  0  0  0  0  0  0  0  0  0  0  0
   19.8848   20.5655   25.2618 H   0  0  0  0  0  0  0  0  0  0  0  0
   18.5931   19.2972   26.4814 C   0  0  0  0  0  0  0  0  0  0  0  0
   18.6610   19.9531   27.3594 H   0  0  0  0  0  0  0  0  0  0  0  0
   17.5576   18.9329   26.4509 H   0  0  0  0  0  0  0  0  0  0  0  0
   19.5355   18.0924   26.6779 C   0  0  0  0  0  0  0  0  0  0  0  0
   19.4403   17.4063   25.8324 H   0  0  0  0  0  0  0  0  0  0  0  0
   19.2515   17.5535   27.5858 H   0  0  0  0  0  0  0  0  0  0  0  0
   20.9955   18.4782   26.8079 N   0  3  0  0  0  0  0  0  0  0  0  0
   21.3322   18.9645   25.9710 H   0  0  0  0  0  0  0  0  0  0  0  0
   21.5961   17.6577   26.9437 H   0  0  0  0  0  0  0  0  0  0  0  0
   21.1538   19.1018   27.6062 H   0  0  0  0  0  0  0  0  0  0  0  0
  1  2  1  0  0  0  0
  1  3  1  0  0  0  0
  1  4  1  0  0  0  0
  1  5  1  0  0  0  0
  5  6  1  0  0  0  0
  5  7  1  0  0  0  0
  5  8  1  0  0  0  0
  8  9  1  0  0  0  0
  8 10  1  0  0  0  0
  8 11  1  0  0  0  0
 11 12  1  0  0  0  0
 11 13  1  0  0  0  0
 11 14  1  0  0  0  0
 14 15  1  0  0  0  0
 14 16  1  0  0  0  0
 14 17  1  0  0  0  0
 17 18  1  0  0  0  0
 17 19  1  0  0  0  0
 17 20  1  0  0  0  0
 20 21  1  0  0  0  0
 20 22  1  0  0  0  0
 20 23  1  0  0  0  0
 23 24  1  0  0  0  0
 23 25  1  0  0  0  0
 23 26  1  0  0  0  0
 26 27  1  0  0  0  0
 26 28  1  0  0  0  0
 26 29  1  0  0  0  0
M  END
> <VM2 Rank>
168

> <Conf_Id>
676

> <Probability>
0.10

> <Sum Probability>
96.76

> <Delta G>
2.379

> <G>
60.527

> <E>
22.617

> <-TS>
37.910

> <U+W>
-1.528

> <U>
50.684

> <W>
-52.212

> <W(PB)>
-54.660

> <W(SA)>
2.448

> <Valence>
3.913

> <Coulomb>
45.943

> <VdW>
0.829

> <VdW6>
-9.954

> <VdW12>
10.782

> <Bond>
0.272

> <Angle>
1.273

> <Pdih>
2.367

> <Idih>
0.000

> <Tether>
0.000

$$$$
VeraChem MOL file


 29 28  0  0  0  0  0  0  0  0999 V2000     
   20.2321   18.6039   19.7782 C   0  0  0  0  0  0  0  0  0  0  0  0
   21.1755   18.1199   20.0622 H   0  0  0  0  0  0  0  0  0  0  0  0
   19.4265   17.8642   19.8622 H   0  0  0  0  0  0  0  0  0  0  0  0
   20.3069   18.8903   18.7211 H   0  0  0  0  0  0  0  0  0  0  0  0
   19.9583   19.8461   20.6562 C   0  0  0  0  0  0  0  0  0  0  0  0
   18.9934   20.2917   20.3767 H   0  0  0  0  0  0  0  0  0  0  0  0
   20.7220   20.6060   20.4392 H   0  0  0  0  0  0  0  0  0  0  0  0
   19.9763   19.5459   22.1746 C   0  0  0  0  0  0  0  0  0  0  0  0
   20.9432   19.1021   22.4488 H   0  0  0  0  0  0  0  0  0  0  0  0
   19.9106   20.5021   22.7091 H   0  0  0  0  0  0  0  0  0  0  0  0
   18.8245   18.6155   22.6328 C   0  0  0  0  0  0  0  0  0  0  0  0
   18.8895   17.6618   22.0935 H   0  0  0  0  0  0  0  0  0  0  0  0
   17.8574   19.0597   22.3600 H   0  0  0  0  0  0  0  0  0  0  0  0
   18.8450   18.3078   24.1502 C   0  0  0  0  0  0  0  0  0  0  0  0
   18.0843   17.5430   24.3590 H   0  0  0  0  0  0  0  0  0  0  0  0
   19.8127   17.8612   24.4150 H   0  0  0  0  0  0  0  0  0  0  0  0
   18.5664   19.5474   25.0376 C   0  0  0  0  0  0  0  0  0  0  0  0
   17.6454   20.0376   24.6933 H   0  0  0  0  0  0  0  0  0  0  0  0
   19.3690   20.2863   24.9217 H   0  0  0  0  0  0  0  0  0  0  0  0
   18.4056   19.1936   26.5372 C   0  0  0  0  0  0  0  0  0  0  0  0
   18.1774   20.1064   27.1034 H   0  0  0  0  0  0  0  0  0  0  0  0
   17.5388   18.5312   26.6622 H   0  0  0  0  0  0  0  0  0  0  0  0
   19.6426   18.5112   27.1556 C   0  0  0  0  0  0  0  0  0  0  0  0
   19.8524   17.5776   26.6275 H   0  0  0  0  0  0  0  0  0  0  0  0
   19.4394   18.2709   28.2027 H   0  0  0  0  0  0  0  0  0  0  0  0
   20.8932   19.3666   27.1126 N   0  3  0  0  0  0  0  0  0  0  0  0
   20.7672   20.2492   27.6188 H   0  0  0  0  0  0  0  0  0  0  0  0
   21.1546   19.6026   26.1502 H   0  0  0  0  0  0  0  0  0  0  0  0
   21.6963   18.8891   27.5361 H   0  0  0  0  0  0  0  0  0  0  0  0
  1  2  1  0  0  0  0
  1  3  1  0  0  0  0
  1  4  1  0  0  0  0
  1  5  1  0  0  0  0
  5  6  1  0  0  0  0
  5  7  1  0  0  0  0
  5  8  1  0  0  0  0
  8  9  1  0  0  0  0
  8 10  1  0  0  0  0
  8 11  1  0  0  0  0
 11 12  1  0  0  0  0
 11 13  1  0  0  0  0
 11 14  1  0  0  0  0
 14 15  1  0  0  0  0
 14 16  1  0  0  0  0
 14 17  1  0  0  0  0
 17 18  1  0  0  0  0
 17 19  1  0  0  0  0
 17 20  1  0  0  0  0
 20 21  1  0  0  0  0
 20 22  1  0  0  0  0
 20 23  1  0  0  0  0
 23 24  1  0  0  0  0
 23 25  1  0  0  0  0
 23 26  1  0  0  0  0
 26 27  1  0  0  0  0
 26 28  1  0  0  0  0
 26 29  1  0  0  0  0
M  END
> <VM2 Rank>
169

> <Conf_Id>
646

> <Probability>
0.10

> <Sum Probability>
96.86

> <Delta G>
2.383

> <G>
60.531

> <E>
22.887

> <-TS>
37.644

> <U+W>
-1.257

> <U>
50.887

> <W>
-52.145

> <W(PB)>
-54.618

> <W(SA)>
2.473

> <Valence>
4.062

> <Coulomb>
45.799

> <VdW>
1.026

> <VdW6>
-9.554

> <VdW12>
10.580

> <Bond>
0.275

> <Angle>
1.140

> <Pdih>
2.648

> <Idih>
0.000

> <Tether>
0.000

$$$$
VeraChem MOL file


 29 28  0  0  0  0  0  0  0  0999 V2000     
   20.4097   19.1027   19.7893 C   0  0  0  0  0  0  0  0  0  0  0  0
   20.2519   20.1811   19.9139 H   0  0  0  0  0  0  0  0  0  0  0  0
   21.4426   18.8698   20.0789 H   0  0  0  0  0  0  0  0  0  0  0  0
   20.3015   18.8757   18.7208 H   0  0  0  0  0  0  0  0  0  0  0  0
   19.4000   18.2797   20.6212 C   0  0  0  0  0  0  0  0  0  0  0  0
   19.5145   17.2175   20.3635 H   0  0  0  0  0  0  0  0  0  0  0  0
   18.3747   18.5558   20.3380 H   0  0  0  0  0  0  0  0  0  0  0  0
   19.5824   18.4405   22.1499 C   0  0  0  0  0  0  0  0  0  0  0  0
   18.9194   17.7210   22.6470 H   0  0  0  0  0  0  0  0  0  0  0  0
   20.6081   18.1617   22.4278 H   0  0  0  0  0  0  0  0  0  0  0  0
   19.2719   19.8705   22.6608 C   0  0  0  0  0  0  0  0  0  0  0  0
   18.2457   20.1489   22.3843 H   0  0  0  0  0  0  0  0  0  0  0  0
   19.9327   20.5887   22.1588 H   0  0  0  0  0  0  0  0  0  0  0  0
   19.4608   20.0354   24.1888 C   0  0  0  0  0  0  0  0  0  0  0  0
   20.4891   19.7587   24.4574 H   0  0  0  0  0  0  0  0  0  0  0  0
   19.3521   21.0999   24.4384 H   0  0  0  0  0  0  0  0  0  0  0  0
   18.4488   19.2172   25.0302 C   0  0  0  0  0  0  0  0  0  0  0  0
   18.6050   18.1426   24.8738 H   0  0  0  0  0  0  0  0  0  0  0  0
   17.4303   19.4338   24.6798 H   0  0  0  0  0  0  0  0  0  0  0  0
   18.5266   19.5332   26.5448 C   0  0  0  0  0  0  0  0  0  0  0  0
   18.2721   20.5889   26.7081 H   0  0  0  0  0  0  0  0  0  0  0  0
   17.7647   18.9489   27.0775 H   0  0  0  0  0  0  0  0  0  0  0  0
   19.9075   19.2548   27.1723 C   0  0  0  0  0  0  0  0  0  0  0  0
   19.8872   19.5277   28.2308 H   0  0  0  0  0  0  0  0  0  0  0  0
   20.6678   19.8654   26.6786 H   0  0  0  0  0  0  0  0  0  0  0  0
   20.3362   17.8040   27.0777 N   0  3  0  0  0  0  0  0  0  0  0  0
   19.6734   17.1806   27.5503 H   0  0  0  0  0  0  0  0  0  0  0  0
   21.2542   17.6489   27.5085 H   0  0  0  0  0  0  0  0  0  0  0  0
   20.4031   17.4942   26.1032 H   0  0  0  0  0  0  0  0  0  0  0  0
  1  2  1  0  0  0  0
  1  3  1  0  0  0  0
  1  4  1  0  0  0  0
  1  5  1  0  0  0  0
  5  6  1  0  0  0  0
  5  7  1  0  0  0  0
  5  8  1  0  0  0  0
  8  9  1  0  0  0  0
  8 10  1  0  0  0  0
  8 11  1  0  0  0  0
 11 12  1  0  0  0  0
 11 13  1  0  0  0  0
 11 14  1  0  0  0  0
 14 15  1  0  0  0  0
 14 16  1  0  0  0  0
 14 17  1  0  0  0  0
 17 18  1  0  0  0  0
 17 19  1  0  0  0  0
 17 20  1  0  0  0  0
 20 21  1  0  0  0  0
 20 22  1  0  0  0  0
 20 23  1  0  0  0  0
 23 24  1  0  0  0  0
 23 25  1  0  0  0  0
 23 26  1  0  0  0  0
 26 27  1  0  0  0  0
 26 28  1  0  0  0  0
 26 29  1  0  0  0  0
M  END
> <VM2 Rank>
170

> <Conf_Id>
284

> <Probability>
0.10

> <Sum Probability>
96.96

> <Delta G>
2.387

> <G>
60.535

> <E>
22.891

> <-TS>
37.644

> <U+W>
-1.254

> <U>
50.887

> <W>
-52.141

> <W(PB)>
-54.601

> <W(SA)>
2.460

> <Valence>
4.062

> <Coulomb>
45.799

> <VdW>
1.026

> <VdW6>
-9.554

> <VdW12>
10.580

> <Bond>
0.275

> <Angle>
1.140

> <Pdih>
2.648

> <Idih>
0.000

> <Tether>
0.000

$$$$
VeraChem MOL file


 29 28  0  0  0  0  0  0  0  0999 V2000     
   20.6203   17.9996   20.7870 C   0  0  0  0  0  0  0  0  0  0  0  0
   20.9274   16.9549   20.6493 H   0  0  0  0  0  0  0  0  0  0  0  0
   20.6014   18.4777   19.7990 H   0  0  0  0  0  0  0  0  0  0  0  0
   21.3897   18.4937   21.3932 H   0  0  0  0  0  0  0  0  0  0  0  0
   19.2334   18.0717   21.4645 C   0  0  0  0  0  0  0  0  0  0  0  0
   19.2795   17.5991   22.4547 H   0  0  0  0  0  0  0  0  0  0  0  0
   18.5217   17.4739   20.8783 H   0  0  0  0  0  0  0  0  0  0  0  0
   18.6835   19.5156   21.5855 C   0  0  0  0  0  0  0  0  0  0  0  0
   18.5496   19.9290   20.5765 H   0  0  0  0  0  0  0  0  0  0  0  0
   17.6773   19.4783   22.0234 H   0  0  0  0  0  0  0  0  0  0  0  0
   19.5675   20.4926   22.4067 C   0  0  0  0  0  0  0  0  0  0  0  0
   19.0670   21.4698   22.4463 H   0  0  0  0  0  0  0  0  0  0  0  0
   20.5100   20.6665   21.8706 H   0  0  0  0  0  0  0  0  0  0  0  0
   19.8900   20.0350   23.8523 C   0  0  0  0  0  0  0  0  0  0  0  0
   20.4853   19.1135   23.8220 H   0  0  0  0  0  0  0  0  0  0  0  0
   20.5309   20.7945   24.3206 H   0  0  0  0  0  0  0  0  0  0  0  0
   18.6284   19.8301   24.7281 C   0  0  0  0  0  0  0  0  0  0  0  0
   18.0160   19.0136   24.3230 H   0  0  0  0  0  0  0  0  0  0  0  0
   18.0087   20.7363   24.6861 H   0  0  0  0  0  0  0  0  0  0  0  0
   18.9635   19.5239   26.2064 C   0  0  0  0  0  0  0  0  0  0  0  0
   19.5508   20.3491   26.6308 H   0  0  0  0  0  0  0  0  0  0  0  0
   18.0291   19.4746   26.7811 H   0  0  0  0  0  0  0  0  0  0  0  0
   19.7310   18.1997   26.3779 C   0  0  0  0  0  0  0  0  0  0  0  0
   20.6838   18.2523   25.8450 H   0  0  0  0  0  0  0  0  0  0  0  0
   19.1453   17.3779   25.9571 H   0  0  0  0  0  0  0  0  0  0  0  0
   20.0264   17.8699   27.8266 N   0  3  0  0  0  0  0  0  0  0  0  0
   20.5983   18.5940   28.2739 H   0  0  0  0  0  0  0  0  0  0  0  0
   20.5375   16.9851   27.9195 H   0  0  0  0  0  0  0  0  0  0  0  0
   19.1679   17.7785   28.3800 H   0  0  0  0  0  0  0  0  0  0  0  0
  1  2  1  0  0  0  0
  1  3  1  0  0  0  0
  1  4  1  0  0  0  0
  1  5  1  0  0  0  0
  5  6  1  0  0  0  0
  5  7  1  0  0  0  0
  5  8  1  0  0  0  0
  8  9  1  0  0  0  0
  8 10  1  0  0  0  0
  8 11  1  0  0  0  0
 11 12  1  0  0  0  0
 11 13  1  0  0  0  0
 11 14  1  0  0  0  0
 14 15  1  0  0  0  0
 14 16  1  0  0  0  0
 14 17  1  0  0  0  0
 17 18  1  0  0  0  0
 17 19  1  0  0  0  0
 17 20  1  0  0  0  0
 20 21  1  0  0  0  0
 20 22  1  0  0  0  0
 20 23  1  0  0  0  0
 23 24  1  0  0  0  0
 23 25  1  0  0  0  0
 23 26  1  0  0  0  0
 26 27  1  0  0  0  0
 26 28  1  0  0  0  0
 26 29  1  0  0  0  0
M  END
> <VM2 Rank>
171

> <Conf_Id>
1932

> <Probability>
0.10

> <Sum Probability>
97.06

> <Delta G>
2.398

> <G>
60.546

> <E>
22.479

> <-TS>
38.067

> <U+W>
-1.666

> <U>
50.365

> <W>
-52.031

> <W(PB)>
-54.487

> <W(SA)>
2.456

> <Valence>
4.264

> <Coulomb>
45.392

> <VdW>
0.709

> <VdW6>
-10.226

> <VdW12>
10.935

> <Bond>
0.291

> <Angle>
1.460

> <Pdih>
2.514

> <Idih>
0.000

> <Tether>
0.000

$$$$
VeraChem MOL file


 29 28  0  0  0  0  0  0  0  0999 V2000     
   20.9007   17.7960   21.6745 C   0  0  0  0  0  0  0  0  0  0  0  0
   21.7790   18.3827   21.3756 H   0  0  0  0  0  0  0  0  0  0  0  0
   20.8686   17.7582   22.7703 H   0  0  0  0  0  0  0  0  0  0  0  0
   21.0429   16.7696   21.3125 H   0  0  0  0  0  0  0  0  0  0  0  0
   19.6042   18.4012   21.0903 C   0  0  0  0  0  0  0  0  0  0  0  0
   18.7387   17.8110   21.4199 H   0  0  0  0  0  0  0  0  0  0  0  0
   19.6320   18.3076   19.9958 H   0  0  0  0  0  0  0  0  0  0  0  0
   19.4030   19.8950   21.4521 C   0  0  0  0  0  0  0  0  0  0  0  0
   20.2173   20.4812   21.0046 H   0  0  0  0  0  0  0  0  0  0  0  0
   18.4789   20.2531   20.9778 H   0  0  0  0  0  0  0  0  0  0  0  0
   19.3439   20.2046   22.9700 C   0  0  0  0  0  0  0  0  0  0  0  0
   19.2187   21.2884   23.0987 H   0  0  0  0  0  0  0  0  0  0  0  0
   20.3071   19.9533   23.4313 H   0  0  0  0  0  0  0  0  0  0  0  0
   18.1914   19.4734   23.7030 C   0  0  0  0  0  0  0  0  0  0  0  0
   17.2499   19.6669   23.1710 H   0  0  0  0  0  0  0  0  0  0  0  0
   18.3466   18.3878   23.6612 H   0  0  0  0  0  0  0  0  0  0  0  0
   18.0210   19.9158   25.1791 C   0  0  0  0  0  0  0  0  0  0  0  0
   17.1640   19.3802   25.6106 H   0  0  0  0  0  0  0  0  0  0  0  0
   17.7567   20.9819   25.2081 H   0  0  0  0  0  0  0  0  0  0  0  0
   19.2622   19.6803   26.0755 C   0  0  0  0  0  0  0  0  0  0  0  0
   20.0919   20.3169   25.7428 H   0  0  0  0  0  0  0  0  0  0  0  0
   19.0243   19.9960   27.0999 H   0  0  0  0  0  0  0  0  0  0  0  0
   19.7130   18.2079   26.0938 C   0  0  0  0  0  0  0  0  0  0  0  0
   19.9876   17.8938   25.0835 H   0  0  0  0  0  0  0  0  0  0  0  0
   18.8910   17.5757   26.4404 H   0  0  0  0  0  0  0  0  0  0  0  0
   20.9047   17.9638   26.9966 N   0  3  0  0  0  0  0  0  0  0  0  0
   21.7217   18.5116   26.7072 H   0  0  0  0  0  0  0  0  0  0  0  0
   21.1887   16.9780   26.9944 H   0  0  0  0  0  0  0  0  0  0  0  0
   20.7028   18.2142   27.9703 H   0  0  0  0  0  0  0  0  0  0  0  0
  1  2  1  0  0  0  0
  1  3  1  0  0  0  0
  1  4  1  0  0  0  0
  1  5  1  0  0  0  0
  5  6  1  0  0  0  0
  5  7  1  0  0  0  0
  5  8  1  0  0  0  0
  8  9  1  0  0  0  0
  8 10  1  0  0  0  0
  8 11  1  0  0  0  0
 11 12  1  0  0  0  0
 11 13  1  0  0  0  0
 11 14  1  0  0  0  0
 14 15  1  0  0  0  0
 14 16  1  0  0  0  0
 14 17  1  0  0  0  0
 17 18  1  0  0  0  0
 17 19  1  0  0  0  0
 17 20  1  0  0  0  0
 20 21  1  0  0  0  0
 20 22  1  0  0  0  0
 20 23  1  0  0  0  0
 23 24  1  0  0  0  0
 23 25  1  0  0  0  0
 23 26  1  0  0  0  0
 26 27  1  0  0  0  0
 26 28  1  0  0  0  0
 26 29  1  0  0  0  0
M  END
> <VM2 Rank>
172

> <Conf_Id>
2283

> <Probability>
0.10

> <Sum Probability>
97.15

> <Delta G>
2.402

> <G>
60.550

> <E>
22.500

> <-TS>
38.050

> <U+W>
-1.645

> <U>
50.968

> <W>
-52.613

> <W(PB)>
-55.012

> <W(SA)>
2.399

> <Valence>
4.230

> <Coulomb>
46.141

> <VdW>
0.598

> <VdW6>
-10.516

> <VdW12>
11.114

> <Bond>
0.292

> <Angle>
1.459

> <Pdih>
2.478

> <Idih>
0.000

> <Tether>
0.000

$$$$
VeraChem MOL file


 29 28  0  0  0  0  0  0  0  0999 V2000     
   20.5549   19.2705   19.9211 C   0  0  0  0  0  0  0  0  0  0  0  0
   20.2897   19.9387   19.0916 H   0  0  0  0  0  0  0  0  0  0  0  0
   21.5036   19.6218   20.3473 H   0  0  0  0  0  0  0  0  0  0  0  0
   20.7168   18.2669   19.5067 H   0  0  0  0  0  0  0  0  0  0  0  0
   19.4396   19.2572   20.9878 C   0  0  0  0  0  0  0  0  0  0  0  0
   18.4972   18.9308   20.5264 H   0  0  0  0  0  0  0  0  0  0  0  0
   19.2796   20.2817   21.3491 H   0  0  0  0  0  0  0  0  0  0  0  0
   19.7926   18.3242   22.1698 C   0  0  0  0  0  0  0  0  0  0  0  0
   20.0148   17.3219   21.7785 H   0  0  0  0  0  0  0  0  0  0  0  0
   20.7153   18.6710   22.6530 H   0  0  0  0  0  0  0  0  0  0  0  0
   18.6581   18.1979   23.2191 C   0  0  0  0  0  0  0  0  0  0  0  0
   18.9621   17.4727   23.9855 H   0  0  0  0  0  0  0  0  0  0  0  0
   17.7743   17.7606   22.7347 H   0  0  0  0  0  0  0  0  0  0  0  0
   18.2408   19.5264   23.9053 C   0  0  0  0  0  0  0  0  0  0  0  0
   17.7797   20.1900   23.1620 H   0  0  0  0  0  0  0  0  0  0  0  0
   17.4454   19.3121   24.6316 H   0  0  0  0  0  0  0  0  0  0  0  0
   19.3902   20.2918   24.6143 C   0  0  0  0  0  0  0  0  0  0  0  0
   18.9754   21.1994   25.0741 H   0  0  0  0  0  0  0  0  0  0  0  0
   20.1140   20.6428   23.8668 H   0  0  0  0  0  0  0  0  0  0  0  0
   20.1372   19.4782   25.7000 C   0  0  0  0  0  0  0  0  0  0  0  0
   20.6542   18.6257   25.2416 H   0  0  0  0  0  0  0  0  0  0  0  0
   20.9177   20.1110   26.1427 H   0  0  0  0  0  0  0  0  0  0  0  0
   19.2012   18.9780   26.8156 C   0  0  0  0  0  0  0  0  0  0  0  0
   18.4420   18.3162   26.3908 H   0  0  0  0  0  0  0  0  0  0  0  0
   18.6960   19.8286   27.2810 H   0  0  0  0  0  0  0  0  0  0  0  0
   19.9295   18.2139   27.9021 N   0  3  0  0  0  0  0  0  0  0  0  0
   20.4052   17.3843   27.5322 H   0  0  0  0  0  0  0  0  0  0  0  0
   19.2885   17.8897   28.6346 H   0  0  0  0  0  0  0  0  0  0  0  0
   20.6416   18.7907   28.3621 H   0  0  0  0  0  0  0  0  0  0  0  0
  1  2  1  0  0  0  0
  1  3  1  0  0  0  0
  1  4  1  0  0  0  0
  1  5  1  0  0  0  0
  5  6  1  0  0  0  0
  5  7  1  0  0  0  0
  5  8  1  0  0  0  0
  8  9  1  0  0  0  0
  8 10  1  0  0  0  0
  8 11  1  0  0  0  0
 11 12  1  0  0  0  0
 11 13  1  0  0  0  0
 11 14  1  0  0  0  0
 14 15  1  0  0  0  0
 14 16  1  0  0  0  0
 14 17  1  0  0  0  0
 17 18  1  0  0  0  0
 17 19  1  0  0  0  0
 17 20  1  0  0  0  0
 20 21  1  0  0  0  0
 20 22  1  0  0  0  0
 20 23  1  0  0  0  0
 23 24  1  0  0  0  0
 23 25  1  0  0  0  0
 23 26  1  0  0  0  0
 26 27  1  0  0  0  0
 26 28  1  0  0  0  0
 26 29  1  0  0  0  0
M  END
> <VM2 Rank>
173

> <Conf_Id>
684

> <Probability>
0.10

> <Sum Probability>
97.25

> <Delta G>
2.404

> <G>
60.552

> <E>
22.366

> <-TS>
38.186

> <U+W>
-1.779

> <U>
50.384

> <W>
-52.163

> <W(PB)>
-54.622

> <W(SA)>
2.459

> <Valence>
4.248

> <Coulomb>
45.544

> <VdW>
0.592

> <VdW6>
-10.476

> <VdW12>
11.067

> <Bond>
0.300

> <Angle>
1.566

> <Pdih>
2.382

> <Idih>
0.000

> <Tether>
0.000

$$$$
VeraChem MOL file


 29 28  0  0  0  0  0  0  0  0999 V2000     
   19.8127   19.5342   19.8241 C   0  0  0  0  0  0  0  0  0  0  0  0
   20.0752   20.2569   19.0407 H   0  0  0  0  0  0  0  0  0  0  0  0
   20.2221   18.5586   19.5315 H   0  0  0  0  0  0  0  0  0  0  0  0
   18.7188   19.4560   19.8461 H   0  0  0  0  0  0  0  0  0  0  0  0
   20.3787   19.9875   21.1890 C   0  0  0  0  0  0  0  0  0  0  0  0
   19.9281   20.9478   21.4762 H   0  0  0  0  0  0  0  0  0  0  0  0
   21.4560   20.1743   21.0789 H   0  0  0  0  0  0  0  0  0  0  0  0
   20.1691   18.9517   22.3198 C   0  0  0  0  0  0  0  0  0  0  0  0
   20.6227   17.9941   22.0296 H   0  0  0  0  0  0  0  0  0  0  0  0
   20.7182   19.3006   23.2036 H   0  0  0  0  0  0  0  0  0  0  0  0
   18.6797   18.7347   22.6893 C   0  0  0  0  0  0  0  0  0  0  0  0
   18.1302   18.3929   21.8029 H   0  0  0  0  0  0  0  0  0  0  0  0
   18.2247   19.6918   22.9757 H   0  0  0  0  0  0  0  0  0  0  0  0
   18.4644   17.6872   23.8126 C   0  0  0  0  0  0  0  0  0  0  0  0
   17.3849   17.5669   23.9779 H   0  0  0  0  0  0  0  0  0  0  0  0
   18.8244   16.7102   23.4618 H   0  0  0  0  0  0  0  0  0  0  0  0
   19.1449   18.0116   25.1677 C   0  0  0  0  0  0  0  0  0  0  0  0
   20.2355   17.9957   25.0479 H   0  0  0  0  0  0  0  0  0  0  0  0
   18.9074   17.2048   25.8749 H   0  0  0  0  0  0  0  0  0  0  0  0
   18.6939   19.3622   25.7771 C   0  0  0  0  0  0  0  0  0  0  0  0
   19.0093   20.1957   25.1367 H   0  0  0  0  0  0  0  0  0  0  0  0
   17.5971   19.3939   25.8194 H   0  0  0  0  0  0  0  0  0  0  0  0
   19.2447   19.5828   27.1988 C   0  0  0  0  0  0  0  0  0  0  0  0
   18.9363   18.7569   27.8455 H   0  0  0  0  0  0  0  0  0  0  0  0
   18.8327   20.5092   27.6083 H   0  0  0  0  0  0  0  0  0  0  0  0
   20.7560   19.6863   27.2565 N   0  3  0  0  0  0  0  0  0  0  0  0
   21.1062   20.4625   26.6856 H   0  0  0  0  0  0  0  0  0  0  0  0
   21.2073   18.8312   26.9168 H   0  0  0  0  0  0  0  0  0  0  0  0
   21.0903   19.8429   28.2137 H   0  0  0  0  0  0  0  0  0  0  0  0
  1  2  1  0  0  0  0
  1  3  1  0  0  0  0
  1  4  1  0  0  0  0
  1  5  1  0  0  0  0
  5  6  1  0  0  0  0
  5  7  1  0  0  0  0
  5  8  1  0  0  0  0
  8  9  1  0  0  0  0
  8 10  1  0  0  0  0
  8 11  1  0  0  0  0
 11 12  1  0  0  0  0
 11 13  1  0  0  0  0
 11 14  1  0  0  0  0
 14 15  1  0  0  0  0
 14 16  1  0  0  0  0
 14 17  1  0  0  0  0
 17 18  1  0  0  0  0
 17 19  1  0  0  0  0
 17 20  1  0  0  0  0
 20 21  1  0  0  0  0
 20 22  1  0  0  0  0
 20 23  1  0  0  0  0
 23 24  1  0  0  0  0
 23 25  1  0  0  0  0
 23 26  1  0  0  0  0
 26 27  1  0  0  0  0
 26 28  1  0  0  0  0
 26 29  1  0  0  0  0
M  END
> <VM2 Rank>
174

> <Conf_Id>
2444

> <Probability>
0.09

> <Sum Probability>
97.34

> <Delta G>
2.422

> <G>
60.570

> <E>
22.750

> <-TS>
37.820

> <U+W>
-1.395

> <U>
50.985

> <W>
-52.380

> <W(PB)>
-54.815

> <W(SA)>
2.435

> <Valence>
4.232

> <Coulomb>
45.770

> <VdW>
0.982

> <VdW6>
-9.806

> <VdW12>
10.788

> <Bond>
0.294

> <Angle>
1.395

> <Pdih>
2.544

> <Idih>
0.000

> <Tether>
0.000

$$$$
VeraChem MOL file


 29 28  0  0  0  0  0  0  0  0999 V2000     
   19.4962   18.6464   19.8043 C   0  0  0  0  0  0  0  0  0  0  0  0
   18.6982   19.3978   19.8447 H   0  0  0  0  0  0  0  0  0  0  0  0
   20.4346   19.1536   19.5450 H   0  0  0  0  0  0  0  0  0  0  0  0
   19.2537   17.9524   18.9891 H   0  0  0  0  0  0  0  0  0  0  0  0
   19.6281   17.8835   21.1419 C   0  0  0  0  0  0  0  0  0  0  0  0
   20.3458   17.0618   21.0094 H   0  0  0  0  0  0  0  0  0  0  0  0
   18.6676   17.4144   21.3970 H   0  0  0  0  0  0  0  0  0  0  0  0
   20.1050   18.7723   22.3159 C   0  0  0  0  0  0  0  0  0  0  0  0
   20.2968   18.1200   23.1774 H   0  0  0  0  0  0  0  0  0  0  0  0
   21.0662   19.2375   22.0577 H   0  0  0  0  0  0  0  0  0  0  0  0
   19.0838   19.8677   22.7146 C   0  0  0  0  0  0  0  0  0  0  0  0
   18.1219   19.4039   22.9693 H   0  0  0  0  0  0  0  0  0  0  0  0
   18.8871   20.5148   21.8503 H   0  0  0  0  0  0  0  0  0  0  0  0
   19.5638   20.7696   23.8815 C   0  0  0  0  0  0  0  0  0  0  0  0
   20.4655   21.3116   23.5646 H   0  0  0  0  0  0  0  0  0  0  0  0
   18.8016   21.5390   24.0667 H   0  0  0  0  0  0  0  0  0  0  0  0
   19.8664   20.0346   25.2129 C   0  0  0  0  0  0  0  0  0  0  0  0
   20.1829   20.7809   25.9548 H   0  0  0  0  0  0  0  0  0  0  0  0
   20.7227   19.3618   25.0784 H   0  0  0  0  0  0  0  0  0  0  0  0
   18.6543   19.2510   25.7747 C   0  0  0  0  0  0  0  0  0  0  0  0
   17.7843   19.9186   25.8312 H   0  0  0  0  0  0  0  0  0  0  0  0
   18.3803   18.4321   25.0973 H   0  0  0  0  0  0  0  0  0  0  0  0
   18.9212   18.6756   27.1786 C   0  0  0  0  0  0  0  0  0  0  0  0
   18.0104   18.2035   27.5568 H   0  0  0  0  0  0  0  0  0  0  0  0
   19.1957   19.4839   27.8617 H   0  0  0  0  0  0  0  0  0  0  0  0
   20.0252   17.6372   27.2106 N   0  3  0  0  0  0  0  0  0  0  0  0
   19.8133   16.8379   26.6046 H   0  0  0  0  0  0  0  0  0  0  0  0
   20.1715   17.2667   28.1561 H   0  0  0  0  0  0  0  0  0  0  0  0
   20.9203   18.0266   26.8986 H   0  0  0  0  0  0  0  0  0  0  0  0
  1  2  1  0  0  0  0
  1  3  1  0  0  0  0
  1  4  1  0  0  0  0
  1  5  1  0  0  0  0
  5  6  1  0  0  0  0
  5  7  1  0  0  0  0
  5  8  1  0  0  0  0
  8  9  1  0  0  0  0
  8 10  1  0  0  0  0
  8 11  1  0  0  0  0
 11 12  1  0  0  0  0
 11 13  1  0  0  0  0
 11 14  1  0  0  0  0
 14 15  1  0  0  0  0
 14 16  1  0  0  0  0
 14 17  1  0  0  0  0
 17 18  1  0  0  0  0
 17 19  1  0  0  0  0
 17 20  1  0  0  0  0
 20 21  1  0  0  0  0
 20 22  1  0  0  0  0
 20 23  1  0  0  0  0
 23 24  1  0  0  0  0
 23 25  1  0  0  0  0
 23 26  1  0  0  0  0
 26 27  1  0  0  0  0
 26 28  1  0  0  0  0
 26 29  1  0  0  0  0
M  END
> <VM2 Rank>
175

> <Conf_Id>
2010

> <Probability>
0.09

> <Sum Probability>
97.43

> <Delta G>
2.426

> <G>
60.574

> <E>
22.754

> <-TS>
37.820

> <U+W>
-1.391

> <U>
50.985

> <W>
-52.376

> <W(PB)>
-54.819

> <W(SA)>
2.443

> <Valence>
4.233

> <Coulomb>
45.770

> <VdW>
0.982

> <VdW6>
-9.806

> <VdW12>
10.788

> <Bond>
0.294

> <Angle>
1.395

> <Pdih>
2.544

> <Idih>
0.000

> <Tether>
0.000

$$$$
VeraChem MOL file


 29 28  0  0  0  0  0  0  0  0999 V2000     
   21.1830   18.5235   21.1155 C   0  0  0  0  0  0  0  0  0  0  0  0
   21.1997   18.0166   22.0883 H   0  0  0  0  0  0  0  0  0  0  0  0
   20.8817   17.7944   20.3523 H   0  0  0  0  0  0  0  0  0  0  0  0
   22.2093   18.8412   20.8906 H   0  0  0  0  0  0  0  0  0  0  0  0
   20.2301   19.7400   21.1278 C   0  0  0  0  0  0  0  0  0  0  0  0
   20.3364   20.2821   20.1779 H   0  0  0  0  0  0  0  0  0  0  0  0
   20.5389   20.4448   21.9112 H   0  0  0  0  0  0  0  0  0  0  0  0
   18.7400   19.3542   21.3108 C   0  0  0  0  0  0  0  0  0  0  0  0
   18.1319   20.2688   21.2822 H   0  0  0  0  0  0  0  0  0  0  0  0
   18.4207   18.7540   20.4477 H   0  0  0  0  0  0  0  0  0  0  0  0
   18.4116   18.5714   22.6083 C   0  0  0  0  0  0  0  0  0  0  0  0
   18.9250   17.6008   22.5998 H   0  0  0  0  0  0  0  0  0  0  0  0
   17.3366   18.3442   22.6112 H   0  0  0  0  0  0  0  0  0  0  0  0
   18.7678   19.3412   23.9024 C   0  0  0  0  0  0  0  0  0  0  0  0
   19.8501   19.5165   23.9378 H   0  0  0  0  0  0  0  0  0  0  0  0
   18.2833   20.3272   23.8873 H   0  0  0  0  0  0  0  0  0  0  0  0
   18.3263   18.5678   25.1678 C   0  0  0  0  0  0  0  0  0  0  0  0
   18.8216   17.5880   25.1955 H   0  0  0  0  0  0  0  0  0  0  0  0
   17.2485   18.3630   25.1073 H   0  0  0  0  0  0  0  0  0  0  0  0
   18.6077   19.3383   26.4821 C   0  0  0  0  0  0  0  0  0  0  0  0
   18.0376   20.2768   26.4804 H   0  0  0  0  0  0  0  0  0  0  0  0
   18.2323   18.7538   27.3326 H   0  0  0  0  0  0  0  0  0  0  0  0
   20.0971   19.6648   26.7128 C   0  0  0  0  0  0  0  0  0  0  0  0
   20.2057   20.2257   27.6451 H   0  0  0  0  0  0  0  0  0  0  0  0
   20.4701   20.2885   25.8964 H   0  0  0  0  0  0  0  0  0  0  0  0
   20.9805   18.4368   26.8074 N   0  3  0  0  0  0  0  0  0  0  0  0
   20.6967   17.8233   27.5783 H   0  0  0  0  0  0  0  0  0  0  0  0
   21.9630   18.6853   26.9672 H   0  0  0  0  0  0  0  0  0  0  0  0
   20.9450   17.8805   25.9475 H   0  0  0  0  0  0  0  0  0  0  0  0
  1  2  1  0  0  0  0
  1  3  1  0  0  0  0
  1  4  1  0  0  0  0
  1  5  1  0  0  0  0
  5  6  1  0  0  0  0
  5  7  1  0  0  0  0
  5  8  1  0  0  0  0
  8  9  1  0  0  0  0
  8 10  1  0  0  0  0
  8 11  1  0  0  0  0
 11 12  1  0  0  0  0
 11 13  1  0  0  0  0
 11 14  1  0  0  0  0
 14 15  1  0  0  0  0
 14 16  1  0  0  0  0
 14 17  1  0  0  0  0
 17 18  1  0  0  0  0
 17 19  1  0  0  0  0
 17 20  1  0  0  0  0
 20 21  1  0  0  0  0
 20 22  1  0  0  0  0
 20 23  1  0  0  0  0
 23 24  1  0  0  0  0
 23 25  1  0  0  0  0
 23 26  1  0  0  0  0
 26 27  1  0  0  0  0
 26 28  1  0  0  0  0
 26 29  1  0  0  0  0
M  END
> <VM2 Rank>
176

> <Conf_Id>
1689

> <Probability>
0.09

> <Sum Probability>
97.52

> <Delta G>
2.444

> <G>
60.592

> <E>
22.682

> <-TS>
37.910

> <U+W>
-1.463

> <U>
50.684

> <W>
-52.146

> <W(PB)>
-54.567

> <W(SA)>
2.421

> <Valence>
3.913

> <Coulomb>
45.942

> <VdW>
0.829

> <VdW6>
-9.954

> <VdW12>
10.782

> <Bond>
0.272

> <Angle>
1.273

> <Pdih>
2.367

> <Idih>
0.000

> <Tether>
0.000

$$$$
VeraChem MOL file


 29 28  0  0  0  0  0  0  0  0999 V2000     
   20.6498   18.4097   20.3810 C   0  0  0  0  0  0  0  0  0  0  0  0
   20.0121   18.1681   19.5208 H   0  0  0  0  0  0  0  0  0  0  0  0
   21.6772   18.5315   20.0144 H   0  0  0  0  0  0  0  0  0  0  0  0
   20.6421   17.5528   21.0660 H   0  0  0  0  0  0  0  0  0  0  0  0
   20.1687   19.6996   21.0830 C   0  0  0  0  0  0  0  0  0  0  0  0
   20.2958   20.5460   20.3938 H   0  0  0  0  0  0  0  0  0  0  0  0
   20.8131   19.9146   21.9459 H   0  0  0  0  0  0  0  0  0  0  0  0
   18.6845   19.6407   21.5248 C   0  0  0  0  0  0  0  0  0  0  0  0
   18.4031   20.6085   21.9604 H   0  0  0  0  0  0  0  0  0  0  0  0
   18.0542   19.5268   20.6323 H   0  0  0  0  0  0  0  0  0  0  0  0
   18.3368   18.5037   22.5233 C   0  0  0  0  0  0  0  0  0  0  0  0
   18.4458   17.5345   22.0186 H   0  0  0  0  0  0  0  0  0  0  0  0
   17.2727   18.5805   22.7855 H   0  0  0  0  0  0  0  0  0  0  0  0
   19.1744   18.4850   23.8280 C   0  0  0  0  0  0  0  0  0  0  0  0
   18.8528   17.6204   24.4232 H   0  0  0  0  0  0  0  0  0  0  0  0
   20.2323   18.3116   23.5908 H   0  0  0  0  0  0  0  0  0  0  0  0
   19.0310   19.7763   24.6725 C   0  0  0  0  0  0  0  0  0  0  0  0
   17.9713   19.9536   24.9022 H   0  0  0  0  0  0  0  0  0  0  0  0
   19.3719   20.6394   24.0862 H   0  0  0  0  0  0  0  0  0  0  0  0
   19.8444   19.7339   25.9874 C   0  0  0  0  0  0  0  0  0  0  0  0
   20.9056   19.5669   25.7596 H   0  0  0  0  0  0  0  0  0  0  0  0
   19.7785   20.7142   26.4779 H   0  0  0  0  0  0  0  0  0  0  0  0
   19.3465   18.6508   26.9627 C   0  0  0  0  0  0  0  0  0  0  0  0
   19.4507   17.6636   26.5054 H   0  0  0  0  0  0  0  0  0  0  0  0
   18.2896   18.8167   27.1883 H   0  0  0  0  0  0  0  0  0  0  0  0
   20.1079   18.6383   28.2723 N   0  3  0  0  0  0  0  0  0  0  0  0
   21.1078   18.4603   28.1309 H   0  0  0  0  0  0  0  0  0  0  0  0
   19.7614   17.9109   28.9075 H   0  0  0  0  0  0  0  0  0  0  0  0
   20.0275   19.5317   28.7691 H   0  0  0  0  0  0  0  0  0  0  0  0
  1  2  1  0  0  0  0
  1  3  1  0  0  0  0
  1  4  1  0  0  0  0
  1  5  1  0  0  0  0
  5  6  1  0  0  0  0
  5  7  1  0  0  0  0
  5  8  1  0  0  0  0
  8  9  1  0  0  0  0
  8 10  1  0  0  0  0
  8 11  1  0  0  0  0
 11 12  1  0  0  0  0
 11 13  1  0  0  0  0
 11 14  1  0  0  0  0
 14 15  1  0  0  0  0
 14 16  1  0  0  0  0
 14 17  1  0  0  0  0
 17 18  1  0  0  0  0
 17 19  1  0  0  0  0
 17 20  1  0  0  0  0
 20 21  1  0  0  0  0
 20 22  1  0  0  0  0
 20 23  1  0  0  0  0
 23 24  1  0  0  0  0
 23 25  1  0  0  0  0
 23 26  1  0  0  0  0
 26 27  1  0  0  0  0
 26 28  1  0  0  0  0
 26 29  1  0  0  0  0
M  END
> <VM2 Rank>
177

> <Conf_Id>
602

> <Probability>
0.08

> <Sum Probability>
97.60

> <Delta G>
2.507

> <G>
60.655

> <E>
22.607

> <-TS>
38.048

> <U+W>
-1.537

> <U>
50.223

> <W>
-51.761

> <W(PB)>
-54.216

> <W(SA)>
2.455

> <Valence>
4.334

> <Coulomb>
45.055

> <VdW>
0.835

> <VdW6>
-10.074

> <VdW12>
10.909

> <Bond>
0.297

> <Angle>
1.541

> <Pdih>
2.496

> <Idih>
0.000

> <Tether>
0.000

$$$$
VeraChem MOL file


 29 28  0  0  0  0  0  0  0  0999 V2000     
   20.8476   18.9652   20.3932 C   0  0  0  0  0  0  0  0  0  0  0  0
   20.5184   19.5892   19.5523 H   0  0  0  0  0  0  0  0  0  0  0  0
   21.3736   19.6062   21.1116 H   0  0  0  0  0  0  0  0  0  0  0  0
   21.5719   18.2361   20.0077 H   0  0  0  0  0  0  0  0  0  0  0  0
   19.6498   18.2433   21.0504 C   0  0  0  0  0  0  0  0  0  0  0  0
   20.0010   17.6354   21.8949 H   0  0  0  0  0  0  0  0  0  0  0  0
   19.2229   17.5352   20.3265 H   0  0  0  0  0  0  0  0  0  0  0  0
   18.5308   19.2094   21.5152 C   0  0  0  0  0  0  0  0  0  0  0  0
   18.1271   19.7314   20.6369 H   0  0  0  0  0  0  0  0  0  0  0  0
   17.6950   18.6211   21.9160 H   0  0  0  0  0  0  0  0  0  0  0  0
   18.9661   20.2696   22.5628 C   0  0  0  0  0  0  0  0  0  0  0  0
   18.0895   20.8724   22.8368 H   0  0  0  0  0  0  0  0  0  0  0  0
   19.6703   20.9707   22.0955 H   0  0  0  0  0  0  0  0  0  0  0  0
   19.6085   19.7028   23.8552 C   0  0  0  0  0  0  0  0  0  0  0  0
   20.5410   19.1777   23.6102 H   0  0  0  0  0  0  0  0  0  0  0  0
   19.8974   20.5516   24.4888 H   0  0  0  0  0  0  0  0  0  0  0  0
   18.6692   18.7607   24.6498 C   0  0  0  0  0  0  0  0  0  0  0  0
   18.3960   17.9005   24.0250 H   0  0  0  0  0  0  0  0  0  0  0  0
   17.7328   19.2842   24.8872 H   0  0  0  0  0  0  0  0  0  0  0  0
   19.3076   18.2273   25.9538 C   0  0  0  0  0  0  0  0  0  0  0  0
   18.6300   17.4908   26.4059 H   0  0  0  0  0  0  0  0  0  0  0  0
   20.2386   17.6948   25.7179 H   0  0  0  0  0  0  0  0  0  0  0  0
   19.5925   19.3416   26.9781 C   0  0  0  0  0  0  0  0  0  0  0  0
   18.6656   19.8722   27.2119 H   0  0  0  0  0  0  0  0  0  0  0  0
   20.3037   20.0579   26.5589 H   0  0  0  0  0  0  0  0  0  0  0  0
   20.1719   18.8182   28.2763 N   0  3  0  0  0  0  0  0  0  0  0  0
   19.5379   18.1578   28.7384 H   0  0  0  0  0  0  0  0  0  0  0  0
   20.3542   19.5749   28.9447 H   0  0  0  0  0  0  0  0  0  0  0  0
   21.0612   18.3296   28.1280 H   0  0  0  0  0  0  0  0  0  0  0  0
  1  2  1  0  0  0  0
  1  3  1  0  0  0  0
  1  4  1  0  0  0  0
  1  5  1  0  0  0  0
  5  6  1  0  0  0  0
  5  7  1  0  0  0  0
  5  8  1  0  0  0  0
  8  9  1  0  0  0  0
  8 10  1  0  0  0  0
  8 11  1  0  0  0  0
 11 12  1  0  0  0  0
 11 13  1  0  0  0  0
 11 14  1  0  0  0  0
 14 15  1  0  0  0  0
 14 16  1  0  0  0  0
 14 17  1  0  0  0  0
 17 18  1  0  0  0  0
 17 19  1  0  0  0  0
 17 20  1  0  0  0  0
 20 21  1  0  0  0  0
 20 22  1  0  0  0  0
 20 23  1  0  0  0  0
 23 24  1  0  0  0  0
 23 25  1  0  0  0  0
 23 26  1  0  0  0  0
 26 27  1  0  0  0  0
 26 28  1  0  0  0  0
 26 29  1  0  0  0  0
M  END
> <VM2 Rank>
178

> <Conf_Id>
1178

> <Probability>
0.08

> <Sum Probability>
97.68

> <Delta G>
2.530

> <G>
60.678

> <E>
22.631

> <-TS>
38.048

> <U+W>
-1.514

> <U>
50.223

> <W>
-51.737

> <W(PB)>
-54.184

> <W(SA)>
2.447

> <Valence>
4.334

> <Coulomb>
45.055

> <VdW>
0.835

> <VdW6>
-10.074

> <VdW12>
10.909

> <Bond>
0.297

> <Angle>
1.541

> <Pdih>
2.496

> <Idih>
0.000

> <Tether>
0.000

$$$$
VeraChem MOL file


 29 28  0  0  0  0  0  0  0  0999 V2000     
   19.4142   18.4762   20.0594 C   0  0  0  0  0  0  0  0  0  0  0  0
   18.8246   18.5727   19.1386 H   0  0  0  0  0  0  0  0  0  0  0  0
   20.3923   18.0568   19.7902 H   0  0  0  0  0  0  0  0  0  0  0  0
   18.8981   17.7577   20.7084 H   0  0  0  0  0  0  0  0  0  0  0  0
   19.5701   19.8502   20.7490 C   0  0  0  0  0  0  0  0  0  0  0  0
   18.5820   20.2395   21.0279 H   0  0  0  0  0  0  0  0  0  0  0  0
   19.9794   20.5659   20.0224 H   0  0  0  0  0  0  0  0  0  0  0  0
   20.5033   19.8173   21.9863 C   0  0  0  0  0  0  0  0  0  0  0  0
   21.5178   19.5549   21.6561 H   0  0  0  0  0  0  0  0  0  0  0  0
   20.5760   20.8318   22.4018 H   0  0  0  0  0  0  0  0  0  0  0  0
   20.0820   18.8400   23.1142 C   0  0  0  0  0  0  0  0  0  0  0  0
   20.8427   18.8934   23.9035 H   0  0  0  0  0  0  0  0  0  0  0  0
   20.1025   17.8071   22.7425 H   0  0  0  0  0  0  0  0  0  0  0  0
   18.6894   19.1531   23.7176 C   0  0  0  0  0  0  0  0  0  0  0  0
   18.6700   20.1865   24.0884 H   0  0  0  0  0  0  0  0  0  0  0  0
   17.9297   19.0998   22.9272 H   0  0  0  0  0  0  0  0  0  0  0  0
   18.2678   18.1755   24.8452 C   0  0  0  0  0  0  0  0  0  0  0  0
   18.1993   17.1592   24.4334 H   0  0  0  0  0  0  0  0  0  0  0  0
   17.2524   18.4368   25.1740 H   0  0  0  0  0  0  0  0  0  0  0  0
   19.2020   18.1559   26.0807 C   0  0  0  0  0  0  0  0  0  0  0  0
   18.7879   17.4634   26.8256 H   0  0  0  0  0  0  0  0  0  0  0  0
   20.1852   17.7550   25.8036 H   0  0  0  0  0  0  0  0  0  0  0  0
   19.3694   19.5450   26.7236 C   0  0  0  0  0  0  0  0  0  0  0  0
   18.3904   19.9385   27.0100 H   0  0  0  0  0  0  0  0  0  0  0  0
   19.8205   20.2327   26.0034 H   0  0  0  0  0  0  0  0  0  0  0  0
   20.2458   19.5247   27.9590 N   0  3  0  0  0  0  0  0  0  0  0  0
   19.8621   18.9152   28.6889 H   0  0  0  0  0  0  0  0  0  0  0  0
   20.3446   20.4590   28.3713 H   0  0  0  0  0  0  0  0  0  0  0  0
   21.1917   19.1882   27.7507 H   0  0  0  0  0  0  0  0  0  0  0  0
  1  2  1  0  0  0  0
  1  3  1  0  0  0  0
  1  4  1  0  0  0  0
  1  5  1  0  0  0  0
  5  6  1  0  0  0  0
  5  7  1  0  0  0  0
  5  8  1  0  0  0  0
  8  9  1  0  0  0  0
  8 10  1  0  0  0  0
  8 11  1  0  0  0  0
 11 12  1  0  0  0  0
 11 13  1  0  0  0  0
 11 14  1  0  0  0  0
 14 15  1  0  0  0  0
 14 16  1  0  0  0  0
 14 17  1  0  0  0  0
 17 18  1  0  0  0  0
 17 19  1  0  0  0  0
 17 20  1  0  0  0  0
 20 21  1  0  0  0  0
 20 22  1  0  0  0  0
 20 23  1  0  0  0  0
 23 24  1  0  0  0  0
 23 25  1  0  0  0  0
 23 26  1  0  0  0  0
 26 27  1  0  0  0  0
 26 28  1  0  0  0  0
 26 29  1  0  0  0  0
M  END
> <VM2 Rank>
179

> <Conf_Id>
1346

> <Probability>
0.08

> <Sum Probability>
97.75

> <Delta G>
2.540

> <G>
60.688

> <E>
22.763

> <-TS>
37.925

> <U+W>
-1.381

> <U>
50.634

> <W>
-52.016

> <W(PB)>
-54.458

> <W(SA)>
2.443

> <Valence>
4.369

> <Coulomb>
45.368

> <VdW>
0.896

> <VdW6>
-10.051

> <VdW12>
10.947

> <Bond>
0.301

> <Angle>
1.640

> <Pdih>
2.428

> <Idih>
0.000

> <Tether>
0.000

$$$$
VeraChem MOL file


 29 28  0  0  0  0  0  0  0  0999 V2000     
   19.3774   19.2708   19.9475 C   0  0  0  0  0  0  0  0  0  0  0  0
   18.6158   19.5635   19.2133 H   0  0  0  0  0  0  0  0  0  0  0  0
   19.9354   20.1742   20.2233 H   0  0  0  0  0  0  0  0  0  0  0  0
   20.0697   18.5756   19.4552 H   0  0  0  0  0  0  0  0  0  0  0  0
   18.7166   18.6155   21.1811 C   0  0  0  0  0  0  0  0  0  0  0  0
   18.0814   17.7851   20.8427 H   0  0  0  0  0  0  0  0  0  0  0  0
   18.0415   19.3340   21.6646 H   0  0  0  0  0  0  0  0  0  0  0  0
   19.7402   18.0677   22.2077 C   0  0  0  0  0  0  0  0  0  0  0  0
   19.1974   17.5634   23.0180 H   0  0  0  0  0  0  0  0  0  0  0  0
   20.3419   17.2856   21.7248 H   0  0  0  0  0  0  0  0  0  0  0  0
   20.6994   19.1283   22.8116 C   0  0  0  0  0  0  0  0  0  0  0  0
   21.3508   19.5198   22.0192 H   0  0  0  0  0  0  0  0  0  0  0  0
   21.3759   18.6311   23.5191 H   0  0  0  0  0  0  0  0  0  0  0  0
   20.0025   20.3215   23.5190 C   0  0  0  0  0  0  0  0  0  0  0  0
   20.7752   20.9906   23.9217 H   0  0  0  0  0  0  0  0  0  0  0  0
   19.4576   20.9164   22.7740 H   0  0  0  0  0  0  0  0  0  0  0  0
   19.0287   19.9347   24.6618 C   0  0  0  0  0  0  0  0  0  0  0  0
   18.1942   19.3443   24.2609 H   0  0  0  0  0  0  0  0  0  0  0  0
   18.5824   20.8553   25.0629 H   0  0  0  0  0  0  0  0  0  0  0  0
   19.7079   19.1623   25.8166 C   0  0  0  0  0  0  0  0  0  0  0  0
   20.0983   18.2042   25.4510 H   0  0  0  0  0  0  0  0  0  0  0  0
   20.5632   19.7385   26.1937 H   0  0  0  0  0  0  0  0  0  0  0  0
   18.7223   18.8959   26.9676 C   0  0  0  0  0  0  0  0  0  0  0  0
   17.8767   18.3087   26.5997 H   0  0  0  0  0  0  0  0  0  0  0  0
   18.3407   19.8454   27.3528 H   0  0  0  0  0  0  0  0  0  0  0  0
   19.3489   18.1412   28.1221 N   0  3  0  0  0  0  0  0  0  0  0  0
   18.6757   17.9747   28.8783 H   0  0  0  0  0  0  0  0  0  0  0  0
   20.1366   18.6548   28.5311 H   0  0  0  0  0  0  0  0  0  0  0  0
   19.7044   17.2245   27.8311 H   0  0  0  0  0  0  0  0  0  0  0  0
  1  2  1  0  0  0  0
  1  3  1  0  0  0  0
  1  4  1  0  0  0  0
  1  5  1  0  0  0  0
  5  6  1  0  0  0  0
  5  7  1  0  0  0  0
  5  8  1  0  0  0  0
  8  9  1  0  0  0  0
  8 10  1  0  0  0  0
  8 11  1  0  0  0  0
 11 12  1  0  0  0  0
 11 13  1  0  0  0  0
 11 14  1  0  0  0  0
 14 15  1  0  0  0  0
 14 16  1  0  0  0  0
 14 17  1  0  0  0  0
 17 18  1  0  0  0  0
 17 19  1  0  0  0  0
 17 20  1  0  0  0  0
 20 21  1  0  0  0  0
 20 22  1  0  0  0  0
 20 23  1  0  0  0  0
 23 24  1  0  0  0  0
 23 25  1  0  0  0  0
 23 26  1  0  0  0  0
 26 27  1  0  0  0  0
 26 28  1  0  0  0  0
 26 29  1  0  0  0  0
M  END
> <VM2 Rank>
180

> <Conf_Id>
90

> <Probability>
0.07

> <Sum Probability>
97.83

> <Delta G>
2.559

> <G>
60.707

> <E>
22.445

> <-TS>
38.262

> <U+W>
-1.700

> <U>
50.310

> <W>
-52.010

> <W(PB)>
-54.452

> <W(SA)>
2.443

> <Valence>
4.444

> <Coulomb>
45.193

> <VdW>
0.673

> <VdW6>
-10.458

> <VdW12>
11.131

> <Bond>
0.312

> <Angle>
1.703

> <Pdih>
2.429

> <Idih>
0.000

> <Tether>
0.000

$$$$
VeraChem MOL file


 29 28  0  0  0  0  0  0  0  0999 V2000     
   19.3237   19.1193   19.9440 C   0  0  0  0  0  0  0  0  0  0  0  0
   20.3063   19.2407   19.4699 H   0  0  0  0  0  0  0  0  0  0  0  0
   19.1828   18.0564   20.1761 H   0  0  0  0  0  0  0  0  0  0  0  0
   18.5586   19.4019   19.2094 H   0  0  0  0  0  0  0  0  0  0  0  0
   19.2072   19.9955   21.2115 C   0  0  0  0  0  0  0  0  0  0  0  0
   18.2233   19.8456   21.6757 H   0  0  0  0  0  0  0  0  0  0  0  0
   19.2430   21.0530   20.9150 H   0  0  0  0  0  0  0  0  0  0  0  0
   20.3324   19.7338   22.2445 C   0  0  0  0  0  0  0  0  0  0  0  0
   21.2993   19.9793   21.7845 H   0  0  0  0  0  0  0  0  0  0  0  0
   20.2180   20.4350   23.0816 H   0  0  0  0  0  0  0  0  0  0  0  0
   20.3989   18.2830   22.7928 C   0  0  0  0  0  0  0  0  0  0  0  0
   21.2274   18.2137   23.5098 H   0  0  0  0  0  0  0  0  0  0  0  0
   20.6684   17.5999   21.9765 H   0  0  0  0  0  0  0  0  0  0  0  0
   19.0955   17.7702   23.4621 C   0  0  0  0  0  0  0  0  0  0  0  0
   18.3080   17.6825   22.7019 H   0  0  0  0  0  0  0  0  0  0  0  0
   19.2671   16.7483   23.8272 H   0  0  0  0  0  0  0  0  0  0  0  0
   18.5681   18.6390   24.6329 C   0  0  0  0  0  0  0  0  0  0  0  0
   17.6353   18.1916   25.0033 H   0  0  0  0  0  0  0  0  0  0  0  0
   18.2992   19.6390   24.2676 H   0  0  0  0  0  0  0  0  0  0  0  0
   19.5659   18.7630   25.8078 C   0  0  0  0  0  0  0  0  0  0  0  0
   19.8604   17.7619   26.1496 H   0  0  0  0  0  0  0  0  0  0  0  0
   20.4785   19.2735   25.4752 H   0  0  0  0  0  0  0  0  0  0  0  0
   18.9533   19.5455   26.9824 C   0  0  0  0  0  0  0  0  0  0  0  0
   18.0526   19.0355   27.3346 H   0  0  0  0  0  0  0  0  0  0  0  0
   18.6733   20.5488   26.6502 H   0  0  0  0  0  0  0  0  0  0  0  0
   19.8991   19.6887   28.1571 N   0  3  0  0  0  0  0  0  0  0  0  0
   20.1800   18.7774   28.5341 H   0  0  0  0  0  0  0  0  0  0  0  0
   19.4713   20.2124   28.9287 H   0  0  0  0  0  0  0  0  0  0  0  0
   20.7574   20.1861   27.8979 H   0  0  0  0  0  0  0  0  0  0  0  0
  1  2  1  0  0  0  0
  1  3  1  0  0  0  0
  1  4  1  0  0  0  0
  1  5  1  0  0  0  0
  5  6  1  0  0  0  0
  5  7  1  0  0  0  0
  5  8  1  0  0  0  0
  8  9  1  0  0  0  0
  8 10  1  0  0  0  0
  8 11  1  0  0  0  0
 11 12  1  0  0  0  0
 11 13  1  0  0  0  0
 11 14  1  0  0  0  0
 14 15  1  0  0  0  0
 14 16  1  0  0  0  0
 14 17  1  0  0  0  0
 17 18  1  0  0  0  0
 17 19  1  0  0  0  0
 17 20  1  0  0  0  0
 20 21  1  0  0  0  0
 20 22  1  0  0  0  0
 20 23  1  0  0  0  0
 23 24  1  0  0  0  0
 23 25  1  0  0  0  0
 23 26  1  0  0  0  0
 26 27  1  0  0  0  0
 26 28  1  0  0  0  0
 26 29  1  0  0  0  0
M  END
> <VM2 Rank>
181

> <Conf_Id>
468

> <Probability>
0.07

> <Sum Probability>
97.90

> <Delta G>
2.576

> <G>
60.724

> <E>
22.462

> <-TS>
38.262

> <U+W>
-1.682

> <U>
50.309

> <W>
-51.991

> <W(PB)>
-54.442

> <W(SA)>
2.451

> <Valence>
4.444

> <Coulomb>
45.192

> <VdW>
0.673

> <VdW6>
-10.457

> <VdW12>
11.130

> <Bond>
0.312

> <Angle>
1.703

> <Pdih>
2.429

> <Idih>
0.000

> <Tether>
0.000

$$$$
VeraChem MOL file


 29 28  0  0  0  0  0  0  0  0999 V2000     
   21.3932   19.0256   20.8014 C   0  0  0  0  0  0  0  0  0  0  0  0
   21.0320   18.9192   19.7702 H   0  0  0  0  0  0  0  0  0  0  0  0
   22.2618   19.6966   20.7864 H   0  0  0  0  0  0  0  0  0  0  0  0
   21.7335   18.0410   21.1479 H   0  0  0  0  0  0  0  0  0  0  0  0
   20.2880   19.5854   21.7215 C   0  0  0  0  0  0  0  0  0  0  0  0
   19.9889   20.5821   21.3680 H   0  0  0  0  0  0  0  0  0  0  0  0
   20.6979   19.7153   22.7313 H   0  0  0  0  0  0  0  0  0  0  0  0
   19.0536   18.6543   21.7615 C   0  0  0  0  0  0  0  0  0  0  0  0
   18.7011   18.4864   20.7345 H   0  0  0  0  0  0  0  0  0  0  0  0
   19.3443   17.6671   22.1439 H   0  0  0  0  0  0  0  0  0  0  0  0
   17.8746   19.2211   22.5942 C   0  0  0  0  0  0  0  0  0  0  0  0
   17.0312   18.5195   22.5346 H   0  0  0  0  0  0  0  0  0  0  0  0
   17.5242   20.1516   22.1268 H   0  0  0  0  0  0  0  0  0  0  0  0
   18.1903   19.5016   24.0861 C   0  0  0  0  0  0  0  0  0  0  0  0
   18.9492   20.2905   24.1606 H   0  0  0  0  0  0  0  0  0  0  0  0
   17.2859   19.9078   24.5595 H   0  0  0  0  0  0  0  0  0  0  0  0
   18.6441   18.2428   24.8672 C   0  0  0  0  0  0  0  0  0  0  0  0
   19.5902   17.8645   24.4597 H   0  0  0  0  0  0  0  0  0  0  0  0
   17.9051   17.4431   24.7208 H   0  0  0  0  0  0  0  0  0  0  0  0
   18.8022   18.4979   26.3868 C   0  0  0  0  0  0  0  0  0  0  0  0
   17.8326   18.7967   26.8068 H   0  0  0  0  0  0  0  0  0  0  0  0
   19.0759   17.5592   26.8865 H   0  0  0  0  0  0  0  0  0  0  0  0
   19.8466   19.5780   26.7340 C   0  0  0  0  0  0  0  0  0  0  0  0
   19.8720   19.7237   27.8173 H   0  0  0  0  0  0  0  0  0  0  0  0
   19.5656   20.5271   26.2704 H   0  0  0  0  0  0  0  0  0  0  0  0
   21.2514   19.2314   26.2823 N   0  3  0  0  0  0  0  0  0  0  0  0
   21.5850   18.3634   26.7144 H   0  0  0  0  0  0  0  0  0  0  0  0
   21.9230   19.9667   26.5287 H   0  0  0  0  0  0  0  0  0  0  0  0
   21.2998   19.1037   25.2669 H   0  0  0  0  0  0  0  0  0  0  0  0
  1  2  1  0  0  0  0
  1  3  1  0  0  0  0
  1  4  1  0  0  0  0
  1  5  1  0  0  0  0
  5  6  1  0  0  0  0
  5  7  1  0  0  0  0
  5  8  1  0  0  0  0
  8  9  1  0  0  0  0
  8 10  1  0  0  0  0
  8 11  1  0  0  0  0
 11 12  1  0  0  0  0
 11 13  1  0  0  0  0
 11 14  1  0  0  0  0
 14 15  1  0  0  0  0
 14 16  1  0  0  0  0
 14 17  1  0  0  0  0
 17 18  1  0  0  0  0
 17 19  1  0  0  0  0
 17 20  1  0  0  0  0
 20 21  1  0  0  0  0
 20 22  1  0  0  0  0
 20 23  1  0  0  0  0
 23 24  1  0  0  0  0
 23 25  1  0  0  0  0
 23 26  1  0  0  0  0
 26 27  1  0  0  0  0
 26 28  1  0  0  0  0
 26 29  1  0  0  0  0
M  END
> <VM2 Rank>
182

> <Conf_Id>
703

> <Probability>
0.06

> <Sum Probability>
97.96

> <Delta G>
2.696

> <G>
60.844

> <E>
22.943

> <-TS>
37.902

> <U+W>
-1.202

> <U>
51.249

> <W>
-52.451

> <W(PB)>
-54.849

> <W(SA)>
2.398

> <Valence>
3.914

> <Coulomb>
46.712

> <VdW>
0.624

> <VdW6>
-10.190

> <VdW12>
10.814

> <Bond>
0.275

> <Angle>
1.253

> <Pdih>
2.386

> <Idih>
0.000

> <Tether>
0.000

$$$$
VeraChem MOL file


 29 28  0  0  0  0  0  0  0  0999 V2000     
   20.3809   18.7688   19.8756 C   0  0  0  0  0  0  0  0  0  0  0  0
   20.1699   17.9719   19.1507 H   0  0  0  0  0  0  0  0  0  0  0  0
   20.3318   19.7286   19.3450 H   0  0  0  0  0  0  0  0  0  0  0  0
   21.4076   18.6310   20.2392 H   0  0  0  0  0  0  0  0  0  0  0  0
   19.3702   18.7266   21.0411 C   0  0  0  0  0  0  0  0  0  0  0  0
   19.4205   17.7403   21.5212 H   0  0  0  0  0  0  0  0  0  0  0  0
   18.3512   18.8369   20.6447 H   0  0  0  0  0  0  0  0  0  0  0  0
   19.6497   19.8391   22.0786 C   0  0  0  0  0  0  0  0  0  0  0  0
   20.6543   19.7077   22.5014 H   0  0  0  0  0  0  0  0  0  0  0  0
   19.6630   20.8102   21.5649 H   0  0  0  0  0  0  0  0  0  0  0  0
   18.5984   19.9034   23.2163 C   0  0  0  0  0  0  0  0  0  0  0  0
   17.6166   20.1313   22.7792 H   0  0  0  0  0  0  0  0  0  0  0  0
   18.8339   20.7539   23.8696 H   0  0  0  0  0  0  0  0  0  0  0  0
   18.4718   18.6159   24.0744 C   0  0  0  0  0  0  0  0  0  0  0  0
   17.7097   18.7829   24.8471 H   0  0  0  0  0  0  0  0  0  0  0  0
   18.0770   17.8020   23.4521 H   0  0  0  0  0  0  0  0  0  0  0  0
   19.7882   18.1398   24.7452 C   0  0  0  0  0  0  0  0  0  0  0  0
   20.5040   17.8340   23.9707 H   0  0  0  0  0  0  0  0  0  0  0  0
   19.5798   17.2301   25.3238 H   0  0  0  0  0  0  0  0  0  0  0  0
   20.4620   19.1889   25.6678 C   0  0  0  0  0  0  0  0  0  0  0  0
   21.3621   18.7495   26.1175 H   0  0  0  0  0  0  0  0  0  0  0  0
   20.8105   20.0388   25.0673 H   0  0  0  0  0  0  0  0  0  0  0  0
   19.5439   19.7163   26.7883 C   0  0  0  0  0  0  0  0  0  0  0  0
   18.6591   20.1850   26.3499 H   0  0  0  0  0  0  0  0  0  0  0  0
   20.0774   20.4730   27.3700 H   0  0  0  0  0  0  0  0  0  0  0  0
   19.0789   18.6391   27.7477 N   0  3  0  0  0  0  0  0  0  0  0  0
   18.5473   17.9087   27.2640 H   0  0  0  0  0  0  0  0  0  0  0  0
   18.4724   19.0187   28.4828 H   0  0  0  0  0  0  0  0  0  0  0  0
   19.8677   18.1809   28.2155 H   0  0  0  0  0  0  0  0  0  0  0  0
  1  2  1  0  0  0  0
  1  3  1  0  0  0  0
  1  4  1  0  0  0  0
  1  5  1  0  0  0  0
  5  6  1  0  0  0  0
  5  7  1  0  0  0  0
  5  8  1  0  0  0  0
  8  9  1  0  0  0  0
  8 10  1  0  0  0  0
  8 11  1  0  0  0  0
 11 12  1  0  0  0  0
 11 13  1  0  0  0  0
 11 14  1  0  0  0  0
 14 15  1  0  0  0  0
 14 16  1  0  0  0  0
 14 17  1  0  0  0  0
 17 18  1  0  0  0  0
 17 19  1  0  0  0  0
 17 20  1  0  0  0  0
 20 21  1  0  0  0  0
 20 22  1  0  0  0  0
 20 23  1  0  0  0  0
 23 24  1  0  0  0  0
 23 25  1  0  0  0  0
 23 26  1  0  0  0  0
 26 27  1  0  0  0  0
 26 28  1  0  0  0  0
 26 29  1  0  0  0  0
M  END
> <VM2 Rank>
183

> <Conf_Id>
2242

> <Probability>
0.06

> <Sum Probability>
98.01

> <Delta G>
2.718

> <G>
60.866

> <E>
22.484

> <-TS>
38.382

> <U+W>
-1.661

> <U>
50.551

> <W>
-52.212

> <W(PB)>
-54.633

> <W(SA)>
2.420

> <Valence>
4.345

> <Coulomb>
45.600

> <VdW>
0.606

> <VdW6>
-11.173

> <VdW12>
11.778

> <Bond>
0.325

> <Angle>
1.638

> <Pdih>
2.382

> <Idih>
0.000

> <Tether>
0.000

$$$$
VeraChem MOL file


 29 28  0  0  0  0  0  0  0  0999 V2000     
   20.4104   18.4502   19.3493 C   0  0  0  0  0  0  0  0  0  0  0  0
   20.0319   18.5693   18.3257 H   0  0  0  0  0  0  0  0  0  0  0  0
   21.3816   18.9584   19.4108 H   0  0  0  0  0  0  0  0  0  0  0  0
   20.5731   17.3790   19.5261 H   0  0  0  0  0  0  0  0  0  0  0  0
   19.4125   19.0355   20.3707 C   0  0  0  0  0  0  0  0  0  0  0  0
   18.4419   18.5313   20.2623 H   0  0  0  0  0  0  0  0  0  0  0  0
   19.2442   20.0986   20.1480 H   0  0  0  0  0  0  0  0  0  0  0  0
   19.9215   18.8807   21.8208 C   0  0  0  0  0  0  0  0  0  0  0  0
   20.0904   17.8168   22.0376 H   0  0  0  0  0  0  0  0  0  0  0  0
   20.8927   19.3844   21.9236 H   0  0  0  0  0  0  0  0  0  0  0  0
   18.9246   19.4659   22.8465 C   0  0  0  0  0  0  0  0  0  0  0  0
   17.9538   18.9614   22.7437 H   0  0  0  0  0  0  0  0  0  0  0  0
   18.7555   20.5292   22.6268 H   0  0  0  0  0  0  0  0  0  0  0  0
   19.4349   19.3122   24.2970 C   0  0  0  0  0  0  0  0  0  0  0  0
   19.6036   18.2473   24.4994 H   0  0  0  0  0  0  0  0  0  0  0  0
   20.4014   19.8245   24.4005 H   0  0  0  0  0  0  0  0  0  0  0  0
   18.4286   19.8871   25.3218 C   0  0  0  0  0  0  0  0  0  0  0  0
   17.5010   19.2987   25.2941 H   0  0  0  0  0  0  0  0  0  0  0  0
   18.1538   20.9064   25.0172 H   0  0  0  0  0  0  0  0  0  0  0  0
   18.9585   19.9461   26.7773 C   0  0  0  0  0  0  0  0  0  0  0  0
   19.8516   20.5826   26.8336 H   0  0  0  0  0  0  0  0  0  0  0  0
   18.1961   20.4417   27.3929 H   0  0  0  0  0  0  0  0  0  0  0  0
   19.2501   18.5693   27.4092 C   0  0  0  0  0  0  0  0  0  0  0  0
   18.4753   17.8552   27.1177 H   0  0  0  0  0  0  0  0  0  0  0  0
   19.2301   18.6659   28.4982 H   0  0  0  0  0  0  0  0  0  0  0  0
   20.6028   17.9910   27.0423 N   0  3  0  0  0  0  0  0  0  0  0  0
   20.6997   17.8644   26.0309 H   0  0  0  0  0  0  0  0  0  0  0  0
   20.7561   17.0754   27.4793 H   0  0  0  0  0  0  0  0  0  0  0  0
   21.3700   18.5995   27.3465 H   0  0  0  0  0  0  0  0  0  0  0  0
  1  2  1  0  0  0  0
  1  3  1  0  0  0  0
  1  4  1  0  0  0  0
  1  5  1  0  0  0  0
  5  6  1  0  0  0  0
  5  7  1  0  0  0  0
  5  8  1  0  0  0  0
  8  9  1  0  0  0  0
  8 10  1  0  0  0  0
  8 11  1  0  0  0  0
 11 12  1  0  0  0  0
 11 13  1  0  0  0  0
 11 14  1  0  0  0  0
 14 15  1  0  0  0  0
 14 16  1  0  0  0  0
 14 17  1  0  0  0  0
 17 18  1  0  0  0  0
 17 19  1  0  0  0  0
 17 20  1  0  0  0  0
 20 21  1  0  0  0  0
 20 22  1  0  0  0  0
 20 23  1  0  0  0  0
 23 24  1  0  0  0  0
 23 25  1  0  0  0  0
 23 26  1  0  0  0  0
 26 27  1  0  0  0  0
 26 28  1  0  0  0  0
 26 29  1  0  0  0  0
M  END
> <VM2 Rank>
184

> <Conf_Id>
1841

> <Probability>
0.05

> <Sum Probability>
98.07

> <Delta G>
2.738

> <G>
60.886

> <E>
23.547

> <-TS>
37.339

> <U+W>
-0.598

> <U>
51.315

> <W>
-51.913

> <W(PB)>
-54.442

> <W(SA)>
2.529

> <Valence>
4.174

> <Coulomb>
46.442

> <VdW>
0.699

> <VdW6>
-8.431

> <VdW12>
9.130

> <Bond>
0.203

> <Angle>
0.958

> <Pdih>
3.013

> <Idih>
0.000

> <Tether>
0.000

$$$$
VeraChem MOL file


 29 28  0  0  0  0  0  0  0  0999 V2000     
   21.0282   18.0014   20.7789 C   0  0  0  0  0  0  0  0  0  0  0  0
   20.8304   18.3529   19.7579 H   0  0  0  0  0  0  0  0  0  0  0  0
   21.9095   18.5343   21.1592 H   0  0  0  0  0  0  0  0  0  0  0  0
   21.2769   16.9336   20.7251 H   0  0  0  0  0  0  0  0  0  0  0  0
   19.8051   18.2308   21.6915 C   0  0  0  0  0  0  0  0  0  0  0  0
   20.0261   17.8312   22.6896 H   0  0  0  0  0  0  0  0  0  0  0  0
   18.9483   17.6628   21.3031 H   0  0  0  0  0  0  0  0  0  0  0  0
   19.4372   19.7302   21.7856 C   0  0  0  0  0  0  0  0  0  0  0  0
   20.2812   20.2951   22.2026 H   0  0  0  0  0  0  0  0  0  0  0  0
   19.2849   20.1235   20.7710 H   0  0  0  0  0  0  0  0  0  0  0  0
   18.1538   20.0043   22.6117 C   0  0  0  0  0  0  0  0  0  0  0  0
   17.3006   19.5245   22.1126 H   0  0  0  0  0  0  0  0  0  0  0  0
   17.9451   21.0828   22.5918 H   0  0  0  0  0  0  0  0  0  0  0  0
   18.1997   19.5286   24.0866 C   0  0  0  0  0  0  0  0  0  0  0  0
   17.2356   19.7674   24.5563 H   0  0  0  0  0  0  0  0  0  0  0  0
   18.2876   18.4353   24.1191 H   0  0  0  0  0  0  0  0  0  0  0  0
   19.3362   20.1844   24.9106 C   0  0  0  0  0  0  0  0  0  0  0  0
   19.2715   21.2762   24.8066 H   0  0  0  0  0  0  0  0  0  0  0  0
   20.3139   19.8951   24.5051 H   0  0  0  0  0  0  0  0  0  0  0  0
   19.2758   19.8267   26.4165 C   0  0  0  0  0  0  0  0  0  0  0  0
   20.0743   20.3601   26.9491 H   0  0  0  0  0  0  0  0  0  0  0  0
   18.3299   20.1918   26.8380 H   0  0  0  0  0  0  0  0  0  0  0  0
   19.3971   18.3168   26.7056 C   0  0  0  0  0  0  0  0  0  0  0  0
   18.5860   17.7786   26.2086 H   0  0  0  0  0  0  0  0  0  0  0  0
   19.3093   18.1449   27.7817 H   0  0  0  0  0  0  0  0  0  0  0  0
   20.7109   17.7149   26.2482 N   0  3  0  0  0  0  0  0  0  0  0  0
   20.7627   16.7114   26.4554 H   0  0  0  0  0  0  0  0  0  0  0  0
   21.5120   18.1582   26.7098 H   0  0  0  0  0  0  0  0  0  0  0  0
   20.8436   17.8236   25.2381 H   0  0  0  0  0  0  0  0  0  0  0  0
  1  2  1  0  0  0  0
  1  3  1  0  0  0  0
  1  4  1  0  0  0  0
  1  5  1  0  0  0  0
  5  6  1  0  0  0  0
  5  7  1  0  0  0  0
  5  8  1  0  0  0  0
  8  9  1  0  0  0  0
  8 10  1  0  0  0  0
  8 11  1  0  0  0  0
 11 12  1  0  0  0  0
 11 13  1  0  0  0  0
 11 14  1  0  0  0  0
 14 15  1  0  0  0  0
 14 16  1  0  0  0  0
 14 17  1  0  0  0  0
 17 18  1  0  0  0  0
 17 19  1  0  0  0  0
 17 20  1  0  0  0  0
 20 21  1  0  0  0  0
 20 22  1  0  0  0  0
 20 23  1  0  0  0  0
 23 24  1  0  0  0  0
 23 25  1  0  0  0  0
 23 26  1  0  0  0  0
 26 27  1  0  0  0  0
 26 28  1  0  0  0  0
 26 29  1  0  0  0  0
M  END
> <VM2 Rank>
185

> <Conf_Id>
336

> <Probability>
0.05

> <Sum Probability>
98.12

> <Delta G>
2.744

> <G>
60.892

> <E>
22.990

> <-TS>
37.902

> <U+W>
-1.155

> <U>
51.250

> <W>
-52.404

> <W(PB)>
-54.841

> <W(SA)>
2.437

> <Valence>
3.914

> <Coulomb>
46.712

> <VdW>
0.624

> <VdW6>
-10.191

> <VdW12>
10.814

> <Bond>
0.275

> <Angle>
1.253

> <Pdih>
2.386

> <Idih>
0.000

> <Tether>
0.000

$$$$
VeraChem MOL file


 29 28  0  0  0  0  0  0  0  0999 V2000     
   20.6513   19.1264   19.3645 C   0  0  0  0  0  0  0  0  0  0  0  0
   21.0825   18.1172   19.3924 H   0  0  0  0  0  0  0  0  0  0  0  0
   20.2972   19.3136   18.3424 H   0  0  0  0  0  0  0  0  0  0  0  0
   21.4514   19.8462   19.5812 H   0  0  0  0  0  0  0  0  0  0  0  0
   19.4936   19.2630   20.3758 C   0  0  0  0  0  0  0  0  0  0  0  0
   18.6950   18.5549   20.1136 H   0  0  0  0  0  0  0  0  0  0  0  0
   19.0611   20.2707   20.3011 H   0  0  0  0  0  0  0  0  0  0  0  0
   19.9654   19.0042   21.8236 C   0  0  0  0  0  0  0  0  0  0  0  0
   20.3987   17.9967   21.8929 H   0  0  0  0  0  0  0  0  0  0  0  0
   20.7652   19.7127   22.0800 H   0  0  0  0  0  0  0  0  0  0  0  0
   18.8086   19.1402   22.8392 C   0  0  0  0  0  0  0  0  0  0  0  0
   18.0090   18.4325   22.5800 H   0  0  0  0  0  0  0  0  0  0  0  0
   18.3762   20.1481   22.7701 H   0  0  0  0  0  0  0  0  0  0  0  0
   19.2807   18.8795   24.2874 C   0  0  0  0  0  0  0  0  0  0  0  0
   19.7046   17.8681   24.3570 H   0  0  0  0  0  0  0  0  0  0  0  0
   20.0813   19.5893   24.5293 H   0  0  0  0  0  0  0  0  0  0  0  0
   18.1232   19.0298   25.3027 C   0  0  0  0  0  0  0  0  0  0  0  0
   17.2704   18.4264   24.9619 H   0  0  0  0  0  0  0  0  0  0  0  0
   17.7764   20.0724   25.3113 H   0  0  0  0  0  0  0  0  0  0  0  0
   18.4760   18.5918   26.7472 C   0  0  0  0  0  0  0  0  0  0  0  0
   17.5634   18.6658   27.3534 H   0  0  0  0  0  0  0  0  0  0  0  0
   18.7649   17.5325   26.7657 H   0  0  0  0  0  0  0  0  0  0  0  0
   19.5633   19.4481   27.4286 C   0  0  0  0  0  0  0  0  0  0  0  0
   19.4713   19.3432   28.5131 H   0  0  0  0  0  0  0  0  0  0  0  0
   19.4184   20.5020   27.1763 H   0  0  0  0  0  0  0  0  0  0  0  0
   20.9820   19.0550   27.0660 N   0  3  0  0  0  0  0  0  0  0  0  0
   21.1875   18.0872   27.3353 H   0  0  0  0  0  0  0  0  0  0  0  0
   21.6733   19.6495   27.5364 H   0  0  0  0  0  0  0  0  0  0  0  0
   21.1513   19.1314   26.0590 H   0  0  0  0  0  0  0  0  0  0  0  0
  1  2  1  0  0  0  0
  1  3  1  0  0  0  0
  1  4  1  0  0  0  0
  1  5  1  0  0  0  0
  5  6  1  0  0  0  0
  5  7  1  0  0  0  0
  5  8  1  0  0  0  0
  8  9  1  0  0  0  0
  8 10  1  0  0  0  0
  8 11  1  0  0  0  0
 11 12  1  0  0  0  0
 11 13  1  0  0  0  0
 11 14  1  0  0  0  0
 14 15  1  0  0  0  0
 14 16  1  0  0  0  0
 14 17  1  0  0  0  0
 17 18  1  0  0  0  0
 17 19  1  0  0  0  0
 17 20  1  0  0  0  0
 20 21  1  0  0  0  0
 20 22  1  0  0  0  0
 20 23  1  0  0  0  0
 23 24  1  0  0  0  0
 23 25  1  0  0  0  0
 23 26  1  0  0  0  0
 26 27  1  0  0  0  0
 26 28  1  0  0  0  0
 26 29  1  0  0  0  0
M  END
> <VM2 Rank>
186

> <Conf_Id>
210

> <Probability>
0.05

> <Sum Probability>
98.17

> <Delta G>
2.771

> <G>
60.919

> <E>
23.579

> <-TS>
37.340

> <U+W>
-0.566

> <U>
51.315

> <W>
-51.881

> <W(PB)>
-54.424

> <W(SA)>
2.542

> <Valence>
4.174

> <Coulomb>
46.442

> <VdW>
0.700

> <VdW6>
-8.431

> <VdW12>
9.131

> <Bond>
0.203

> <Angle>
0.957

> <Pdih>
3.013

> <Idih>
0.000

> <Tether>
0.000

$$$$
VeraChem MOL file


 29 28  0  0  0  0  0  0  0  0999 V2000     
   20.4199   18.8778   19.8782 C   0  0  0  0  0  0  0  0  0  0  0  0
   21.2976   18.3217   20.2325 H   0  0  0  0  0  0  0  0  0  0  0  0
   19.7832   18.1867   19.3106 H   0  0  0  0  0  0  0  0  0  0  0  0
   20.7700   19.6568   19.1886 H   0  0  0  0  0  0  0  0  0  0  0  0
   19.6465   19.5027   21.0585 C   0  0  0  0  0  0  0  0  0  0  0  0
   18.7926   20.0765   20.6724 H   0  0  0  0  0  0  0  0  0  0  0  0
   20.3016   20.2156   21.5766 H   0  0  0  0  0  0  0  0  0  0  0  0
   19.1458   18.4236   22.0469 C   0  0  0  0  0  0  0  0  0  0  0  0
   18.5501   17.6837   21.4949 H   0  0  0  0  0  0  0  0  0  0  0  0
   20.0015   17.8740   22.4605 H   0  0  0  0  0  0  0  0  0  0  0  0
   18.2741   18.9927   23.1959 C   0  0  0  0  0  0  0  0  0  0  0  0
   17.9103   18.1595   23.8116 H   0  0  0  0  0  0  0  0  0  0  0  0
   17.3752   19.4536   22.7640 H   0  0  0  0  0  0  0  0  0  0  0  0
   18.9769   20.0355   24.1060 C   0  0  0  0  0  0  0  0  0  0  0  0
   19.1936   20.9398   23.5222 H   0  0  0  0  0  0  0  0  0  0  0  0
   18.2698   20.3569   24.8822 H   0  0  0  0  0  0  0  0  0  0  0  0
   20.2887   19.5463   24.7765 C   0  0  0  0  0  0  0  0  0  0  0  0
   20.6935   20.3594   25.3936 H   0  0  0  0  0  0  0  0  0  0  0  0
   21.0476   19.3618   24.0047 H   0  0  0  0  0  0  0  0  0  0  0  0
   20.1355   18.2718   25.6472 C   0  0  0  0  0  0  0  0  0  0  0  0
   19.8772   17.4175   25.0087 H   0  0  0  0  0  0  0  0  0  0  0  0
   21.1045   18.0258   26.1012 H   0  0  0  0  0  0  0  0  0  0  0  0
   19.0750   18.3990   26.7589 C   0  0  0  0  0  0  0  0  0  0  0  0
   19.0024   17.4531   27.3025 H   0  0  0  0  0  0  0  0  0  0  0  0
   18.0992   18.6124   26.3149 H   0  0  0  0  0  0  0  0  0  0  0  0
   19.3816   19.4886   27.7668 N   0  3  0  0  0  0  0  0  0  0  0  0
   20.2759   19.3265   28.2410 H   0  0  0  0  0  0  0  0  0  0  0  0
   18.6615   19.5485   28.4949 H   0  0  0  0  0  0  0  0  0  0  0  0
   19.4376   20.4091   27.3200 H   0  0  0  0  0  0  0  0  0  0  0  0
  1  2  1  0  0  0  0
  1  3  1  0  0  0  0
  1  4  1  0  0  0  0
  1  5  1  0  0  0  0
  5  6  1  0  0  0  0
  5  7  1  0  0  0  0
  5  8  1  0  0  0  0
  8  9  1  0  0  0  0
  8 10  1  0  0  0  0
  8 11  1  0  0  0  0
 11 12  1  0  0  0  0
 11 13  1  0  0  0  0
 11 14  1  0  0  0  0
 14 15  1  0  0  0  0
 14 16  1  0  0  0  0
 14 17  1  0  0  0  0
 17 18  1  0  0  0  0
 17 19  1  0  0  0  0
 17 20  1  0  0  0  0
 20 21  1  0  0  0  0
 20 22  1  0  0  0  0
 20 23  1  0  0  0  0
 23 24  1  0  0  0  0
 23 25  1  0  0  0  0
 23 26  1  0  0  0  0
 26 27  1  0  0  0  0
 26 28  1  0  0  0  0
 26 29  1  0  0  0  0
M  END
> <VM2 Rank>
187

> <Conf_Id>
1671

> <Probability>
0.05

> <Sum Probability>
98.22

> <Delta G>
2.782

> <G>
60.930

> <E>
22.547

> <-TS>
38.382

> <U+W>
-1.597

> <U>
50.551

> <W>
-52.148

> <W(PB)>
-54.549

> <W(SA)>
2.400

> <Valence>
4.345

> <Coulomb>
45.600

> <VdW>
0.606

> <VdW6>
-11.173

> <VdW12>
11.779

> <Bond>
0.325

> <Angle>
1.638

> <Pdih>
2.382

> <Idih>
0.000

> <Tether>
0.000

$$$$
VeraChem MOL file


 29 28  0  0  0  0  0  0  0  0999 V2000     
   19.7812   18.0608   19.5285 C   0  0  0  0  0  0  0  0  0  0  0  0
   19.9764   19.0007   18.9958 H   0  0  0  0  0  0  0  0  0  0  0  0
   20.7416   17.5547   19.6921 H   0  0  0  0  0  0  0  0  0  0  0  0
   19.1712   17.4235   18.8753 H   0  0  0  0  0  0  0  0  0  0  0  0
   19.0569   18.3216   20.8661 C   0  0  0  0  0  0  0  0  0  0  0  0
   18.8455   17.3624   21.3591 H   0  0  0  0  0  0  0  0  0  0  0  0
   18.0862   18.7974   20.6683 H   0  0  0  0  0  0  0  0  0  0  0  0
   19.8950   19.2172   21.8050 C   0  0  0  0  0  0  0  0  0  0  0  0
   20.8649   18.7383   21.9983 H   0  0  0  0  0  0  0  0  0  0  0  0
   20.1063   20.1734   21.3065 H   0  0  0  0  0  0  0  0  0  0  0  0
   19.1731   19.4809   23.1457 C   0  0  0  0  0  0  0  0  0  0  0  0
   18.9542   18.5218   23.6286 H   0  0  0  0  0  0  0  0  0  0  0  0
   18.2052   19.9622   22.9490 H   0  0  0  0  0  0  0  0  0  0  0  0
   20.0149   20.3832   24.0813 C   0  0  0  0  0  0  0  0  0  0  0  0
   20.9988   19.9307   24.2664 H   0  0  0  0  0  0  0  0  0  0  0  0
   20.2100   21.3289   23.5567 H   0  0  0  0  0  0  0  0  0  0  0  0
   19.3185   20.7109   25.4279 C   0  0  0  0  0  0  0  0  0  0  0  0
   18.2324   20.7958   25.2844 H   0  0  0  0  0  0  0  0  0  0  0  0
   19.6540   21.7059   25.7519 H   0  0  0  0  0  0  0  0  0  0  0  0
   19.6300   19.7179   26.5758 C   0  0  0  0  0  0  0  0  0  0  0  0
   20.7122   19.6989   26.7613 H   0  0  0  0  0  0  0  0  0  0  0  0
   19.1637   20.0918   27.4971 H   0  0  0  0  0  0  0  0  0  0  0  0
   19.1317   18.2862   26.3126 C   0  0  0  0  0  0  0  0  0  0  0  0
   19.6649   17.8631   25.4578 H   0  0  0  0  0  0  0  0  0  0  0  0
   18.0629   18.3037   26.0831 H   0  0  0  0  0  0  0  0  0  0  0  0
   19.3426   17.3592   27.4920 N   0  3  0  0  0  0  0  0  0  0  0  0
   20.3337   17.2800   27.7428 H   0  0  0  0  0  0  0  0  0  0  0  0
   19.0070   16.4098   27.2955 H   0  0  0  0  0  0  0  0  0  0  0  0
   18.8450   17.6850   28.3273 H   0  0  0  0  0  0  0  0  0  0  0  0
  1  2  1  0  0  0  0
  1  3  1  0  0  0  0
  1  4  1  0  0  0  0
  1  5  1  0  0  0  0
  5  6  1  0  0  0  0
  5  7  1  0  0  0  0
  5  8  1  0  0  0  0
  8  9  1  0  0  0  0
  8 10  1  0  0  0  0
  8 11  1  0  0  0  0
 11 12  1  0  0  0  0
 11 13  1  0  0  0  0
 11 14  1  0  0  0  0
 14 15  1  0  0  0  0
 14 16  1  0  0  0  0
 14 17  1  0  0  0  0
 17 18  1  0  0  0  0
 17 19  1  0  0  0  0
 17 20  1  0  0  0  0
 20 21  1  0  0  0  0
 20 22  1  0  0  0  0
 20 23  1  0  0  0  0
 23 24  1  0  0  0  0
 23 25  1  0  0  0  0
 23 26  1  0  0  0  0
 26 27  1  0  0  0  0
 26 28  1  0  0  0  0
 26 29  1  0  0  0  0
M  END
> <VM2 Rank>
188

> <Conf_Id>
663

> <Probability>
0.05

> <Sum Probability>
98.27

> <Delta G>
2.794

> <G>
60.942

> <E>
23.621

> <-TS>
37.321

> <U+W>
-0.524

> <U>
51.461

> <W>
-51.983

> <W(PB)>
-54.508

> <W(SA)>
2.525

> <Valence>
5.121

> <Coulomb>
45.566

> <VdW>
0.773

> <VdW6>
-8.444

> <VdW12>
9.217

> <Bond>
0.226

> <Angle>
1.116

> <Pdih>
3.779

> <Idih>
0.000

> <Tether>
0.000

$$$$
VeraChem MOL file


 29 28  0  0  0  0  0  0  0  0999 V2000     
   20.6258   19.2971   20.3375 C   0  0  0  0  0  0  0  0  0  0  0  0
   21.1345   20.1244   19.8261 H   0  0  0  0  0  0  0  0  0  0  0  0
   21.3406   18.8536   21.0418 H   0  0  0  0  0  0  0  0  0  0  0  0
   20.3718   18.5408   19.5835 H   0  0  0  0  0  0  0  0  0  0  0  0
   19.3590   19.8053   21.0619 C   0  0  0  0  0  0  0  0  0  0  0  0
   18.7252   20.3347   20.3370 H   0  0  0  0  0  0  0  0  0  0  0  0
   19.6383   20.5508   21.8185 H   0  0  0  0  0  0  0  0  0  0  0  0
   18.5261   18.6707   21.7105 C   0  0  0  0  0  0  0  0  0  0  0  0
   17.6184   19.1022   22.1525 H   0  0  0  0  0  0  0  0  0  0  0  0
   18.1739   17.9943   20.9197 H   0  0  0  0  0  0  0  0  0  0  0  0
   19.2740   17.8313   22.7814 C   0  0  0  0  0  0  0  0  0  0  0  0
   20.0730   17.2558   22.2953 H   0  0  0  0  0  0  0  0  0  0  0  0
   18.5796   17.0839   23.1888 H   0  0  0  0  0  0  0  0  0  0  0  0
   19.8841   18.6412   23.9545 C   0  0  0  0  0  0  0  0  0  0  0  0
   20.4071   17.9367   24.6143 H   0  0  0  0  0  0  0  0  0  0  0  0
   20.6528   19.3275   23.5756 H   0  0  0  0  0  0  0  0  0  0  0  0
   18.8319   19.4325   24.7717 C   0  0  0  0  0  0  0  0  0  0  0  0
   18.0543   18.7487   25.1370 H   0  0  0  0  0  0  0  0  0  0  0  0
   18.3237   20.1517   24.1165 H   0  0  0  0  0  0  0  0  0  0  0  0
   19.4463   20.2165   25.9584 C   0  0  0  0  0  0  0  0  0  0  0  0
   20.1659   20.9510   25.5728 H   0  0  0  0  0  0  0  0  0  0  0  0
   18.6573   20.7944   26.4576 H   0  0  0  0  0  0  0  0  0  0  0  0
   20.1557   19.3291   27.0014 C   0  0  0  0  0  0  0  0  0  0  0  0
   20.5737   19.9600   27.7905 H   0  0  0  0  0  0  0  0  0  0  0  0
   20.9789   18.7876   26.5287 H   0  0  0  0  0  0  0  0  0  0  0  0
   19.2411   18.3142   27.6577 N   0  3  0  0  0  0  0  0  0  0  0  0
   18.4601   18.7656   28.1448 H   0  0  0  0  0  0  0  0  0  0  0  0
   19.7387   17.7442   28.3505 H   0  0  0  0  0  0  0  0  0  0  0  0
   18.8385   17.6703   26.9694 H   0  0  0  0  0  0  0  0  0  0  0  0
  1  2  1  0  0  0  0
  1  3  1  0  0  0  0
  1  4  1  0  0  0  0
  1  5  1  0  0  0  0
  5  6  1  0  0  0  0
  5  7  1  0  0  0  0
  5  8  1  0  0  0  0
  8  9  1  0  0  0  0
  8 10  1  0  0  0  0
  8 11  1  0  0  0  0
 11 12  1  0  0  0  0
 11 13  1  0  0  0  0
 11 14  1  0  0  0  0
 14 15  1  0  0  0  0
 14 16  1  0  0  0  0
 14 17  1  0  0  0  0
 17 18  1  0  0  0  0
 17 19  1  0  0  0  0
 17 20  1  0  0  0  0
 20 21  1  0  0  0  0
 20 22  1  0  0  0  0
 20 23  1  0  0  0  0
 23 24  1  0  0  0  0
 23 25  1  0  0  0  0
 23 26  1  0  0  0  0
 26 27  1  0  0  0  0
 26 28  1  0  0  0  0
 26 29  1  0  0  0  0
M  END
> <VM2 Rank>
189

> <Conf_Id>
451

> <Probability>
0.05

> <Sum Probability>
98.32

> <Delta G>
2.800

> <G>
60.948

> <E>
22.710

> <-TS>
38.238

> <U+W>
-1.435

> <U>
50.732

> <W>
-52.167

> <W(PB)>
-54.558

> <W(SA)>
2.391

> <Valence>
4.413

> <Coulomb>
45.469

> <VdW>
0.849

> <VdW6>
-10.820

> <VdW12>
11.669

> <Bond>
0.322

> <Angle>
1.661

> <Pdih>
2.430

> <Idih>
0.000

> <Tether>
0.000

$$$$
VeraChem MOL file


 29 28  0  0  0  0  0  0  0  0999 V2000     
   19.4854   18.1396   19.5237 C   0  0  0  0  0  0  0  0  0  0  0  0
   19.0052   17.2932   19.0156 H   0  0  0  0  0  0  0  0  0  0  0  0
   19.1528   19.0620   19.0300 H   0  0  0  0  0  0  0  0  0  0  0  0
   20.5700   18.0472   19.3808 H   0  0  0  0  0  0  0  0  0  0  0  0
   19.1228   18.1516   21.0237 C   0  0  0  0  0  0  0  0  0  0  0  0
   19.4371   17.2036   21.4823 H   0  0  0  0  0  0  0  0  0  0  0  0
   18.0310   18.2109   21.1344 H   0  0  0  0  0  0  0  0  0  0  0  0
   19.7868   19.3342   21.7630 C   0  0  0  0  0  0  0  0  0  0  0  0
   20.8778   19.2720   21.6486 H   0  0  0  0  0  0  0  0  0  0  0  0
   19.4716   20.2789   21.2987 H   0  0  0  0  0  0  0  0  0  0  0  0
   19.4251   19.3495   23.2653 C   0  0  0  0  0  0  0  0  0  0  0  0
   19.7406   18.3991   23.7141 H   0  0  0  0  0  0  0  0  0  0  0  0
   18.3345   19.4198   23.3792 H   0  0  0  0  0  0  0  0  0  0  0  0
   20.1027   20.5253   24.0070 C   0  0  0  0  0  0  0  0  0  0  0  0
   21.1926   20.3869   23.9905 H   0  0  0  0  0  0  0  0  0  0  0  0
   19.9053   21.4556   23.4565 H   0  0  0  0  0  0  0  0  0  0  0  0
   19.6300   20.7223   25.4707 C   0  0  0  0  0  0  0  0  0  0  0  0
   18.5592   20.9685   25.4918 H   0  0  0  0  0  0  0  0  0  0  0  0
   20.1462   21.6067   25.8691 H   0  0  0  0  0  0  0  0  0  0  0  0
   19.9185   19.5292   26.4163 C   0  0  0  0  0  0  0  0  0  0  0  0
   20.8815   19.0682   26.1595 H   0  0  0  0  0  0  0  0  0  0  0  0
   20.0212   19.9122   27.4404 H   0  0  0  0  0  0  0  0  0  0  0  0
   18.7986   18.4705   26.4122 C   0  0  0  0  0  0  0  0  0  0  0  0
   18.6686   18.0595   25.4094 H   0  0  0  0  0  0  0  0  0  0  0  0
   17.8561   18.9338   26.7159 H   0  0  0  0  0  0  0  0  0  0  0  0
   19.0741   17.3157   27.3532 N   0  3  0  0  0  0  0  0  0  0  0  0
   19.9365   16.8191   27.1061 H   0  0  0  0  0  0  0  0  0  0  0  0
   18.3162   16.6243   27.3402 H   0  0  0  0  0  0  0  0  0  0  0  0
   19.1745   17.6304   28.3240 H   0  0  0  0  0  0  0  0  0  0  0  0
  1  2  1  0  0  0  0
  1  3  1  0  0  0  0
  1  4  1  0  0  0  0
  1  5  1  0  0  0  0
  5  6  1  0  0  0  0
  5  7  1  0  0  0  0
  5  8  1  0  0  0  0
  8  9  1  0  0  0  0
  8 10  1  0  0  0  0
  8 11  1  0  0  0  0
 11 12  1  0  0  0  0
 11 13  1  0  0  0  0
 11 14  1  0  0  0  0
 14 15  1  0  0  0  0
 14 16  1  0  0  0  0
 14 17  1  0  0  0  0
 17 18  1  0  0  0  0
 17 19  1  0  0  0  0
 17 20  1  0  0  0  0
 20 21  1  0  0  0  0
 20 22  1  0  0  0  0
 20 23  1  0  0  0  0
 23 24  1  0  0  0  0
 23 25  1  0  0  0  0
 23 26  1  0  0  0  0
 26 27  1  0  0  0  0
 26 28  1  0  0  0  0
 26 29  1  0  0  0  0
M  END
> <VM2 Rank>
190

> <Conf_Id>
1845

> <Probability>
0.05

> <Sum Probability>
98.37

> <Delta G>
2.816

> <G>
60.964

> <E>
23.441

> <-TS>
37.523

> <U+W>
-0.704

> <U>
51.492

> <W>
-52.196

> <W(PB)>
-54.720

> <W(SA)>
2.524

> <Valence>
4.974

> <Coulomb>
45.825

> <VdW>
0.694

> <VdW6>
-8.648

> <VdW12>
9.341

> <Bond>
0.214

> <Angle>
1.149

> <Pdih>
3.611

> <Idih>
0.000

> <Tether>
0.000

$$$$
VeraChem MOL file


 29 28  0  0  0  0  0  0  0  0999 V2000     
   20.0135   19.5709   20.0671 C   0  0  0  0  0  0  0  0  0  0  0  0
   19.4898   18.8764   19.3974 H   0  0  0  0  0  0  0  0  0  0  0  0
   20.2960   20.4548   19.4809 H   0  0  0  0  0  0  0  0  0  0  0  0
   20.9391   19.0893   20.4063 H   0  0  0  0  0  0  0  0  0  0  0  0
   19.1167   19.9753   21.2587 C   0  0  0  0  0  0  0  0  0  0  0  0
   18.2608   20.5498   20.8781 H   0  0  0  0  0  0  0  0  0  0  0  0
   19.6668   20.6568   21.9211 H   0  0  0  0  0  0  0  0  0  0  0  0
   18.5802   18.7637   22.0624 C   0  0  0  0  0  0  0  0  0  0  0  0
   17.9035   19.1275   22.8468 H   0  0  0  0  0  0  0  0  0  0  0  0
   17.9583   18.1466   21.3996 H   0  0  0  0  0  0  0  0  0  0  0  0
   19.6706   17.8615   22.7002 C   0  0  0  0  0  0  0  0  0  0  0  0
   20.2490   17.3754   21.9035 H   0  0  0  0  0  0  0  0  0  0  0  0
   19.1798   17.0405   23.2389 H   0  0  0  0  0  0  0  0  0  0  0  0
   20.6536   18.5895   23.6561 C   0  0  0  0  0  0  0  0  0  0  0  0
   21.3592   17.8519   24.0622 H   0  0  0  0  0  0  0  0  0  0  0  0
   21.2655   19.2939   23.0771 H   0  0  0  0  0  0  0  0  0  0  0  0
   19.9918   19.3514   24.8333 C   0  0  0  0  0  0  0  0  0  0  0  0
   19.3499   20.1543   24.4475 H   0  0  0  0  0  0  0  0  0  0  0  0
   20.7866   19.8478   25.4053 H   0  0  0  0  0  0  0  0  0  0  0  0
   19.1731   18.4366   25.7781 C   0  0  0  0  0  0  0  0  0  0  0  0
   18.3552   17.9644   25.2200 H   0  0  0  0  0  0  0  0  0  0  0  0
   19.8065   17.6236   26.1570 H   0  0  0  0  0  0  0  0  0  0  0  0
   18.5583   19.2055   26.9633 C   0  0  0  0  0  0  0  0  0  0  0  0
   17.9167   18.5321   27.5382 H   0  0  0  0  0  0  0  0  0  0  0  0
   17.9418   20.0272   26.5890 H   0  0  0  0  0  0  0  0  0  0  0  0
   19.5862   19.7836   27.9159 N   0  3  0  0  0  0  0  0  0  0  0  0
   20.1836   19.0543   28.3189 H   0  0  0  0  0  0  0  0  0  0  0  0
   19.1443   20.2766   28.6996 H   0  0  0  0  0  0  0  0  0  0  0  0
   20.2021   20.4554   27.4472 H   0  0  0  0  0  0  0  0  0  0  0  0
  1  2  1  0  0  0  0
  1  3  1  0  0  0  0
  1  4  1  0  0  0  0
  1  5  1  0  0  0  0
  5  6  1  0  0  0  0
  5  7  1  0  0  0  0
  5  8  1  0  0  0  0
  8  9  1  0  0  0  0
  8 10  1  0  0  0  0
  8 11  1  0  0  0  0
 11 12  1  0  0  0  0
 11 13  1  0  0  0  0
 11 14  1  0  0  0  0
 14 15  1  0  0  0  0
 14 16  1  0  0  0  0
 14 17  1  0  0  0  0
 17 18  1  0  0  0  0
 17 19  1  0  0  0  0
 17 20  1  0  0  0  0
 20 21  1  0  0  0  0
 20 22  1  0  0  0  0
 20 23  1  0  0  0  0
 23 24  1  0  0  0  0
 23 25  1  0  0  0  0
 23 26  1  0  0  0  0
 26 27  1  0  0  0  0
 26 28  1  0  0  0  0
 26 29  1  0  0  0  0
M  END
> <VM2 Rank>
191

> <Conf_Id>
272

> <Probability>
0.05

> <Sum Probability>
98.42

> <Delta G>
2.833

> <G>
60.981

> <E>
22.621

> <-TS>
38.359

> <U+W>
-1.523

> <U>
50.644

> <W>
-52.167

> <W(PB)>
-54.571

> <W(SA)>
2.404

> <Valence>
4.566

> <Coulomb>
45.260

> <VdW>
0.818

> <VdW6>
-10.959

> <VdW12>
11.777

> <Bond>
0.338

> <Angle>
1.774

> <Pdih>
2.455

> <Idih>
0.000

> <Tether>
0.000

$$$$
VeraChem MOL file


 29 28  0  0  0  0  0  0  0  0999 V2000     
   19.3145   18.3392   19.9006 C   0  0  0  0  0  0  0  0  0  0  0  0
   18.6837   18.2685   19.0051 H   0  0  0  0  0  0  0  0  0  0  0  0
   20.3409   18.5484   19.5723 H   0  0  0  0  0  0  0  0  0  0  0  0
   19.3027   17.3574   20.3896 H   0  0  0  0  0  0  0  0  0  0  0  0
   18.7947   19.4499   20.8412 C   0  0  0  0  0  0  0  0  0  0  0  0
   17.7806   19.2006   21.1836 H   0  0  0  0  0  0  0  0  0  0  0  0
   18.7047   20.3834   20.2682 H   0  0  0  0  0  0  0  0  0  0  0  0
   19.7115   19.7051   22.0619 C   0  0  0  0  0  0  0  0  0  0  0  0
   20.7227   19.9585   21.7153 H   0  0  0  0  0  0  0  0  0  0  0  0
   19.3336   20.5898   22.5901 H   0  0  0  0  0  0  0  0  0  0  0  0
   19.7797   18.5072   23.0428 C   0  0  0  0  0  0  0  0  0  0  0  0
   20.1604   17.6243   22.5135 H   0  0  0  0  0  0  0  0  0  0  0  0
   18.7684   18.2452   23.3800 H   0  0  0  0  0  0  0  0  0  0  0  0
   20.6989   18.7599   24.2658 C   0  0  0  0  0  0  0  0  0  0  0  0
   20.7437   17.8424   24.8676 H   0  0  0  0  0  0  0  0  0  0  0  0
   21.7245   18.9294   23.9100 H   0  0  0  0  0  0  0  0  0  0  0  0
   20.2857   19.9488   25.1749 C   0  0  0  0  0  0  0  0  0  0  0  0
   20.4102   20.8916   24.6261 H   0  0  0  0  0  0  0  0  0  0  0  0
   20.9894   20.0091   26.0159 H   0  0  0  0  0  0  0  0  0  0  0  0
   18.8378   19.8737   25.7258 C   0  0  0  0  0  0  0  0  0  0  0  0
   18.6567   20.7330   26.3848 H   0  0  0  0  0  0  0  0  0  0  0  0
   18.1231   19.9738   24.8989 H   0  0  0  0  0  0  0  0  0  0  0  0
   18.5299   18.5736   26.4950 C   0  0  0  0  0  0  0  0  0  0  0  0
   18.6793   17.7126   25.8384 H   0  0  0  0  0  0  0  0  0  0  0  0
   17.4849   18.5797   26.8167 H   0  0  0  0  0  0  0  0  0  0  0  0
   19.3913   18.3805   27.7270 N   0  3  0  0  0  0  0  0  0  0  0  0
   20.3869   18.3413   27.4874 H   0  0  0  0  0  0  0  0  0  0  0  0
   19.1637   17.5098   28.2192 H   0  0  0  0  0  0  0  0  0  0  0  0
   19.2707   19.1458   28.3984 H   0  0  0  0  0  0  0  0  0  0  0  0
  1  2  1  0  0  0  0
  1  3  1  0  0  0  0
  1  4  1  0  0  0  0
  1  5  1  0  0  0  0
  5  6  1  0  0  0  0
  5  7  1  0  0  0  0
  5  8  1  0  0  0  0
  8  9  1  0  0  0  0
  8 10  1  0  0  0  0
  8 11  1  0  0  0  0
 11 12  1  0  0  0  0
 11 13  1  0  0  0  0
 11 14  1  0  0  0  0
 14 15  1  0  0  0  0
 14 16  1  0  0  0  0
 14 17  1  0  0  0  0
 17 18  1  0  0  0  0
 17 19  1  0  0  0  0
 17 20  1  0  0  0  0
 20 21  1  0  0  0  0
 20 22  1  0  0  0  0
 20 23  1  0  0  0  0
 23 24  1  0  0  0  0
 23 25  1  0  0  0  0
 23 26  1  0  0  0  0
 26 27  1  0  0  0  0
 26 28  1  0  0  0  0
 26 29  1  0  0  0  0
M  END
> <VM2 Rank>
192

> <Conf_Id>
1028

> <Probability>
0.05

> <Sum Probability>
98.46

> <Delta G>
2.842

> <G>
60.990

> <E>
22.839

> <-TS>
38.151

> <U+W>
-1.306

> <U>
50.783

> <W>
-52.088

> <W(PB)>
-54.505

> <W(SA)>
2.417

> <Valence>
4.466

> <Coulomb>
45.490

> <VdW>
0.827

> <VdW6>
-10.816

> <VdW12>
11.643

> <Bond>
0.325

> <Angle>
1.610

> <Pdih>
2.531

> <Idih>
0.000

> <Tether>
0.000

$$$$
VeraChem MOL file


 29 28  0  0  0  0  0  0  0  0999 V2000     
   19.6261   18.4812   20.0427 C   0  0  0  0  0  0  0  0  0  0  0  0
   19.6673   19.3763   19.4086 H   0  0  0  0  0  0  0  0  0  0  0  0
   20.6432   18.2570   20.3876 H   0  0  0  0  0  0  0  0  0  0  0  0
   19.2958   17.6413   19.4181 H   0  0  0  0  0  0  0  0  0  0  0  0
   18.6586   18.6864   21.2300 C   0  0  0  0  0  0  0  0  0  0  0  0
   18.6461   17.7851   21.8571 H   0  0  0  0  0  0  0  0  0  0  0  0
   17.6375   18.7962   20.8391 H   0  0  0  0  0  0  0  0  0  0  0  0
   18.9954   19.9319   22.0885 C   0  0  0  0  0  0  0  0  0  0  0  0
   18.9115   20.8286   21.4595 H   0  0  0  0  0  0  0  0  0  0  0  0
   18.2299   20.0458   22.8673 H   0  0  0  0  0  0  0  0  0  0  0  0
   20.4015   19.9179   22.7460 C   0  0  0  0  0  0  0  0  0  0  0  0
   20.5311   20.8424   23.3237 H   0  0  0  0  0  0  0  0  0  0  0  0
   21.1681   19.9612   21.9611 H   0  0  0  0  0  0  0  0  0  0  0  0
   20.6914   18.6958   23.6585 C   0  0  0  0  0  0  0  0  0  0  0  0
   20.7299   17.7869   23.0435 H   0  0  0  0  0  0  0  0  0  0  0  0
   21.6984   18.8062   24.0835 H   0  0  0  0  0  0  0  0  0  0  0  0
   19.6808   18.4763   24.8138 C   0  0  0  0  0  0  0  0  0  0  0  0
   19.9761   17.5675   25.3544 H   0  0  0  0  0  0  0  0  0  0  0  0
   18.6818   18.2745   24.4055 H   0  0  0  0  0  0  0  0  0  0  0  0
   19.6096   19.6642   25.8056 C   0  0  0  0  0  0  0  0  0  0  0  0
   20.6085   19.8794   26.2075 H   0  0  0  0  0  0  0  0  0  0  0  0
   19.2810   20.5683   25.2782 H   0  0  0  0  0  0  0  0  0  0  0  0
   18.6308   19.4094   26.9678 C   0  0  0  0  0  0  0  0  0  0  0  0
   17.6394   19.1767   26.5700 H   0  0  0  0  0  0  0  0  0  0  0  0
   18.5500   20.3131   27.5780 H   0  0  0  0  0  0  0  0  0  0  0  0
   19.0498   18.2750   27.8821 N   0  3  0  0  0  0  0  0  0  0  0  0
   19.1101   17.3845   27.3785 H   0  0  0  0  0  0  0  0  0  0  0  0
   18.3848   18.1408   28.6518 H   0  0  0  0  0  0  0  0  0  0  0  0
   19.9677   18.4470   28.3053 H   0  0  0  0  0  0  0  0  0  0  0  0
  1  2  1  0  0  0  0
  1  3  1  0  0  0  0
  1  4  1  0  0  0  0
  1  5  1  0  0  0  0
  5  6  1  0  0  0  0
  5  7  1  0  0  0  0
  5  8  1  0  0  0  0
  8  9  1  0  0  0  0
  8 10  1  0  0  0  0
  8 11  1  0  0  0  0
 11 12  1  0  0  0  0
 11 13  1  0  0  0  0
 11 14  1  0  0  0  0
 14 15  1  0  0  0  0
 14 16  1  0  0  0  0
 14 17  1  0  0  0  0
 17 18  1  0  0  0  0
 17 19  1  0  0  0  0
 17 20  1  0  0  0  0
 20 21  1  0  0  0  0
 20 22  1  0  0  0  0
 20 23  1  0  0  0  0
 23 24  1  0  0  0  0
 23 25  1  0  0  0  0
 23 26  1  0  0  0  0
 26 27  1  0  0  0  0
 26 28  1  0  0  0  0
 26 29  1  0  0  0  0
M  END
> <VM2 Rank>
193

> <Conf_Id>
1003

> <Probability>
0.04

> <Sum Probability>
98.51

> <Delta G>
2.855

> <G>
61.003

> <E>
22.643

> <-TS>
38.360

> <U+W>
-1.501

> <U>
50.644

> <W>
-52.145

> <W(PB)>
-54.552

> <W(SA)>
2.407

> <Valence>
4.567

> <Coulomb>
45.259

> <VdW>
0.817

> <VdW6>
-10.959

> <VdW12>
11.776

> <Bond>
0.338

> <Angle>
1.774

> <Pdih>
2.455

> <Idih>
0.000

> <Tether>
0.000

$$$$
VeraChem MOL file


 29 28  0  0  0  0  0  0  0  0999 V2000     
   20.1280   19.9445   19.5640 C   0  0  0  0  0  0  0  0  0  0  0  0
   19.2945   19.4600   19.0389 H   0  0  0  0  0  0  0  0  0  0  0  0
   20.2975   20.9233   19.0967 H   0  0  0  0  0  0  0  0  0  0  0  0
   21.0291   19.3366   19.4097 H   0  0  0  0  0  0  0  0  0  0  0  0
   19.8182   20.1048   21.0674 C   0  0  0  0  0  0  0  0  0  0  0  0
   18.9329   20.7442   21.1911 H   0  0  0  0  0  0  0  0  0  0  0  0
   20.6542   20.6221   21.5587 H   0  0  0  0  0  0  0  0  0  0  0  0
   19.5754   18.7405   21.7498 C   0  0  0  0  0  0  0  0  0  0  0  0
   18.7409   18.2265   21.2529 H   0  0  0  0  0  0  0  0  0  0  0  0
   20.4620   18.1040   21.6226 H   0  0  0  0  0  0  0  0  0  0  0  0
   19.2641   18.8975   23.2553 C   0  0  0  0  0  0  0  0  0  0  0  0
   18.3728   19.5275   23.3816 H   0  0  0  0  0  0  0  0  0  0  0  0
   20.1028   19.4163   23.7369 H   0  0  0  0  0  0  0  0  0  0  0  0
   19.0362   17.5297   23.9401 C   0  0  0  0  0  0  0  0  0  0  0  0
   18.3032   16.9561   23.3561 H   0  0  0  0  0  0  0  0  0  0  0  0
   19.9686   16.9491   23.9136 H   0  0  0  0  0  0  0  0  0  0  0  0
   18.5248   17.6178   25.4014 C   0  0  0  0  0  0  0  0  0  0  0  0
   18.3608   16.5912   25.7571 H   0  0  0  0  0  0  0  0  0  0  0  0
   17.5390   18.1026   25.4279 H   0  0  0  0  0  0  0  0  0  0  0  0
   19.4888   18.3219   26.3893 C   0  0  0  0  0  0  0  0  0  0  0  0
   19.3123   17.9200   27.3959 H   0  0  0  0  0  0  0  0  0  0  0  0
   20.5301   18.0810   26.1372 H   0  0  0  0  0  0  0  0  0  0  0  0
   19.2894   19.8491   26.4430 C   0  0  0  0  0  0  0  0  0  0  0  0
   18.2618   20.0735   26.7416 H   0  0  0  0  0  0  0  0  0  0  0  0
   19.4619   20.2892   25.4592 H   0  0  0  0  0  0  0  0  0  0  0  0
   20.2191   20.5321   27.4248 N   0  3  0  0  0  0  0  0  0  0  0  0
   20.0849   20.1865   28.3808 H   0  0  0  0  0  0  0  0  0  0  0  0
   20.0684   21.5466   27.4499 H   0  0  0  0  0  0  0  0  0  0  0  0
   21.2047   20.3818   27.1852 H   0  0  0  0  0  0  0  0  0  0  0  0
  1  2  1  0  0  0  0
  1  3  1  0  0  0  0
  1  4  1  0  0  0  0
  1  5  1  0  0  0  0
  5  6  1  0  0  0  0
  5  7  1  0  0  0  0
  5  8  1  0  0  0  0
  8  9  1  0  0  0  0
  8 10  1  0  0  0  0
  8 11  1  0  0  0  0
 11 12  1  0  0  0  0
 11 13  1  0  0  0  0
 11 14  1  0  0  0  0
 14 15  1  0  0  0  0
 14 16  1  0  0  0  0
 14 17  1  0  0  0  0
 17 18  1  0  0  0  0
 17 19  1  0  0  0  0
 17 20  1  0  0  0  0
 20 21  1  0  0  0  0
 20 22  1  0  0  0  0
 20 23  1  0  0  0  0
 23 24  1  0  0  0  0
 23 25  1  0  0  0  0
 23 26  1  0  0  0  0
 26 27  1  0  0  0  0
 26 28  1  0  0  0  0
 26 29  1  0  0  0  0
M  END
> <VM2 Rank>
194

> <Conf_Id>
1051

> <Probability>
0.04

> <Sum Probability>
98.55

> <Delta G>
2.888

> <G>
61.036

> <E>
23.512

> <-TS>
37.524

> <U+W>
-0.632

> <U>
51.492

> <W>
-52.124

> <W(PB)>
-54.657

> <W(SA)>
2.532

> <Valence>
4.974

> <Coulomb>
45.825

> <VdW>
0.694

> <VdW6>
-8.648

> <VdW12>
9.342

> <Bond>
0.214

> <Angle>
1.149

> <Pdih>
3.611

> <Idih>
0.000

> <Tether>
0.000

$$$$
VeraChem MOL file


 29 28  0  0  0  0  0  0  0  0999 V2000     
   20.2692   18.2955   20.3152 C   0  0  0  0  0  0  0  0  0  0  0  0
   20.5608   19.0713   19.5954 H   0  0  0  0  0  0  0  0  0  0  0  0
   21.0933   18.1593   21.0264 H   0  0  0  0  0  0  0  0  0  0  0  0
   20.1480   17.3539   19.7643 H   0  0  0  0  0  0  0  0  0  0  0  0
   18.9560   18.6739   21.0367 C   0  0  0  0  0  0  0  0  0  0  0  0
   18.6907   17.8904   21.7590 H   0  0  0  0  0  0  0  0  0  0  0  0
   18.1406   18.6933   20.3003 H   0  0  0  0  0  0  0  0  0  0  0  0
   19.0183   20.0526   21.7414 C   0  0  0  0  0  0  0  0  0  0  0  0
   19.1839   20.8301   20.9830 H   0  0  0  0  0  0  0  0  0  0  0  0
   18.0360   20.2747   22.1786 H   0  0  0  0  0  0  0  0  0  0  0  0
   20.1131   20.1875   22.8340 C   0  0  0  0  0  0  0  0  0  0  0  0
   20.0415   21.1887   23.2805 H   0  0  0  0  0  0  0  0  0  0  0  0
   21.1028   20.1474   22.3599 H   0  0  0  0  0  0  0  0  0  0  0  0
   20.0577   19.1287   23.9654 C   0  0  0  0  0  0  0  0  0  0  0  0
   20.2251   18.1267   23.5488 H   0  0  0  0  0  0  0  0  0  0  0  0
   20.8988   19.3173   24.6451 H   0  0  0  0  0  0  0  0  0  0  0  0
   18.7307   19.1486   24.7654 C   0  0  0  0  0  0  0  0  0  0  0  0
   17.8916   18.9389   24.0894 H   0  0  0  0  0  0  0  0  0  0  0  0
   18.5551   20.1547   25.1684 H   0  0  0  0  0  0  0  0  0  0  0  0
   18.6948   18.1064   25.9113 C   0  0  0  0  0  0  0  0  0  0  0  0
   17.7111   18.1379   26.3983 H   0  0  0  0  0  0  0  0  0  0  0  0
   18.7937   17.0985   25.4867 H   0  0  0  0  0  0  0  0  0  0  0  0
   19.7905   18.3037   26.9784 C   0  0  0  0  0  0  0  0  0  0  0  0
   20.7773   18.2215   26.5159 H   0  0  0  0  0  0  0  0  0  0  0  0
   19.7047   17.5200   27.7359 H   0  0  0  0  0  0  0  0  0  0  0  0
   19.7138   19.6412   27.6873 N   0  3  0  0  0  0  0  0  0  0  0  0
   20.4498   19.7405   28.3951 H   0  0  0  0  0  0  0  0  0  0  0  0
   18.8165   19.7659   28.1672 H   0  0  0  0  0  0  0  0  0  0  0  0
   19.8183   20.4213   27.0309 H   0  0  0  0  0  0  0  0  0  0  0  0
  1  2  1  0  0  0  0
  1  3  1  0  0  0  0
  1  4  1  0  0  0  0
  1  5  1  0  0  0  0
  5  6  1  0  0  0  0
  5  7  1  0  0  0  0
  5  8  1  0  0  0  0
  8  9  1  0  0  0  0
  8 10  1  0  0  0  0
  8 11  1  0  0  0  0
 11 12  1  0  0  0  0
 11 13  1  0  0  0  0
 11 14  1  0  0  0  0
 14 15  1  0  0  0  0
 14 16  1  0  0  0  0
 14 17  1  0  0  0  0
 17 18  1  0  0  0  0
 17 19  1  0  0  0  0
 17 20  1  0  0  0  0
 20 21  1  0  0  0  0
 20 22  1  0  0  0  0
 20 23  1  0  0  0  0
 23 24  1  0  0  0  0
 23 25  1  0  0  0  0
 23 26  1  0  0  0  0
 26 27  1  0  0  0  0
 26 28  1  0  0  0  0
 26 29  1  0  0  0  0
M  END
> <VM2 Rank>
195

> <Conf_Id>
779

> <Probability>
0.04

> <Sum Probability>
98.59

> <Delta G>
2.924

> <G>
61.072

> <E>
22.834

> <-TS>
38.238

> <U+W>
-1.310

> <U>
50.732

> <W>
-52.042

> <W(PB)>
-54.444

> <W(SA)>
2.402

> <Valence>
4.413

> <Coulomb>
45.469

> <VdW>
0.849

> <VdW6>
-10.820

> <VdW12>
11.669

> <Bond>
0.321

> <Angle>
1.661

> <Pdih>
2.430

> <Idih>
0.000

> <Tether>
0.000

$$$$
VeraChem MOL file


 29 28  0  0  0  0  0  0  0  0999 V2000     
   19.7658   19.6261   20.1486 C   0  0  0  0  0  0  0  0  0  0  0  0
   20.0875   18.7519   19.5679 H   0  0  0  0  0  0  0  0  0  0  0  0
   18.6770   19.5746   20.2729 H   0  0  0  0  0  0  0  0  0  0  0  0
   19.9894   20.5235   19.5573 H   0  0  0  0  0  0  0  0  0  0  0  0
   20.4889   19.6827   21.5130 C   0  0  0  0  0  0  0  0  0  0  0  0
   20.1399   20.5555   22.0807 H   0  0  0  0  0  0  0  0  0  0  0  0
   21.5615   19.8454   21.3384 H   0  0  0  0  0  0  0  0  0  0  0  0
   20.3154   18.3924   22.3537 C   0  0  0  0  0  0  0  0  0  0  0  0
   20.7549   17.5494   21.8031 H   0  0  0  0  0  0  0  0  0  0  0  0
   20.9077   18.4838   23.2736 H   0  0  0  0  0  0  0  0  0  0  0  0
   18.8492   18.0354   22.7178 C   0  0  0  0  0  0  0  0  0  0  0  0
   18.8472   17.1102   23.3089 H   0  0  0  0  0  0  0  0  0  0  0  0
   18.2979   17.7907   21.8003 H   0  0  0  0  0  0  0  0  0  0  0  0
   18.0729   19.1380   23.4868 C   0  0  0  0  0  0  0  0  0  0  0  0
   17.9317   20.0070   22.8306 H   0  0  0  0  0  0  0  0  0  0  0  0
   17.0622   18.7676   23.7062 H   0  0  0  0  0  0  0  0  0  0  0  0
   18.7328   19.6086   24.8083 C   0  0  0  0  0  0  0  0  0  0  0  0
   18.1073   20.3991   25.2455 H   0  0  0  0  0  0  0  0  0  0  0  0
   19.7027   20.0739   24.5917 H   0  0  0  0  0  0  0  0  0  0  0  0
   18.9062   18.4731   25.8472 C   0  0  0  0  0  0  0  0  0  0  0  0
   17.9418   17.9711   26.0013 H   0  0  0  0  0  0  0  0  0  0  0  0
   19.6011   17.7118   25.4708 H   0  0  0  0  0  0  0  0  0  0  0  0
   19.4118   18.9888   27.2080 C   0  0  0  0  0  0  0  0  0  0  0  0
   19.4383   18.1618   27.9228 H   0  0  0  0  0  0  0  0  0  0  0  0
   18.7263   19.7494   27.5912 H   0  0  0  0  0  0  0  0  0  0  0  0
   20.8010   19.5930   27.1515 N   0  3  0  0  0  0  0  0  0  0  0  0
   21.1123   19.9176   28.0736 H   0  0  0  0  0  0  0  0  0  0  0  0
   20.8375   20.3998   26.5207 H   0  0  0  0  0  0  0  0  0  0  0  0
   21.4968   18.9165   26.8210 H   0  0  0  0  0  0  0  0  0  0  0  0
  1  2  1  0  0  0  0
  1  3  1  0  0  0  0
  1  4  1  0  0  0  0
  1  5  1  0  0  0  0
  5  6  1  0  0  0  0
  5  7  1  0  0  0  0
  5  8  1  0  0  0  0
  8  9  1  0  0  0  0
  8 10  1  0  0  0  0
  8 11  1  0  0  0  0
 11 12  1  0  0  0  0
 11 13  1  0  0  0  0
 11 14  1  0  0  0  0
 14 15  1  0  0  0  0
 14 16  1  0  0  0  0
 14 17  1  0  0  0  0
 17 18  1  0  0  0  0
 17 19  1  0  0  0  0
 17 20  1  0  0  0  0
 20 21  1  0  0  0  0
 20 22  1  0  0  0  0
 20 23  1  0  0  0  0
 23 24  1  0  0  0  0
 23 25  1  0  0  0  0
 23 26  1  0  0  0  0
 26 27  1  0  0  0  0
 26 28  1  0  0  0  0
 26 29  1  0  0  0  0
M  END
> <VM2 Rank>
196

> <Conf_Id>
979

> <Probability>
0.04

> <Sum Probability>
98.63

> <Delta G>
2.956

> <G>
61.104

> <E>
22.728

> <-TS>
38.376

> <U+W>
-1.416

> <U>
51.215

> <W>
-52.631

> <W(PB)>
-55.030

> <W(SA)>
2.399

> <Valence>
4.527

> <Coulomb>
45.979

> <VdW>
0.708

> <VdW6>
-11.071

> <VdW12>
11.779

> <Bond>
0.333

> <Angle>
1.708

> <Pdih>
2.487

> <Idih>
0.000

> <Tether>
0.000

$$$$
VeraChem MOL file


 29 28  0  0  0  0  0  0  0  0999 V2000     
   19.3726   18.6458   20.0401 C   0  0  0  0  0  0  0  0  0  0  0  0
   18.7665   17.8536   20.4968 H   0  0  0  0  0  0  0  0  0  0  0  0
   18.8229   19.0216   19.1675 H   0  0  0  0  0  0  0  0  0  0  0  0
   20.3088   18.1991   19.6811 H   0  0  0  0  0  0  0  0  0  0  0  0
   19.6516   19.7914   21.0388 C   0  0  0  0  0  0  0  0  0  0  0  0
   18.7016   20.2111   21.3954 H   0  0  0  0  0  0  0  0  0  0  0  0
   20.1612   20.6074   20.5076 H   0  0  0  0  0  0  0  0  0  0  0  0
   20.5307   19.3593   22.2397 C   0  0  0  0  0  0  0  0  0  0  0  0
   21.5097   19.0336   21.8624 H   0  0  0  0  0  0  0  0  0  0  0  0
   20.7336   20.2378   22.8662 H   0  0  0  0  0  0  0  0  0  0  0  0
   19.9363   18.2256   23.1177 C   0  0  0  0  0  0  0  0  0  0  0  0
   20.6412   18.0001   23.9287 H   0  0  0  0  0  0  0  0  0  0  0  0
   19.8754   17.3032   22.5253 H   0  0  0  0  0  0  0  0  0  0  0  0
   18.5379   18.5247   23.7210 C   0  0  0  0  0  0  0  0  0  0  0  0
   17.8023   18.6021   22.9095 H   0  0  0  0  0  0  0  0  0  0  0  0
   18.2192   17.6593   24.3173 H   0  0  0  0  0  0  0  0  0  0  0  0
   18.4575   19.8066   24.5928 C   0  0  0  0  0  0  0  0  0  0  0  0
   17.4315   19.9082   24.9725 H   0  0  0  0  0  0  0  0  0  0  0  0
   18.6297   20.6902   23.9641 H   0  0  0  0  0  0  0  0  0  0  0  0
   19.4390   19.8390   25.7903 C   0  0  0  0  0  0  0  0  0  0  0  0
   20.4744   19.8550   25.4274 H   0  0  0  0  0  0  0  0  0  0  0  0
   19.2916   20.7756   26.3441 H   0  0  0  0  0  0  0  0  0  0  0  0
   19.2442   18.6506   26.7498 C   0  0  0  0  0  0  0  0  0  0  0  0
   19.4261   17.7133   26.2175 H   0  0  0  0  0  0  0  0  0  0  0  0
   18.2161   18.6424   27.1214 H   0  0  0  0  0  0  0  0  0  0  0  0
   20.1741   18.6951   27.9448 N   0  3  0  0  0  0  0  0  0  0  0  0
   20.0344   19.5422   28.5054 H   0  0  0  0  0  0  0  0  0  0  0  0
   21.1597   18.6785   27.6625 H   0  0  0  0  0  0  0  0  0  0  0  0
   20.0285   17.8952   28.5706 H   0  0  0  0  0  0  0  0  0  0  0  0
  1  2  1  0  0  0  0
  1  3  1  0  0  0  0
  1  4  1  0  0  0  0
  1  5  1  0  0  0  0
  5  6  1  0  0  0  0
  5  7  1  0  0  0  0
  5  8  1  0  0  0  0
  8  9  1  0  0  0  0
  8 10  1  0  0  0  0
  8 11  1  0  0  0  0
 11 12  1  0  0  0  0
 11 13  1  0  0  0  0
 11 14  1  0  0  0  0
 14 15  1  0  0  0  0
 14 16  1  0  0  0  0
 14 17  1  0  0  0  0
 17 18  1  0  0  0  0
 17 19  1  0  0  0  0
 17 20  1  0  0  0  0
 20 21  1  0  0  0  0
 20 22  1  0  0  0  0
 20 23  1  0  0  0  0
 23 24  1  0  0  0  0
 23 25  1  0  0  0  0
 23 26  1  0  0  0  0
 26 27  1  0  0  0  0
 26 28  1  0  0  0  0
 26 29  1  0  0  0  0
M  END
> <VM2 Rank>
197

> <Conf_Id>
968

> <Probability>
0.04

> <Sum Probability>
98.66

> <Delta G>
2.965

> <G>
61.113

> <E>
22.631

> <-TS>
38.481

> <U+W>
-1.513

> <U>
50.794

> <W>
-52.307

> <W(PB)>
-54.719

> <W(SA)>
2.412

> <Valence>
4.673

> <Coulomb>
45.528

> <VdW>
0.593

> <VdW6>
-11.313

> <VdW12>
11.906

> <Bond>
0.340

> <Angle>
1.876

> <Pdih>
2.457

> <Idih>
0.000

> <Tether>
0.000

$$$$
VeraChem MOL file


 29 28  0  0  0  0  0  0  0  0999 V2000     
   19.7138   19.6033   20.0615 C   0  0  0  0  0  0  0  0  0  0  0  0
   20.7266   19.3715   19.7073 H   0  0  0  0  0  0  0  0  0  0  0  0
   19.0627   19.6944   19.1825 H   0  0  0  0  0  0  0  0  0  0  0  0
   19.7383   20.5814   20.5577 H   0  0  0  0  0  0  0  0  0  0  0  0
   19.1918   18.5007   21.0100 C   0  0  0  0  0  0  0  0  0  0  0  0
   19.0784   17.5682   20.4398 H   0  0  0  0  0  0  0  0  0  0  0  0
   18.1854   18.7622   21.3631 H   0  0  0  0  0  0  0  0  0  0  0  0
   20.1291   18.2320   22.2145 C   0  0  0  0  0  0  0  0  0  0  0  0
   19.7223   17.3990   22.8029 H   0  0  0  0  0  0  0  0  0  0  0  0
   21.0989   17.8803   21.8367 H   0  0  0  0  0  0  0  0  0  0  0  0
   20.3726   19.4503   23.1451 C   0  0  0  0  0  0  0  0  0  0  0  0
   20.9168   20.2262   22.5906 H   0  0  0  0  0  0  0  0  0  0  0  0
   21.0499   19.1473   23.9544 H   0  0  0  0  0  0  0  0  0  0  0  0
   19.0915   20.0787   23.7558 C   0  0  0  0  0  0  0  0  0  0  0  0
   19.3830   20.9263   24.3903 H   0  0  0  0  0  0  0  0  0  0  0  0
   18.4841   20.5158   22.9523 H   0  0  0  0  0  0  0  0  0  0  0  0
   18.2067   19.1028   24.5771 C   0  0  0  0  0  0  0  0  0  0  0  0
   17.7907   18.3350   23.9114 H   0  0  0  0  0  0  0  0  0  0  0  0
   17.3422   19.6576   24.9669 H   0  0  0  0  0  0  0  0  0  0  0  0
   18.9298   18.4100   25.7584 C   0  0  0  0  0  0  0  0  0  0  0  0
   18.2159   17.7563   26.2767 H   0  0  0  0  0  0  0  0  0  0  0  0
   19.7271   17.7575   25.3805 H   0  0  0  0  0  0  0  0  0  0  0  0
   19.5165   19.4148   26.7668 C   0  0  0  0  0  0  0  0  0  0  0  0
   18.7198   20.0562   27.1530 H   0  0  0  0  0  0  0  0  0  0  0  0
   20.2573   20.0464   26.2695 H   0  0  0  0  0  0  0  0  0  0  0  0
   20.1921   18.7454   27.9459 N   0  3  0  0  0  0  0  0  0  0  0  0
   20.5759   19.4317   28.6049 H   0  0  0  0  0  0  0  0  0  0  0  0
   20.9702   18.1465   27.6505 H   0  0  0  0  0  0  0  0  0  0  0  0
   19.5406   18.1558   28.4743 H   0  0  0  0  0  0  0  0  0  0  0  0
  1  2  1  0  0  0  0
  1  3  1  0  0  0  0
  1  4  1  0  0  0  0
  1  5  1  0  0  0  0
  5  6  1  0  0  0  0
  5  7  1  0  0  0  0
  5  8  1  0  0  0  0
  8  9  1  0  0  0  0
  8 10  1  0  0  0  0
  8 11  1  0  0  0  0
 11 12  1  0  0  0  0
 11 13  1  0  0  0  0
 11 14  1  0  0  0  0
 14 15  1  0  0  0  0
 14 16  1  0  0  0  0
 14 17  1  0  0  0  0
 17 18  1  0  0  0  0
 17 19  1  0  0  0  0
 17 20  1  0  0  0  0
 20 21  1  0  0  0  0
 20 22  1  0  0  0  0
 20 23  1  0  0  0  0
 23 24  1  0  0  0  0
 23 25  1  0  0  0  0
 23 26  1  0  0  0  0
 26 27  1  0  0  0  0
 26 28  1  0  0  0  0
 26 29  1  0  0  0  0
M  END
> <VM2 Rank>
198

> <Conf_Id>
974

> <Probability>
0.03

> <Sum Probability>
98.70

> <Delta G>
3.004

> <G>
61.152

> <E>
22.671

> <-TS>
38.481

> <U+W>
-1.474

> <U>
50.794

> <W>
-52.268

> <W(PB)>
-54.672

> <W(SA)>
2.405

> <Valence>
4.673

> <Coulomb>
45.528

> <VdW>
0.593

> <VdW6>
-11.314

> <VdW12>
11.907

> <Bond>
0.340

> <Angle>
1.875

> <Pdih>
2.457

> <Idih>
0.000

> <Tether>
0.000

$$$$
VeraChem MOL file


 29 28  0  0  0  0  0  0  0  0999 V2000     
   21.1023   18.9092   21.0125 C   0  0  0  0  0  0  0  0  0  0  0  0
   21.2788   19.8701   21.5116 H   0  0  0  0  0  0  0  0  0  0  0  0
   22.0650   18.3853   20.9529 H   0  0  0  0  0  0  0  0  0  0  0  0
   20.7652   19.1110   19.9875 H   0  0  0  0  0  0  0  0  0  0  0  0
   20.0673   18.0553   21.7787 C   0  0  0  0  0  0  0  0  0  0  0  0
   20.4198   17.8785   22.8031 H   0  0  0  0  0  0  0  0  0  0  0  0
   20.0059   17.0652   21.3058 H   0  0  0  0  0  0  0  0  0  0  0  0
   18.6498   18.6812   21.8004 C   0  0  0  0  0  0  0  0  0  0  0  0
   18.2791   18.7523   20.7686 H   0  0  0  0  0  0  0  0  0  0  0  0
   17.9636   17.9934   22.3120 H   0  0  0  0  0  0  0  0  0  0  0  0
   18.5573   20.0855   22.4559 C   0  0  0  0  0  0  0  0  0  0  0  0
   17.5097   20.4155   22.4324 H   0  0  0  0  0  0  0  0  0  0  0  0
   19.1073   20.8097   21.8404 H   0  0  0  0  0  0  0  0  0  0  0  0
   19.0772   20.1694   23.9139 C   0  0  0  0  0  0  0  0  0  0  0  0
   20.1503   19.9411   23.9356 H   0  0  0  0  0  0  0  0  0  0  0  0
   18.9819   21.2093   24.2553 H   0  0  0  0  0  0  0  0  0  0  0  0
   18.3108   19.2460   24.8937 C   0  0  0  0  0  0  0  0  0  0  0  0
   18.4582   18.1945   24.6169 H   0  0  0  0  0  0  0  0  0  0  0  0
   17.2332   19.4393   24.8014 H   0  0  0  0  0  0  0  0  0  0  0  0
   18.7251   19.4550   26.3716 C   0  0  0  0  0  0  0  0  0  0  0  0
   18.4944   20.4864   26.6697 H   0  0  0  0  0  0  0  0  0  0  0  0
   18.1157   18.8069   27.0153 H   0  0  0  0  0  0  0  0  0  0  0  0
   20.2175   19.1822   26.6477 C   0  0  0  0  0  0  0  0  0  0  0  0
   20.4357   19.3877   27.6992 H   0  0  0  0  0  0  0  0  0  0  0  0
   20.8343   19.8463   26.0369 H   0  0  0  0  0  0  0  0  0  0  0  0
   20.6366   17.7542   26.3606 N   0  3  0  0  0  0  0  0  0  0  0  0
   21.6324   17.6030   26.5561 H   0  0  0  0  0  0  0  0  0  0  0  0
   20.4787   17.5058   25.3793 H   0  0  0  0  0  0  0  0  0  0  0  0
   20.1132   17.0833   26.9326 H   0  0  0  0  0  0  0  0  0  0  0  0
  1  2  1  0  0  0  0
  1  3  1  0  0  0  0
  1  4  1  0  0  0  0
  1  5  1  0  0  0  0
  5  6  1  0  0  0  0
  5  7  1  0  0  0  0
  5  8  1  0  0  0  0
  8  9  1  0  0  0  0
  8 10  1  0  0  0  0
  8 11  1  0  0  0  0
 11 12  1  0  0  0  0
 11 13  1  0  0  0  0
 11 14  1  0  0  0  0
 14 15  1  0  0  0  0
 14 16  1  0  0  0  0
 14 17  1  0  0  0  0
 17 18  1  0  0  0  0
 17 19  1  0  0  0  0
 17 20  1  0  0  0  0
 20 21  1  0  0  0  0
 20 22  1  0  0  0  0
 20 23  1  0  0  0  0
 23 24  1  0  0  0  0
 23 25  1  0  0  0  0
 23 26  1  0  0  0  0
 26 27  1  0  0  0  0
 26 28  1  0  0  0  0
 26 29  1  0  0  0  0
M  END
> <VM2 Rank>
199

> <Conf_Id>
1375

> <Probability>
0.02

> <Sum Probability>
98.72

> <Delta G>
3.279

> <G>
61.427

> <E>
23.215

> <-TS>
38.213

> <U+W>
-0.930

> <U>
51.678

> <W>
-52.608

> <W(PB)>
-54.991

> <W(SA)>
2.383

> <Valence>
4.349

> <Coulomb>
46.773

> <VdW>
0.557

> <VdW6>
-11.096

> <VdW12>
11.653

> <Bond>
0.314

> <Angle>
1.558

> <Pdih>
2.477

> <Idih>
0.000

> <Tether>
0.000

$$$$
VeraChem MOL file


 29 28  0  0  0  0  0  0  0  0999 V2000     
   19.9356   20.0079   19.8410 C   0  0  0  0  0  0  0  0  0  0  0  0
   20.8940   20.4745   20.1034 H   0  0  0  0  0  0  0  0  0  0  0  0
   19.8290   20.0507   18.7493 H   0  0  0  0  0  0  0  0  0  0  0  0
   19.1286   20.6112   20.2749 H   0  0  0  0  0  0  0  0  0  0  0  0
   19.8773   18.5439   20.3328 C   0  0  0  0  0  0  0  0  0  0  0  0
   20.6237   17.9552   19.7813 H   0  0  0  0  0  0  0  0  0  0  0  0
   18.8988   18.1094   20.0851 H   0  0  0  0  0  0  0  0  0  0  0  0
   20.1480   18.3933   21.8492 C   0  0  0  0  0  0  0  0  0  0  0  0
   20.1983   17.3223   22.0895 H   0  0  0  0  0  0  0  0  0  0  0  0
   21.1359   18.8107   22.0883 H   0  0  0  0  0  0  0  0  0  0  0  0
   19.0701   19.0603   22.7369 C   0  0  0  0  0  0  0  0  0  0  0  0
   18.0785   18.6787   22.4574 H   0  0  0  0  0  0  0  0  0  0  0  0
   19.0574   20.1437   22.5594 H   0  0  0  0  0  0  0  0  0  0  0  0
   19.3212   18.7968   24.2388 C   0  0  0  0  0  0  0  0  0  0  0  0
   19.3201   17.7140   24.4255 H   0  0  0  0  0  0  0  0  0  0  0  0
   20.3174   19.1749   24.4998 H   0  0  0  0  0  0  0  0  0  0  0  0
   18.2530   19.4787   25.1261 C   0  0  0  0  0  0  0  0  0  0  0  0
   17.2554   19.2081   24.7533 H   0  0  0  0  0  0  0  0  0  0  0  0
   18.3329   20.5697   25.0226 H   0  0  0  0  0  0  0  0  0  0  0  0
   18.3262   19.0963   26.6265 C   0  0  0  0  0  0  0  0  0  0  0  0
   17.4783   19.5724   27.1366 H   0  0  0  0  0  0  0  0  0  0  0  0
   18.1849   18.0146   26.7527 H   0  0  0  0  0  0  0  0  0  0  0  0
   19.6173   19.5475   27.3403 C   0  0  0  0  0  0  0  0  0  0  0  0
   19.4295   19.6003   28.4161 H   0  0  0  0  0  0  0  0  0  0  0  0
   19.9025   20.5453   26.9963 H   0  0  0  0  0  0  0  0  0  0  0  0
   20.7952   18.6134   27.1432 N   0  3  0  0  0  0  0  0  0  0  0  0
   21.6332   18.9503   27.6300 H   0  0  0  0  0  0  0  0  0  0  0  0
   21.0388   18.5135   26.1538 H   0  0  0  0  0  0  0  0  0  0  0  0
   20.5978   17.6738   27.5032 H   0  0  0  0  0  0  0  0  0  0  0  0
  1  2  1  0  0  0  0
  1  3  1  0  0  0  0
  1  4  1  0  0  0  0
  1  5  1  0  0  0  0
  5  6  1  0  0  0  0
  5  7  1  0  0  0  0
  5  8  1  0  0  0  0
  8  9  1  0  0  0  0
  8 10  1  0  0  0  0
  8 11  1  0  0  0  0
 11 12  1  0  0  0  0
 11 13  1  0  0  0  0
 11 14  1  0  0  0  0
 14 15  1  0  0  0  0
 14 16  1  0  0  0  0
 14 17  1  0  0  0  0
 17 18  1  0  0  0  0
 17 19  1  0  0  0  0
 17 20  1  0  0  0  0
 20 21  1  0  0  0  0
 20 22  1  0  0  0  0
 20 23  1  0  0  0  0
 23 24  1  0  0  0  0
 23 25  1  0  0  0  0
 23 26  1  0  0  0  0
 26 27  1  0  0  0  0
 26 28  1  0  0  0  0
 26 29  1  0  0  0  0
M  END
> <VM2 Rank>
200

> <Conf_Id>
2654

> <Probability>
0.02

> <Sum Probability>
98.74

> <Delta G>
3.300

> <G>
61.448

> <E>
23.996

> <-TS>
37.452

> <U+W>
-0.149

> <U>
51.917

> <W>
-52.066

> <W(PB)>
-54.539

> <W(SA)>
2.473

> <Valence>
4.676

> <Coulomb>
46.406

> <VdW>
0.834

> <VdW6>
-9.054

> <VdW12>
9.889

> <Bond>
0.237

> <Angle>
1.196

> <Pdih>
3.243

> <Idih>
0.000

> <Tether>
0.000

$$$$
VeraChem MOL file


 29 28  0  0  0  0  0  0  0  0999 V2000     
   19.2917   18.2017   19.8005 C   0  0  0  0  0  0  0  0  0  0  0  0
   19.7350   17.2242   20.0307 H   0  0  0  0  0  0  0  0  0  0  0  0
   18.2789   18.2281   20.2214 H   0  0  0  0  0  0  0  0  0  0  0  0
   19.1976   18.2793   18.7096 H   0  0  0  0  0  0  0  0  0  0  0  0
   20.1654   19.3515   20.3510 C   0  0  0  0  0  0  0  0  0  0  0  0
   19.6858   20.3163   20.1346 H   0  0  0  0  0  0  0  0  0  0  0  0
   21.1236   19.3568   19.8128 H   0  0  0  0  0  0  0  0  0  0  0  0
   20.4487   19.2365   21.8682 C   0  0  0  0  0  0  0  0  0  0  0  0
   20.9465   18.2794   22.0765 H   0  0  0  0  0  0  0  0  0  0  0  0
   21.1614   20.0238   22.1502 H   0  0  0  0  0  0  0  0  0  0  0  0
   19.1794   19.3667   22.7438 C   0  0  0  0  0  0  0  0  0  0  0  0
   18.4871   18.5435   22.5236 H   0  0  0  0  0  0  0  0  0  0  0  0
   18.6564   20.3000   22.4936 H   0  0  0  0  0  0  0  0  0  0  0  0
   19.5191   19.3523   24.2513 C   0  0  0  0  0  0  0  0  0  0  0  0
   20.0482   18.4196   24.4830 H   0  0  0  0  0  0  0  0  0  0  0  0
   20.2001   20.1835   24.4808 H   0  0  0  0  0  0  0  0  0  0  0  0
   18.2480   19.4647   25.1258 C   0  0  0  0  0  0  0  0  0  0  0  0
   17.6217   18.5740   24.9780 H   0  0  0  0  0  0  0  0  0  0  0  0
   17.6514   20.3194   24.7780 H   0  0  0  0  0  0  0  0  0  0  0  0
   18.5251   19.6550   26.6390 C   0  0  0  0  0  0  0  0  0  0  0  0
   19.0975   20.5764   26.8099 H   0  0  0  0  0  0  0  0  0  0  0  0
   17.5600   19.8020   27.1418 H   0  0  0  0  0  0  0  0  0  0  0  0
   19.2304   18.4616   27.3160 C   0  0  0  0  0  0  0  0  0  0  0  0
   18.8258   17.5227   26.9287 H   0  0  0  0  0  0  0  0  0  0  0  0
   19.0364   18.4968   28.3914 H   0  0  0  0  0  0  0  0  0  0  0  0
   20.7362   18.4481   27.1395 N   0  3  0  0  0  0  0  0  0  0  0  0
   21.0021   18.4107   26.1514 H   0  0  0  0  0  0  0  0  0  0  0  0
   21.1658   17.6385   27.6007 H   0  0  0  0  0  0  0  0  0  0  0  0
   21.1720   19.2858   27.5391 H   0  0  0  0  0  0  0  0  0  0  0  0
  1  2  1  0  0  0  0
  1  3  1  0  0  0  0
  1  4  1  0  0  0  0
  1  5  1  0  0  0  0
  5  6  1  0  0  0  0
  5  7  1  0  0  0  0
  5  8  1  0  0  0  0
  8  9  1  0  0  0  0
  8 10  1  0  0  0  0
  8 11  1  0  0  0  0
 11 12  1  0  0  0  0
 11 13  1  0  0  0  0
 11 14  1  0  0  0  0
 14 15  1  0  0  0  0
 14 16  1  0  0  0  0
 14 17  1  0  0  0  0
 17 18  1  0  0  0  0
 17 19  1  0  0  0  0
 17 20  1  0  0  0  0
 20 21  1  0  0  0  0
 20 22  1  0  0  0  0
 20 23  1  0  0  0  0
 23 24  1  0  0  0  0
 23 25  1  0  0  0  0
 23 26  1  0  0  0  0
 26 27  1  0  0  0  0
 26 28  1  0  0  0  0
 26 29  1  0  0  0  0
M  END
> <VM2 Rank>
201

> <Conf_Id>
643

> <Probability>
0.02

> <Sum Probability>
98.76

> <Delta G>
3.309

> <G>
61.457

> <E>
24.005

> <-TS>
37.452

> <U+W>
-0.139

> <U>
51.917

> <W>
-52.057

> <W(PB)>
-54.529

> <W(SA)>
2.473

> <Valence>
4.676

> <Coulomb>
46.406

> <VdW>
0.835

> <VdW6>
-9.055

> <VdW12>
9.890

> <Bond>
0.237

> <Angle>
1.196

> <Pdih>
3.243

> <Idih>
0.000

> <Tether>
0.000

$$$$
VeraChem MOL file


 29 28  0  0  0  0  0  0  0  0999 V2000     
   19.4410   17.3887   20.3358 C   0  0  0  0  0  0  0  0  0  0  0  0
   19.7640   17.7759   19.3606 H   0  0  0  0  0  0  0  0  0  0  0  0
   20.2876   16.8581   20.7906 H   0  0  0  0  0  0  0  0  0  0  0  0
   18.6405   16.6584   20.1601 H   0  0  0  0  0  0  0  0  0  0  0  0
   18.9468   18.5297   21.2498 C   0  0  0  0  0  0  0  0  0  0  0  0
   18.5920   18.1039   22.1960 H   0  0  0  0  0  0  0  0  0  0  0  0
   18.0796   19.0174   20.7829 H   0  0  0  0  0  0  0  0  0  0  0  0
   20.0564   19.5787   21.5026 C   0  0  0  0  0  0  0  0  0  0  0  0
   20.9552   19.0960   21.9103 H   0  0  0  0  0  0  0  0  0  0  0  0
   20.3533   20.0012   20.5327 H   0  0  0  0  0  0  0  0  0  0  0  0
   19.6086   20.7405   22.4274 C   0  0  0  0  0  0  0  0  0  0  0  0
   18.5269   20.9082   22.3329 H   0  0  0  0  0  0  0  0  0  0  0  0
   20.0830   21.6647   22.0693 H   0  0  0  0  0  0  0  0  0  0  0  0
   19.9931   20.5677   23.9196 C   0  0  0  0  0  0  0  0  0  0  0  0
   21.0866   20.5104   24.0097 H   0  0  0  0  0  0  0  0  0  0  0  0
   19.6892   21.4750   24.4599 H   0  0  0  0  0  0  0  0  0  0  0  0
   19.3558   19.3365   24.6046 C   0  0  0  0  0  0  0  0  0  0  0  0
   19.7485   18.4168   24.1514 H   0  0  0  0  0  0  0  0  0  0  0  0
   18.2696   19.3434   24.4393 H   0  0  0  0  0  0  0  0  0  0  0  0
   19.6456   19.3092   26.1213 C   0  0  0  0  0  0  0  0  0  0  0  0
   20.7308   19.3040   26.2903 H   0  0  0  0  0  0  0  0  0  0  0  0
   19.2503   20.2200   26.5906 H   0  0  0  0  0  0  0  0  0  0  0  0
   19.0172   18.0749   26.7916 C   0  0  0  0  0  0  0  0  0  0  0  0
   19.4204   17.1648   26.3392 H   0  0  0  0  0  0  0  0  0  0  0  0
   17.9345   18.0846   26.6396 H   0  0  0  0  0  0  0  0  0  0  0  0
   19.2795   18.0119   28.2823 N   0  3  0  0  0  0  0  0  0  0  0  0
   18.8526   17.1825   28.7095 H   0  0  0  0  0  0  0  0  0  0  0  0
   18.8997   18.8291   28.7717 H   0  0  0  0  0  0  0  0  0  0  0  0
   20.2825   17.9733   28.4922 H   0  0  0  0  0  0  0  0  0  0  0  0
  1  2  1  0  0  0  0
  1  3  1  0  0  0  0
  1  4  1  0  0  0  0
  1  5  1  0  0  0  0
  5  6  1  0  0  0  0
  5  7  1  0  0  0  0
  5  8  1  0  0  0  0
  8  9  1  0  0  0  0
  8 10  1  0  0  0  0
  8 11  1  0  0  0  0
 11 12  1  0  0  0  0
 11 13  1  0  0  0  0
 11 14  1  0  0  0  0
 14 15  1  0  0  0  0
 14 16  1  0  0  0  0
 14 17  1  0  0  0  0
 17 18  1  0  0  0  0
 17 19  1  0  0  0  0
 17 20  1  0  0  0  0
 20 21  1  0  0  0  0
 20 22  1  0  0  0  0
 20 23  1  0  0  0  0
 23 24  1  0  0  0  0
 23 25  1  0  0  0  0
 23 26  1  0  0  0  0
 26 27  1  0  0  0  0
 26 28  1  0  0  0  0
 26 29  1  0  0  0  0
M  END
> <VM2 Rank>
202

> <Conf_Id>
2171

> <Probability>
0.02

> <Sum Probability>
98.78

> <Delta G>
3.322

> <G>
61.470

> <E>
23.901

> <-TS>
37.569

> <U+W>
-0.244

> <U>
51.355

> <W>
-51.598

> <W(PB)>
-54.064

> <W(SA)>
2.465

> <Valence>
5.617

> <Coulomb>
44.962

> <VdW>
0.776

> <VdW6>
-8.606

> <VdW12>
9.382

> <Bond>
0.231

> <Angle>
1.168

> <Pdih>
4.217

> <Idih>
0.000

> <Tether>
0.000

$$$$
VeraChem MOL file


 29 28  0  0  0  0  0  0  0  0999 V2000     
   18.8635   19.2810   19.4813 C   0  0  0  0  0  0  0  0  0  0  0  0
   17.9391   19.5072   18.9343 H   0  0  0  0  0  0  0  0  0  0  0  0
   19.6109   20.0373   19.2076 H   0  0  0  0  0  0  0  0  0  0  0  0
   19.2263   18.3026   19.1401 H   0  0  0  0  0  0  0  0  0  0  0  0
   18.6092   19.2782   21.0035 C   0  0  0  0  0  0  0  0  0  0  0  0
   17.8343   18.5363   21.2423 H   0  0  0  0  0  0  0  0  0  0  0  0
   18.2155   20.2577   21.3091 H   0  0  0  0  0  0  0  0  0  0  0  0
   19.8959   18.9622   21.7976 C   0  0  0  0  0  0  0  0  0  0  0  0
   20.2867   17.9836   21.4860 H   0  0  0  0  0  0  0  0  0  0  0  0
   20.6683   19.7051   21.5549 H   0  0  0  0  0  0  0  0  0  0  0  0
   19.6444   18.9579   23.3223 C   0  0  0  0  0  0  0  0  0  0  0  0
   18.8779   18.2093   23.5654 H   0  0  0  0  0  0  0  0  0  0  0  0
   19.2502   19.9386   23.6168 H   0  0  0  0  0  0  0  0  0  0  0  0
   20.9370   18.6576   24.1164 C   0  0  0  0  0  0  0  0  0  0  0  0
   21.4134   17.7614   23.6954 H   0  0  0  0  0  0  0  0  0  0  0  0
   21.6525   19.4788   23.9724 H   0  0  0  0  0  0  0  0  0  0  0  0
   20.7224   18.4190   25.6335 C   0  0  0  0  0  0  0  0  0  0  0  0
   21.7001   18.1674   26.0673 H   0  0  0  0  0  0  0  0  0  0  0  0
   20.0966   17.5306   25.7882 H   0  0  0  0  0  0  0  0  0  0  0  0
   20.1528   19.6330   26.4153 C   0  0  0  0  0  0  0  0  0  0  0  0
   20.4709   19.5612   27.4639 H   0  0  0  0  0  0  0  0  0  0  0  0
   20.5959   20.5608   26.0298 H   0  0  0  0  0  0  0  0  0  0  0  0
   18.6141   19.7498   26.3892 C   0  0  0  0  0  0  0  0  0  0  0  0
   18.2531   19.8006   25.3607 H   0  0  0  0  0  0  0  0  0  0  0  0
   18.3151   20.6702   26.8980 H   0  0  0  0  0  0  0  0  0  0  0  0
   17.9046   18.5994   27.0759 N   0  3  0  0  0  0  0  0  0  0  0  0
   18.1141   17.7025   26.6270 H   0  0  0  0  0  0  0  0  0  0  0  0
   16.8854   18.7150   27.0574 H   0  0  0  0  0  0  0  0  0  0  0  0
   18.1790   18.5171   28.0604 H   0  0  0  0  0  0  0  0  0  0  0  0
  1  2  1  0  0  0  0
  1  3  1  0  0  0  0
  1  4  1  0  0  0  0
  1  5  1  0  0  0  0
  5  6  1  0  0  0  0
  5  7  1  0  0  0  0
  5  8  1  0  0  0  0
  8  9  1  0  0  0  0
  8 10  1  0  0  0  0
  8 11  1  0  0  0  0
 11 12  1  0  0  0  0
 11 13  1  0  0  0  0
 11 14  1  0  0  0  0
 14 15  1  0  0  0  0
 14 16  1  0  0  0  0
 14 17  1  0  0  0  0
 17 18  1  0  0  0  0
 17 19  1  0  0  0  0
 17 20  1  0  0  0  0
 20 21  1  0  0  0  0
 20 22  1  0  0  0  0
 20 23  1  0  0  0  0
 23 24  1  0  0  0  0
 23 25  1  0  0  0  0
 23 26  1  0  0  0  0
 26 27  1  0  0  0  0
 26 28  1  0  0  0  0
 26 29  1  0  0  0  0
M  END
> <VM2 Rank>
203

> <Conf_Id>
2192

> <Probability>
0.02

> <Sum Probability>
98.80

> <Delta G>
3.331

> <G>
61.479

> <E>
23.895

> <-TS>
37.584

> <U+W>
-0.249

> <U>
51.962

> <W>
-52.211

> <W(PB)>
-54.709

> <W(SA)>
2.498

> <Valence>
5.131

> <Coulomb>
46.085

> <VdW>
0.747

> <VdW6>
-9.218

> <VdW12>
9.965

> <Bond>
0.247

> <Angle>
1.342

> <Pdih>
3.542

> <Idih>
0.000

> <Tether>
0.000

$$$$
VeraChem MOL file


 29 28  0  0  0  0  0  0  0  0999 V2000     
   20.2176   17.6742   20.7634 C   0  0  0  0  0  0  0  0  0  0  0  0
   21.2335   17.9281   21.0922 H   0  0  0  0  0  0  0  0  0  0  0  0
   19.6680   17.2549   21.6151 H   0  0  0  0  0  0  0  0  0  0  0  0
   20.2972   16.8851   20.0045 H   0  0  0  0  0  0  0  0  0  0  0  0
   19.4946   18.9092   20.1834 C   0  0  0  0  0  0  0  0  0  0  0  0
   18.4613   18.6384   19.9251 H   0  0  0  0  0  0  0  0  0  0  0  0
   19.9806   19.1903   19.2387 H   0  0  0  0  0  0  0  0  0  0  0  0
   19.4892   20.1445   21.1196 C   0  0  0  0  0  0  0  0  0  0  0  0
   20.5178   20.4857   21.3006 H   0  0  0  0  0  0  0  0  0  0  0  0
   18.9959   20.9651   20.5804 H   0  0  0  0  0  0  0  0  0  0  0  0
   18.7462   19.9357   22.4649 C   0  0  0  0  0  0  0  0  0  0  0  0
   17.9473   19.1916   22.3420 H   0  0  0  0  0  0  0  0  0  0  0  0
   18.2464   20.8761   22.7352 H   0  0  0  0  0  0  0  0  0  0  0  0
   19.6833   19.5357   23.6307 C   0  0  0  0  0  0  0  0  0  0  0  0
   20.2293   18.6173   23.3849 H   0  0  0  0  0  0  0  0  0  0  0  0
   20.4393   20.3199   23.7748 H   0  0  0  0  0  0  0  0  0  0  0  0
   18.9023   19.3278   24.9478 C   0  0  0  0  0  0  0  0  0  0  0  0
   18.1447   18.5445   24.8056 H   0  0  0  0  0  0  0  0  0  0  0  0
   18.3621   20.2498   25.2048 H   0  0  0  0  0  0  0  0  0  0  0  0
   19.8350   18.9355   26.1146 C   0  0  0  0  0  0  0  0  0  0  0  0
   20.3726   18.0113   25.8638 H   0  0  0  0  0  0  0  0  0  0  0  0
   20.5909   19.7182   26.2631 H   0  0  0  0  0  0  0  0  0  0  0  0
   19.0472   18.7308   27.4203 C   0  0  0  0  0  0  0  0  0  0  0  0
   18.3043   17.9405   27.2821 H   0  0  0  0  0  0  0  0  0  0  0  0
   18.5232   19.6538   27.6828 H   0  0  0  0  0  0  0  0  0  0  0  0
   19.9287   18.3445   28.5903 N   0  3  0  0  0  0  0  0  0  0  0  0
   20.4303   17.4671   28.4172 H   0  0  0  0  0  0  0  0  0  0  0  0
   19.3844   18.2130   29.4501 H   0  0  0  0  0  0  0  0  0  0  0  0
   20.6341   19.0615   28.7900 H   0  0  0  0  0  0  0  0  0  0  0  0
  1  2  1  0  0  0  0
  1  3  1  0  0  0  0
  1  4  1  0  0  0  0
  1  5  1  0  0  0  0
  5  6  1  0  0  0  0
  5  7  1  0  0  0  0
  5  8  1  0  0  0  0
  8  9  1  0  0  0  0
  8 10  1  0  0  0  0
  8 11  1  0  0  0  0
 11 12  1  0  0  0  0
 11 13  1  0  0  0  0
 11 14  1  0  0  0  0
 14 15  1  0  0  0  0
 14 16  1  0  0  0  0
 14 17  1  0  0  0  0
 17 18  1  0  0  0  0
 17 19  1  0  0  0  0
 17 20  1  0  0  0  0
 20 21  1  0  0  0  0
 20 22  1  0  0  0  0
 20 23  1  0  0  0  0
 23 24  1  0  0  0  0
 23 25  1  0  0  0  0
 23 26  1  0  0  0  0
 26 27  1  0  0  0  0
 26 28  1  0  0  0  0
 26 29  1  0  0  0  0
M  END
> <VM2 Rank>
204

> <Conf_Id>
876

> <Probability>
0.02

> <Sum Probability>
98.82

> <Delta G>
3.332

> <G>
61.480

> <E>
23.941

> <-TS>
37.538

> <U+W>
-0.203

> <U>
51.075

> <W>
-51.278

> <W(PB)>
-53.783

> <W(SA)>
2.505

> <Valence>
5.555

> <Coulomb>
44.691

> <VdW>
0.829

> <VdW6>
-8.485

> <VdW12>
9.313

> <Bond>
0.230

> <Angle>
1.153

> <Pdih>
4.172

> <Idih>
0.000

> <Tether>
0.000

$$$$
VeraChem MOL file


 29 28  0  0  0  0  0  0  0  0999 V2000     
   20.7326   17.5862   20.5277 C   0  0  0  0  0  0  0  0  0  0  0  0
   20.7228   17.2742   19.4752 H   0  0  0  0  0  0  0  0  0  0  0  0
   21.7392   17.9579   20.7597 H   0  0  0  0  0  0  0  0  0  0  0  0
   20.5454   16.6975   21.1445 H   0  0  0  0  0  0  0  0  0  0  0  0
   19.6675   18.6734   20.7835 C   0  0  0  0  0  0  0  0  0  0  0  0
   18.6762   18.2842   20.5117 H   0  0  0  0  0  0  0  0  0  0  0  0
   19.8610   19.5341   20.1282 H   0  0  0  0  0  0  0  0  0  0  0  0
   19.6612   19.1309   22.2588 C   0  0  0  0  0  0  0  0  0  0  0  0
   19.4732   18.2596   22.8995 H   0  0  0  0  0  0  0  0  0  0  0  0
   20.6523   19.5236   22.5244 H   0  0  0  0  0  0  0  0  0  0  0  0
   18.5869   20.2116   22.5210 C   0  0  0  0  0  0  0  0  0  0  0  0
   17.5899   19.7859   22.3418 H   0  0  0  0  0  0  0  0  0  0  0  0
   18.7091   21.0218   21.7889 H   0  0  0  0  0  0  0  0  0  0  0  0
   18.6343   20.8309   23.9417 C   0  0  0  0  0  0  0  0  0  0  0  0
   19.5876   21.3556   24.0933 H   0  0  0  0  0  0  0  0  0  0  0  0
   17.8589   21.6082   23.9886 H   0  0  0  0  0  0  0  0  0  0  0  0
   18.3818   19.8273   25.0969 C   0  0  0  0  0  0  0  0  0  0  0  0
   17.7441   19.0029   24.7488 H   0  0  0  0  0  0  0  0  0  0  0  0
   17.8116   20.3395   25.8844 H   0  0  0  0  0  0  0  0  0  0  0  0
   19.6822   19.2748   25.7283 C   0  0  0  0  0  0  0  0  0  0  0  0
   20.2998   18.7787   24.9711 H   0  0  0  0  0  0  0  0  0  0  0  0
   20.2775   20.1066   26.1279 H   0  0  0  0  0  0  0  0  0  0  0  0
   19.3751   18.2802   26.8613 C   0  0  0  0  0  0  0  0  0  0  0  0
   18.7967   17.4403   26.4671 H   0  0  0  0  0  0  0  0  0  0  0  0
   18.7808   18.7748   27.6344 H   0  0  0  0  0  0  0  0  0  0  0  0
   20.6225   17.7228   27.5159 N   0  3  0  0  0  0  0  0  0  0  0  0
   20.3952   17.0631   28.2682 H   0  0  0  0  0  0  0  0  0  0  0  0
   21.1986   18.4624   27.9313 H   0  0  0  0  0  0  0  0  0  0  0  0
   21.2134   17.2196   26.8458 H   0  0  0  0  0  0  0  0  0  0  0  0
  1  2  1  0  0  0  0
  1  3  1  0  0  0  0
  1  4  1  0  0  0  0
  1  5  1  0  0  0  0
  5  6  1  0  0  0  0
  5  7  1  0  0  0  0
  5  8  1  0  0  0  0
  8  9  1  0  0  0  0
  8 10  1  0  0  0  0
  8 11  1  0  0  0  0
 11 12  1  0  0  0  0
 11 13  1  0  0  0  0
 11 14  1  0  0  0  0
 14 15  1  0  0  0  0
 14 16  1  0  0  0  0
 14 17  1  0  0  0  0
 17 18  1  0  0  0  0
 17 19  1  0  0  0  0
 17 20  1  0  0  0  0
 20 21  1  0  0  0  0
 20 22  1  0  0  0  0
 20 23  1  0  0  0  0
 23 24  1  0  0  0  0
 23 25  1  0  0  0  0
 23 26  1  0  0  0  0
 26 27  1  0  0  0  0
 26 28  1  0  0  0  0
 26 29  1  0  0  0  0
M  END
> <VM2 Rank>
205

> <Conf_Id>
2609

> <Probability>
0.02

> <Sum Probability>
98.84

> <Delta G>
3.338

> <G>
61.486

> <E>
23.917

> <-TS>
37.569

> <U+W>
-0.228

> <U>
51.882

> <W>
-52.110

> <W(PB)>
-54.621

> <W(SA)>
2.510

> <Valence>
5.610

> <Coulomb>
45.523

> <VdW>
0.750

> <VdW6>
-8.643

> <VdW12>
9.392

> <Bond>
0.233

> <Angle>
1.171

> <Pdih>
4.207

> <Idih>
0.000

> <Tether>
0.000

$$$$
VeraChem MOL file


 29 28  0  0  0  0  0  0  0  0999 V2000     
   21.4302   19.5448   20.5714 C   0  0  0  0  0  0  0  0  0  0  0  0
   21.9722   18.6119   20.7744 H   0  0  0  0  0  0  0  0  0  0  0  0
   21.6346   19.8342   19.5325 H   0  0  0  0  0  0  0  0  0  0  0  0
   21.8380   20.3265   21.2256 H   0  0  0  0  0  0  0  0  0  0  0  0
   19.9143   19.3661   20.7990 C   0  0  0  0  0  0  0  0  0  0  0  0
   19.5296   18.6035   20.1074 H   0  0  0  0  0  0  0  0  0  0  0  0
   19.3958   20.3045   20.5569 H   0  0  0  0  0  0  0  0  0  0  0  0
   19.5995   18.9574   22.2549 C   0  0  0  0  0  0  0  0  0  0  0  0
   20.1154   18.0166   22.4907 H   0  0  0  0  0  0  0  0  0  0  0  0
   19.9953   19.7251   22.9322 H   0  0  0  0  0  0  0  0  0  0  0  0
   18.0803   18.7895   22.4892 C   0  0  0  0  0  0  0  0  0  0  0  0
   17.6733   18.1142   21.7240 H   0  0  0  0  0  0  0  0  0  0  0  0
   17.5794   19.7562   22.3411 H   0  0  0  0  0  0  0  0  0  0  0  0
   17.7056   18.2240   23.8835 C   0  0  0  0  0  0  0  0  0  0  0  0
   16.6129   18.1106   23.9105 H   0  0  0  0  0  0  0  0  0  0  0  0
   18.1106   17.2094   24.0007 H   0  0  0  0  0  0  0  0  0  0  0  0
   18.1280   19.1147   25.0809 C   0  0  0  0  0  0  0  0  0  0  0  0
   17.3513   19.0475   25.8555 H   0  0  0  0  0  0  0  0  0  0  0  0
   18.1599   20.1695   24.7747 H   0  0  0  0  0  0  0  0  0  0  0  0
   19.4758   18.6953   25.7154 C   0  0  0  0  0  0  0  0  0  0  0  0
   19.4056   17.6596   26.0734 H   0  0  0  0  0  0  0  0  0  0  0  0
   20.2785   18.7189   24.9699 H   0  0  0  0  0  0  0  0  0  0  0  0
   19.8504   19.6144   26.8911 C   0  0  0  0  0  0  0  0  0  0  0  0
   19.0664   19.5768   27.6522 H   0  0  0  0  0  0  0  0  0  0  0  0
   19.9387   20.6456   26.5385 H   0  0  0  0  0  0  0  0  0  0  0  0
   21.1600   19.2316   27.5496 N   0  3  0  0  0  0  0  0  0  0  0  0
   21.3901   19.8561   28.3305 H   0  0  0  0  0  0  0  0  0  0  0  0
   21.9453   19.2740   26.8917 H   0  0  0  0  0  0  0  0  0  0  0  0
   21.1330   18.2787   27.9273 H   0  0  0  0  0  0  0  0  0  0  0  0
  1  2  1  0  0  0  0
  1  3  1  0  0  0  0
  1  4  1  0  0  0  0
  1  5  1  0  0  0  0
  5  6  1  0  0  0  0
  5  7  1  0  0  0  0
  5  8  1  0  0  0  0
  8  9  1  0  0  0  0
  8 10  1  0  0  0  0
  8 11  1  0  0  0  0
 11 12  1  0  0  0  0
 11 13  1  0  0  0  0
 11 14  1  0  0  0  0
 14 15  1  0  0  0  0
 14 16  1  0  0  0  0
 14 17  1  0  0  0  0
 17 18  1  0  0  0  0
 17 19  1  0  0  0  0
 17 20  1  0  0  0  0
 20 21  1  0  0  0  0
 20 22  1  0  0  0  0
 20 23  1  0  0  0  0
 23 24  1  0  0  0  0
 23 25  1  0  0  0  0
 23 26  1  0  0  0  0
 26 27  1  0  0  0  0
 26 28  1  0  0  0  0
 26 29  1  0  0  0  0
M  END
> <VM2 Rank>
206

> <Conf_Id>
189

> <Probability>
0.02

> <Sum Probability>
98.86

> <Delta G>
3.357

> <G>
61.505

> <E>
23.935

> <-TS>
37.569

> <U+W>
-0.209

> <U>
51.882

> <W>
-52.092

> <W(PB)>
-54.589

> <W(SA)>
2.497

> <Valence>
5.610

> <Coulomb>
45.523

> <VdW>
0.750

> <VdW6>
-8.643

> <VdW12>
9.392

> <Bond>
0.233

> <Angle>
1.170

> <Pdih>
4.207

> <Idih>
0.000

> <Tether>
0.000

$$$$
VeraChem MOL file


 29 28  0  0  0  0  0  0  0  0999 V2000     
   20.1402   18.1795   19.6087 C   0  0  0  0  0  0  0  0  0  0  0  0
   20.1053   18.4589   18.5477 H   0  0  0  0  0  0  0  0  0  0  0  0
   21.1693   17.8786   19.8445 H   0  0  0  0  0  0  0  0  0  0  0  0
   19.4882   17.3076   19.7493 H   0  0  0  0  0  0  0  0  0  0  0  0
   19.6897   19.3581   20.4976 C   0  0  0  0  0  0  0  0  0  0  0  0
   18.6703   19.6579   20.2166 H   0  0  0  0  0  0  0  0  0  0  0  0
   20.3385   20.2249   20.3095 H   0  0  0  0  0  0  0  0  0  0  0  0
   19.7301   18.9912   21.9975 C   0  0  0  0  0  0  0  0  0  0  0  0
   19.0854   18.1195   22.1706 H   0  0  0  0  0  0  0  0  0  0  0  0
   20.7510   18.6937   22.2739 H   0  0  0  0  0  0  0  0  0  0  0  0
   19.2748   20.1709   22.8896 C   0  0  0  0  0  0  0  0  0  0  0  0
   18.2366   20.4383   22.6488 H   0  0  0  0  0  0  0  0  0  0  0  0
   19.8834   21.0546   22.6533 H   0  0  0  0  0  0  0  0  0  0  0  0
   19.3975   19.8809   24.4056 C   0  0  0  0  0  0  0  0  0  0  0  0
   20.4437   19.6443   24.6358 H   0  0  0  0  0  0  0  0  0  0  0  0
   19.1479   20.7984   24.9561 H   0  0  0  0  0  0  0  0  0  0  0  0
   18.4768   18.7317   24.8864 C   0  0  0  0  0  0  0  0  0  0  0  0
   18.8310   17.7749   24.4802 H   0  0  0  0  0  0  0  0  0  0  0  0
   17.4698   18.8876   24.4754 H   0  0  0  0  0  0  0  0  0  0  0  0
   18.3559   18.6128   26.4272 C   0  0  0  0  0  0  0  0  0  0  0  0
   17.9544   19.5421   26.8527 H   0  0  0  0  0  0  0  0  0  0  0  0
   17.6128   17.8349   26.6474 H   0  0  0  0  0  0  0  0  0  0  0  0
   19.6665   18.2260   27.1431 C   0  0  0  0  0  0  0  0  0  0  0  0
   20.1925   17.4605   26.5664 H   0  0  0  0  0  0  0  0  0  0  0  0
   19.4260   17.8065   28.1238 H   0  0  0  0  0  0  0  0  0  0  0  0
   20.6126   19.3869   27.3793 N   0  3  0  0  0  0  0  0  0  0  0  0
   20.8930   19.8320   26.5009 H   0  0  0  0  0  0  0  0  0  0  0  0
   21.4706   19.0873   27.8554 H   0  0  0  0  0  0  0  0  0  0  0  0
   20.1839   20.1122   27.9636 H   0  0  0  0  0  0  0  0  0  0  0  0
  1  2  1  0  0  0  0
  1  3  1  0  0  0  0
  1  4  1  0  0  0  0
  1  5  1  0  0  0  0
  5  6  1  0  0  0  0
  5  7  1  0  0  0  0
  5  8  1  0  0  0  0
  8  9  1  0  0  0  0
  8 10  1  0  0  0  0
  8 11  1  0  0  0  0
 11 12  1  0  0  0  0
 11 13  1  0  0  0  0
 11 14  1  0  0  0  0
 14 15  1  0  0  0  0
 14 16  1  0  0  0  0
 14 17  1  0  0  0  0
 17 18  1  0  0  0  0
 17 19  1  0  0  0  0
 17 20  1  0  0  0  0
 20 21  1  0  0  0  0
 20 22  1  0  0  0  0
 20 23  1  0  0  0  0
 23 24  1  0  0  0  0
 23 25  1  0  0  0  0
 23 26  1  0  0  0  0
 26 27  1  0  0  0  0
 26 28  1  0  0  0  0
 26 29  1  0  0  0  0
M  END
> <VM2 Rank>
207

> <Conf_Id>
1883

> <Probability>
0.02

> <Sum Probability>
98.88

> <Delta G>
3.364

> <G>
61.512

> <E>
24.028

> <-TS>
37.484

> <U+W>
-0.117

> <U>
51.807

> <W>
-51.923

> <W(PB)>
-54.417

> <W(SA)>
2.494

> <Valence>
4.647

> <Coulomb>
46.372

> <VdW>
0.788

> <VdW6>
-9.151

> <VdW12>
9.939

> <Bond>
0.242

> <Angle>
1.145

> <Pdih>
3.261

> <Idih>
0.000

> <Tether>
0.000

$$$$
VeraChem MOL file


 29 28  0  0  0  0  0  0  0  0999 V2000     
   20.5567   20.5218   20.4063 C   0  0  0  0  0  0  0  0  0  0  0  0
   20.5770   20.0565   19.4122 H   0  0  0  0  0  0  0  0  0  0  0  0
   20.3998   21.5998   20.2707 H   0  0  0  0  0  0  0  0  0  0  0  0
   21.5415   20.3802   20.8704 H   0  0  0  0  0  0  0  0  0  0  0  0
   19.4396   19.9142   21.2807 C   0  0  0  0  0  0  0  0  0  0  0  0
   18.4662   20.1026   20.8066 H   0  0  0  0  0  0  0  0  0  0  0  0
   19.4197   20.4306   22.2479 H   0  0  0  0  0  0  0  0  0  0  0  0
   19.6337   18.3912   21.4763 C   0  0  0  0  0  0  0  0  0  0  0  0
   19.6111   17.9149   20.4863 H   0  0  0  0  0  0  0  0  0  0  0  0
   20.6294   18.1812   21.8904 H   0  0  0  0  0  0  0  0  0  0  0  0
   18.5396   17.7378   22.3603 C   0  0  0  0  0  0  0  0  0  0  0  0
   18.3287   16.7368   21.9592 H   0  0  0  0  0  0  0  0  0  0  0  0
   17.5966   18.2950   22.2743 H   0  0  0  0  0  0  0  0  0  0  0  0
   18.9254   17.5697   23.8527 C   0  0  0  0  0  0  0  0  0  0  0  0
   18.1090   17.0379   24.3607 H   0  0  0  0  0  0  0  0  0  0  0  0
   19.8079   16.9196   23.9297 H   0  0  0  0  0  0  0  0  0  0  0  0
   19.1995   18.8983   24.5947 C   0  0  0  0  0  0  0  0  0  0  0  0
   18.3555   19.5857   24.4447 H   0  0  0  0  0  0  0  0  0  0  0  0
   20.0911   19.3803   24.1727 H   0  0  0  0  0  0  0  0  0  0  0  0
   19.4201   18.6763   26.1071 C   0  0  0  0  0  0  0  0  0  0  0  0
   18.5318   18.2024   26.5456 H   0  0  0  0  0  0  0  0  0  0  0  0
   20.2621   17.9882   26.2607 H   0  0  0  0  0  0  0  0  0  0  0  0
   19.7034   20.0024   26.8344 C   0  0  0  0  0  0  0  0  0  0  0  0
   18.8602   20.6848   26.6977 H   0  0  0  0  0  0  0  0  0  0  0  0
   20.5971   20.4702   26.4126 H   0  0  0  0  0  0  0  0  0  0  0  0
   19.9260   19.8263   28.3226 N   0  3  0  0  0  0  0  0  0  0  0  0
   19.1087   19.4141   28.7847 H   0  0  0  0  0  0  0  0  0  0  0  0
   20.1130   20.7213   28.7882 H   0  0  0  0  0  0  0  0  0  0  0  0
   20.7249   19.2144   28.5194 H   0  0  0  0  0  0  0  0  0  0  0  0
  1  2  1  0  0  0  0
  1  3  1  0  0  0  0
  1  4  1  0  0  0  0
  1  5  1  0  0  0  0
  5  6  1  0  0  0  0
  5  7  1  0  0  0  0
  5  8  1  0  0  0  0
  8  9  1  0  0  0  0
  8 10  1  0  0  0  0
  8 11  1  0  0  0  0
 11 12  1  0  0  0  0
 11 13  1  0  0  0  0
 11 14  1  0  0  0  0
 14 15  1  0  0  0  0
 14 16  1  0  0  0  0
 14 17  1  0  0  0  0
 17 18  1  0  0  0  0
 17 19  1  0  0  0  0
 17 20  1  0  0  0  0
 20 21  1  0  0  0  0
 20 22  1  0  0  0  0
 20 23  1  0  0  0  0
 23 24  1  0  0  0  0
 23 25  1  0  0  0  0
 23 26  1  0  0  0  0
 26 27  1  0  0  0  0
 26 28  1  0  0  0  0
 26 29  1  0  0  0  0
M  END
> <VM2 Rank>
208

> <Conf_Id>
1156

> <Probability>
0.02

> <Sum Probability>
98.90

> <Delta G>
3.366

> <G>
61.514

> <E>
23.946

> <-TS>
37.568

> <U+W>
-0.198

> <U>
51.355

> <W>
-51.553

> <W(PB)>
-54.057

> <W(SA)>
2.504

> <Valence>
5.616

> <Coulomb>
44.962

> <VdW>
0.776

> <VdW6>
-8.607

> <VdW12>
9.383

> <Bond>
0.231

> <Angle>
1.168

> <Pdih>
4.217

> <Idih>
0.000

> <Tether>
0.000

$$$$
VeraChem MOL file


 29 28  0  0  0  0  0  0  0  0999 V2000     
   19.5661   18.5440   19.6557 C   0  0  0  0  0  0  0  0  0  0  0  0
   20.3809   17.8121   19.7284 H   0  0  0  0  0  0  0  0  0  0  0  0
   18.6533   18.0838   20.0538 H   0  0  0  0  0  0  0  0  0  0  0  0
   19.3941   18.7505   18.5914 H   0  0  0  0  0  0  0  0  0  0  0  0
   19.9202   19.8463   20.4088 C   0  0  0  0  0  0  0  0  0  0  0  0
   19.0781   20.5497   20.3470 H   0  0  0  0  0  0  0  0  0  0  0  0
   20.7643   20.3315   19.8990 H   0  0  0  0  0  0  0  0  0  0  0  0
   20.3017   19.6156   21.8909 C   0  0  0  0  0  0  0  0  0  0  0  0
   21.1563   18.9272   21.9466 H   0  0  0  0  0  0  0  0  0  0  0  0
   20.6448   20.5695   22.3146 H   0  0  0  0  0  0  0  0  0  0  0  0
   19.1356   19.0708   22.7500 C   0  0  0  0  0  0  0  0  0  0  0  0
   18.8281   18.0844   22.3787 H   0  0  0  0  0  0  0  0  0  0  0  0
   18.2658   19.7350   22.6515 H   0  0  0  0  0  0  0  0  0  0  0  0
   19.5279   18.9521   24.2400 C   0  0  0  0  0  0  0  0  0  0  0  0
   20.3945   18.2834   24.3369 H   0  0  0  0  0  0  0  0  0  0  0  0
   19.8330   19.9410   24.6036 H   0  0  0  0  0  0  0  0  0  0  0  0
   18.3582   18.4166   25.0993 C   0  0  0  0  0  0  0  0  0  0  0  0
   17.9645   17.5022   24.6343 H   0  0  0  0  0  0  0  0  0  0  0  0
   17.5344   19.1437   25.0903 H   0  0  0  0  0  0  0  0  0  0  0  0
   18.7381   18.0858   26.5652 C   0  0  0  0  0  0  0  0  0  0  0  0
   17.8575   17.6430   27.0491 H   0  0  0  0  0  0  0  0  0  0  0  0
   19.5178   17.3130   26.5931 H   0  0  0  0  0  0  0  0  0  0  0  0
   19.1722   19.3049   27.4051 C   0  0  0  0  0  0  0  0  0  0  0  0
   19.0385   19.0727   28.4652 H   0  0  0  0  0  0  0  0  0  0  0  0
   18.5423   20.1653   27.1640 H   0  0  0  0  0  0  0  0  0  0  0  0
   20.6239   19.7018   27.2201 N   0  3  0  0  0  0  0  0  0  0  0  0
   20.8710   20.5169   27.7921 H   0  0  0  0  0  0  0  0  0  0  0  0
   20.8307   19.9407   26.2462 H   0  0  0  0  0  0  0  0  0  0  0  0
   21.2608   18.9443   27.4882 H   0  0  0  0  0  0  0  0  0  0  0  0
  1  2  1  0  0  0  0
  1  3  1  0  0  0  0
  1  4  1  0  0  0  0
  1  5  1  0  0  0  0
  5  6  1  0  0  0  0
  5  7  1  0  0  0  0
  5  8  1  0  0  0  0
  8  9  1  0  0  0  0
  8 10  1  0  0  0  0
  8 11  1  0  0  0  0
 11 12  1  0  0  0  0
 11 13  1  0  0  0  0
 11 14  1  0  0  0  0
 14 15  1  0  0  0  0
 14 16  1  0  0  0  0
 14 17  1  0  0  0  0
 17 18  1  0  0  0  0
 17 19  1  0  0  0  0
 17 20  1  0  0  0  0
 20 21  1  0  0  0  0
 20 22  1  0  0  0  0
 20 23  1  0  0  0  0
 23 24  1  0  0  0  0
 23 25  1  0  0  0  0
 23 26  1  0  0  0  0
 26 27  1  0  0  0  0
 26 28  1  0  0  0  0
 26 29  1  0  0  0  0
M  END
> <VM2 Rank>
209

> <Conf_Id>
2160

> <Probability>
0.02

> <Sum Probability>
98.92

> <Delta G>
3.372

> <G>
61.520

> <E>
24.069

> <-TS>
37.451

> <U+W>
-0.075

> <U>
51.916

> <W>
-51.991

> <W(PB)>
-54.492

> <W(SA)>
2.501

> <Valence>
4.675

> <Coulomb>
46.401

> <VdW>
0.840

> <VdW6>
-9.052

> <VdW12>
9.892

> <Bond>
0.238

> <Angle>
1.195

> <Pdih>
3.242

> <Idih>
0.000

> <Tether>
0.000

$$$$
VeraChem MOL file


 29 28  0  0  0  0  0  0  0  0999 V2000     
   19.6797   17.4794   20.1981 C   0  0  0  0  0  0  0  0  0  0  0  0
   19.1014   17.8413   19.3380 H   0  0  0  0  0  0  0  0  0  0  0  0
   20.7459   17.5403   19.9435 H   0  0  0  0  0  0  0  0  0  0  0  0
   19.4293   16.4216   20.3510 H   0  0  0  0  0  0  0  0  0  0  0  0
   19.3646   18.3024   21.4651 C   0  0  0  0  0  0  0  0  0  0  0  0
   19.9325   17.8858   22.3073 H   0  0  0  0  0  0  0  0  0  0  0  0
   18.2982   18.2012   21.7097 H   0  0  0  0  0  0  0  0  0  0  0  0
   19.7200   19.7950   21.2783 C   0  0  0  0  0  0  0  0  0  0  0  0
   20.8028   19.8950   21.1209 H   0  0  0  0  0  0  0  0  0  0  0  0
   19.2429   20.1627   20.3593 H   0  0  0  0  0  0  0  0  0  0  0  0
   19.2835   20.7102   22.4514 C   0  0  0  0  0  0  0  0  0  0  0  0
   18.1892   20.7020   22.5498 H   0  0  0  0  0  0  0  0  0  0  0  0
   19.5478   21.7419   22.1808 H   0  0  0  0  0  0  0  0  0  0  0  0
   19.9497   20.3828   23.8131 C   0  0  0  0  0  0  0  0  0  0  0  0
   20.9363   19.9275   23.6502 H   0  0  0  0  0  0  0  0  0  0  0  0
   20.1354   21.3264   24.3447 H   0  0  0  0  0  0  0  0  0  0  0  0
   19.0800   19.4806   24.7226 C   0  0  0  0  0  0  0  0  0  0  0  0
   18.8373   18.5407   24.2127 H   0  0  0  0  0  0  0  0  0  0  0  0
   18.1235   19.9822   24.9252 H   0  0  0  0  0  0  0  0  0  0  0  0
   19.7852   19.1659   26.0601 C   0  0  0  0  0  0  0  0  0  0  0  0
   20.7403   18.6605   25.8642 H   0  0  0  0  0  0  0  0  0  0  0  0
   20.0174   20.1020   26.5855 H   0  0  0  0  0  0  0  0  0  0  0  0
   18.9113   18.2764   26.9615 C   0  0  0  0  0  0  0  0  0  0  0  0
   18.6916   17.3358   26.4491 H   0  0  0  0  0  0  0  0  0  0  0  0
   17.9655   18.7826   27.1727 H   0  0  0  0  0  0  0  0  0  0  0  0
   19.5700   17.9452   28.2849 N   0  3  0  0  0  0  0  0  0  0  0  0
   18.9714   17.3521   28.8704 H   0  0  0  0  0  0  0  0  0  0  0  0
   19.7786   18.7888   28.8293 H   0  0  0  0  0  0  0  0  0  0  0  0
   20.4543   17.4424   28.1562 H   0  0  0  0  0  0  0  0  0  0  0  0
  1  2  1  0  0  0  0
  1  3  1  0  0  0  0
  1  4  1  0  0  0  0
  1  5  1  0  0  0  0
  5  6  1  0  0  0  0
  5  7  1  0  0  0  0
  5  8  1  0  0  0  0
  8  9  1  0  0  0  0
  8 10  1  0  0  0  0
  8 11  1  0  0  0  0
 11 12  1  0  0  0  0
 11 13  1  0  0  0  0
 11 14  1  0  0  0  0
 14 15  1  0  0  0  0
 14 16  1  0  0  0  0
 14 17  1  0  0  0  0
 17 18  1  0  0  0  0
 17 19  1  0  0  0  0
 17 20  1  0  0  0  0
 20 21  1  0  0  0  0
 20 22  1  0  0  0  0
 20 23  1  0  0  0  0
 23 24  1  0  0  0  0
 23 25  1  0  0  0  0
 23 26  1  0  0  0  0
 26 27  1  0  0  0  0
 26 28  1  0  0  0  0
 26 29  1  0  0  0  0
M  END
> <VM2 Rank>
210

> <Conf_Id>
1452

> <Probability>
0.02

> <Sum Probability>
98.94

> <Delta G>
3.374

> <G>
61.522

> <E>
23.957

> <-TS>
37.565

> <U+W>
-0.187

> <U>
51.422

> <W>
-51.609

> <W(PB)>
-54.117

> <W(SA)>
2.508

> <Valence>
5.618

> <Coulomb>
45.019

> <VdW>
0.785

> <VdW6>
-8.591

> <VdW12>
9.376

> <Bond>
0.232

> <Angle>
1.167

> <Pdih>
4.219

> <Idih>
0.000

> <Tether>
0.000

$$$$
VeraChem MOL file


 29 28  0  0  0  0  0  0  0  0999 V2000     
   20.9723   19.7925   20.8105 C   0  0  0  0  0  0  0  0  0  0  0  0
   20.7996   20.4308   21.6858 H   0  0  0  0  0  0  0  0  0  0  0  0
   21.5943   18.9408   21.1148 H   0  0  0  0  0  0  0  0  0  0  0  0
   21.5435   20.3828   20.0823 H   0  0  0  0  0  0  0  0  0  0  0  0
   19.6397   19.3166   20.1925 C   0  0  0  0  0  0  0  0  0  0  0  0
   19.8518   18.8294   19.2306 H   0  0  0  0  0  0  0  0  0  0  0  0
   19.0139   20.1895   19.9597 H   0  0  0  0  0  0  0  0  0  0  0  0
   18.8416   18.3269   21.0790 C   0  0  0  0  0  0  0  0  0  0  0  0
   17.9484   18.0249   20.5148 H   0  0  0  0  0  0  0  0  0  0  0  0
   19.4204   17.4056   21.2318 H   0  0  0  0  0  0  0  0  0  0  0  0
   18.3790   18.9048   22.4419 C   0  0  0  0  0  0  0  0  0  0  0  0
   17.3936   18.4819   22.6819 H   0  0  0  0  0  0  0  0  0  0  0  0
   18.2317   19.9904   22.3598 H   0  0  0  0  0  0  0  0  0  0  0  0
   19.3415   18.5761   23.6092 C   0  0  0  0  0  0  0  0  0  0  0  0
   19.4301   17.4857   23.7113 H   0  0  0  0  0  0  0  0  0  0  0  0
   20.3483   18.9521   23.3924 H   0  0  0  0  0  0  0  0  0  0  0  0
   18.8488   19.1780   24.9445 C   0  0  0  0  0  0  0  0  0  0  0  0
   17.8443   18.7950   25.1724 H   0  0  0  0  0  0  0  0  0  0  0  0
   18.7582   20.2686   24.8443 H   0  0  0  0  0  0  0  0  0  0  0  0
   19.8033   18.8464   26.1126 C   0  0  0  0  0  0  0  0  0  0  0  0
   19.8931   17.7570   26.2191 H   0  0  0  0  0  0  0  0  0  0  0  0
   20.8072   19.2327   25.8911 H   0  0  0  0  0  0  0  0  0  0  0  0
   19.3034   19.4504   27.4365 C   0  0  0  0  0  0  0  0  0  0  0  0
   18.3107   19.0558   27.6696 H   0  0  0  0  0  0  0  0  0  0  0  0
   19.2283   20.5369   27.3405 H   0  0  0  0  0  0  0  0  0  0  0  0
   20.2144   19.1464   28.6082 N   0  3  0  0  0  0  0  0  0  0  0  0
   20.3058   18.1378   28.7692 H   0  0  0  0  0  0  0  0  0  0  0  0
   19.8634   19.5576   29.4802 H   0  0  0  0  0  0  0  0  0  0  0  0
   21.1598   19.5161   28.4629 H   0  0  0  0  0  0  0  0  0  0  0  0
  1  2  1  0  0  0  0
  1  3  1  0  0  0  0
  1  4  1  0  0  0  0
  1  5  1  0  0  0  0
  5  6  1  0  0  0  0
  5  7  1  0  0  0  0
  5  8  1  0  0  0  0
  8  9  1  0  0  0  0
  8 10  1  0  0  0  0
  8 11  1  0  0  0  0
 11 12  1  0  0  0  0
 11 13  1  0  0  0  0
 11 14  1  0  0  0  0
 14 15  1  0  0  0  0
 14 16  1  0  0  0  0
 14 17  1  0  0  0  0
 17 18  1  0  0  0  0
 17 19  1  0  0  0  0
 17 20  1  0  0  0  0
 20 21  1  0  0  0  0
 20 22  1  0  0  0  0
 20 23  1  0  0  0  0
 23 24  1  0  0  0  0
 23 25  1  0  0  0  0
 23 26  1  0  0  0  0
 26 27  1  0  0  0  0
 26 28  1  0  0  0  0
 26 29  1  0  0  0  0
M  END
> <VM2 Rank>
211

> <Conf_Id>
2236

> <Probability>
0.02

> <Sum Probability>
98.96

> <Delta G>
3.384

> <G>
61.532

> <E>
23.994

> <-TS>
37.538

> <U+W>
-0.150

> <U>
51.075

> <W>
-51.225

> <W(PB)>
-53.719

> <W(SA)>
2.494

> <Valence>
5.555

> <Coulomb>
44.692

> <VdW>
0.829

> <VdW6>
-8.485

> <VdW12>
9.313

> <Bond>
0.230

> <Angle>
1.154

> <Pdih>
4.171

> <Idih>
0.000

> <Tether>
0.000

$$$$
VeraChem MOL file


 29 28  0  0  0  0  0  0  0  0999 V2000     
   20.6866   20.3059   20.2615 C   0  0  0  0  0  0  0  0  0  0  0  0
   21.4779   19.5951   19.9897 H   0  0  0  0  0  0  0  0  0  0  0  0
   20.0220   20.4253   19.3959 H   0  0  0  0  0  0  0  0  0  0  0  0
   21.1589   21.2767   20.4598 H   0  0  0  0  0  0  0  0  0  0  0  0
   19.9044   19.8177   21.4991 C   0  0  0  0  0  0  0  0  0  0  0  0
   19.1384   20.5602   21.7625 H   0  0  0  0  0  0  0  0  0  0  0  0
   20.5957   19.7479   22.3492 H   0  0  0  0  0  0  0  0  0  0  0  0
   19.2392   18.4453   21.2481 C   0  0  0  0  0  0  0  0  0  0  0  0
   18.6501   18.4986   20.3221 H   0  0  0  0  0  0  0  0  0  0  0  0
   20.0173   17.6899   21.0716 H   0  0  0  0  0  0  0  0  0  0  0  0
   18.3060   17.9661   22.3900 C   0  0  0  0  0  0  0  0  0  0  0  0
   17.8628   17.0113   22.0750 H   0  0  0  0  0  0  0  0  0  0  0  0
   17.4618   18.6601   22.5041 H   0  0  0  0  0  0  0  0  0  0  0  0
   19.0099   17.7446   23.7541 C   0  0  0  0  0  0  0  0  0  0  0  0
   18.5502   16.8757   24.2451 H   0  0  0  0  0  0  0  0  0  0  0  0
   20.0645   17.4802   23.5955 H   0  0  0  0  0  0  0  0  0  0  0  0
   18.8930   18.9564   24.7109 C   0  0  0  0  0  0  0  0  0  0  0  0
   17.8320   19.1642   24.9072 H   0  0  0  0  0  0  0  0  0  0  0  0
   19.3057   19.8576   24.2422 H   0  0  0  0  0  0  0  0  0  0  0  0
   19.6198   18.7014   26.0496 C   0  0  0  0  0  0  0  0  0  0  0  0
   19.2012   17.8092   26.5341 H   0  0  0  0  0  0  0  0  0  0  0  0
   20.6822   18.4973   25.8602 H   0  0  0  0  0  0  0  0  0  0  0  0
   19.4917   19.9063   26.9979 C   0  0  0  0  0  0  0  0  0  0  0  0
   18.4359   20.1033   27.2025 H   0  0  0  0  0  0  0  0  0  0  0  0
   19.9225   20.7937   26.5263 H   0  0  0  0  0  0  0  0  0  0  0  0
   20.1933   19.6944   28.3238 N   0  3  0  0  0  0  0  0  0  0  0  0
   20.0958   20.5084   28.9407 H   0  0  0  0  0  0  0  0  0  0  0  0
   21.1982   19.5302   28.2022 H   0  0  0  0  0  0  0  0  0  0  0  0
   19.8148   18.8878   28.8314 H   0  0  0  0  0  0  0  0  0  0  0  0
  1  2  1  0  0  0  0
  1  3  1  0  0  0  0
  1  4  1  0  0  0  0
  1  5  1  0  0  0  0
  5  6  1  0  0  0  0
  5  7  1  0  0  0  0
  5  8  1  0  0  0  0
  8  9  1  0  0  0  0
  8 10  1  0  0  0  0
  8 11  1  0  0  0  0
 11 12  1  0  0  0  0
 11 13  1  0  0  0  0
 11 14  1  0  0  0  0
 14 15  1  0  0  0  0
 14 16  1  0  0  0  0
 14 17  1  0  0  0  0
 17 18  1  0  0  0  0
 17 19  1  0  0  0  0
 17 20  1  0  0  0  0
 20 21  1  0  0  0  0
 20 22  1  0  0  0  0
 20 23  1  0  0  0  0
 23 24  1  0  0  0  0
 23 25  1  0  0  0  0
 23 26  1  0  0  0  0
 26 27  1  0  0  0  0
 26 28  1  0  0  0  0
 26 29  1  0  0  0  0
M  END
> <VM2 Rank>
212

> <Conf_Id>
2176

> <Probability>
0.02

> <Sum Probability>
98.97

> <Delta G>
3.387

> <G>
61.535

> <E>
23.970

> <-TS>
37.565

> <U+W>
-0.175

> <U>
51.422

> <W>
-51.597

> <W(PB)>
-54.101

> <W(SA)>
2.504

> <Valence>
5.618

> <Coulomb>
45.019

> <VdW>
0.785

> <VdW6>
-8.591

> <VdW12>
9.376

> <Bond>
0.232

> <Angle>
1.167

> <Pdih>
4.219

> <Idih>
0.000

> <Tether>
0.000

$$$$
VeraChem MOL file


 29 28  0  0  0  0  0  0  0  0999 V2000     
   19.9320   19.5753   19.6785 C   0  0  0  0  0  0  0  0  0  0  0  0
   19.5090   20.4921   20.1074 H   0  0  0  0  0  0  0  0  0  0  0  0
   21.0249   19.6253   19.7683 H   0  0  0  0  0  0  0  0  0  0  0  0
   19.6830   19.5659   18.6095 H   0  0  0  0  0  0  0  0  0  0  0  0
   19.3745   18.3130   20.3746 C   0  0  0  0  0  0  0  0  0  0  0  0
   19.7300   17.4247   19.8340 H   0  0  0  0  0  0  0  0  0  0  0  0
   18.2784   18.3020   20.2972 H   0  0  0  0  0  0  0  0  0  0  0  0
   19.7956   18.1924   21.8590 C   0  0  0  0  0  0  0  0  0  0  0  0
   19.4537   17.2202   22.2399 H   0  0  0  0  0  0  0  0  0  0  0  0
   20.8921   18.1840   21.9296 H   0  0  0  0  0  0  0  0  0  0  0  0
   19.2233   19.3165   22.7554 C   0  0  0  0  0  0  0  0  0  0  0  0
   18.1310   19.3553   22.6431 H   0  0  0  0  0  0  0  0  0  0  0  0
   19.6130   20.2893   22.4279 H   0  0  0  0  0  0  0  0  0  0  0  0
   19.5816   19.1017   24.2433 C   0  0  0  0  0  0  0  0  0  0  0  0
   19.1884   18.1289   24.5631 H   0  0  0  0  0  0  0  0  0  0  0  0
   20.6743   19.0683   24.3543 H   0  0  0  0  0  0  0  0  0  0  0  0
   19.0011   20.2211   25.1395 C   0  0  0  0  0  0  0  0  0  0  0  0
   17.9034   20.1790   25.1133 H   0  0  0  0  0  0  0  0  0  0  0  0
   19.2801   21.1962   24.7168 H   0  0  0  0  0  0  0  0  0  0  0  0
   19.4838   20.1791   26.6120 C   0  0  0  0  0  0  0  0  0  0  0  0
   20.5759   20.2834   26.6594 H   0  0  0  0  0  0  0  0  0  0  0  0
   19.0744   21.0593   27.1253 H   0  0  0  0  0  0  0  0  0  0  0  0
   19.0378   18.9281   27.3968 C   0  0  0  0  0  0  0  0  0  0  0  0
   18.0093   18.6698   27.1307 H   0  0  0  0  0  0  0  0  0  0  0  0
   19.0658   19.1504   28.4670 H   0  0  0  0  0  0  0  0  0  0  0  0
   19.9142   17.7107   27.1759 N   0  3  0  0  0  0  0  0  0  0  0  0
   19.5824   16.9011   27.7116 H   0  0  0  0  0  0  0  0  0  0  0  0
   20.8827   17.8838   27.4648 H   0  0  0  0  0  0  0  0  0  0  0  0
   19.9373   17.4336   26.1905 H   0  0  0  0  0  0  0  0  0  0  0  0
  1  2  1  0  0  0  0
  1  3  1  0  0  0  0
  1  4  1  0  0  0  0
  1  5  1  0  0  0  0
  5  6  1  0  0  0  0
  5  7  1  0  0  0  0
  5  8  1  0  0  0  0
  8  9  1  0  0  0  0
  8 10  1  0  0  0  0
  8 11  1  0  0  0  0
 11 12  1  0  0  0  0
 11 13  1  0  0  0  0
 11 14  1  0  0  0  0
 14 15  1  0  0  0  0
 14 16  1  0  0  0  0
 14 17  1  0  0  0  0
 17 18  1  0  0  0  0
 17 19  1  0  0  0  0
 17 20  1  0  0  0  0
 20 21  1  0  0  0  0
 20 22  1  0  0  0  0
 20 23  1  0  0  0  0
 23 24  1  0  0  0  0
 23 25  1  0  0  0  0
 23 26  1  0  0  0  0
 26 27  1  0  0  0  0
 26 28  1  0  0  0  0
 26 29  1  0  0  0  0
M  END
> <VM2 Rank>
213

> <Conf_Id>
1643

> <Probability>
0.02

> <Sum Probability>
98.99

> <Delta G>
3.388

> <G>
61.536

> <E>
24.086

> <-TS>
37.450

> <U+W>
-0.059

> <U>
51.916

> <W>
-51.974

> <W(PB)>
-54.468

> <W(SA)>
2.494

> <Valence>
4.676

> <Coulomb>
46.401

> <VdW>
0.839

> <VdW6>
-9.052

> <VdW12>
9.891

> <Bond>
0.238

> <Angle>
1.195

> <Pdih>
3.242

> <Idih>
0.000

> <Tether>
0.000

$$$$
VeraChem MOL file


 29 28  0  0  0  0  0  0  0  0999 V2000     
   20.3024   18.8096   20.1767 C   0  0  0  0  0  0  0  0  0  0  0  0
   20.8893   19.3687   19.4367 H   0  0  0  0  0  0  0  0  0  0  0  0
   21.0044   18.2166   20.7760 H   0  0  0  0  0  0  0  0  0  0  0  0
   19.6453   18.1187   19.6327 H   0  0  0  0  0  0  0  0  0  0  0  0
   19.4817   19.7766   21.0595 C   0  0  0  0  0  0  0  0  0  0  0  0
   18.8784   20.4241   20.4082 H   0  0  0  0  0  0  0  0  0  0  0  0
   20.1602   20.4460   21.6049 H   0  0  0  0  0  0  0  0  0  0  0  0
   18.5347   19.0515   22.0490 C   0  0  0  0  0  0  0  0  0  0  0  0
   17.9462   19.8020   22.5928 H   0  0  0  0  0  0  0  0  0  0  0  0
   17.8052   18.4643   21.4746 H   0  0  0  0  0  0  0  0  0  0  0  0
   19.2370   18.1112   23.0651 C   0  0  0  0  0  0  0  0  0  0  0  0
   19.6980   17.2741   22.5245 H   0  0  0  0  0  0  0  0  0  0  0  0
   18.4740   17.6530   23.7079 H   0  0  0  0  0  0  0  0  0  0  0  0
   20.3165   18.7879   23.9515 C   0  0  0  0  0  0  0  0  0  0  0  0
   20.7448   18.0316   24.6225 H   0  0  0  0  0  0  0  0  0  0  0  0
   21.1506   19.1176   23.3182 H   0  0  0  0  0  0  0  0  0  0  0  0
   19.8164   19.9953   24.7893 C   0  0  0  0  0  0  0  0  0  0  0  0
   19.5172   20.8093   24.1160 H   0  0  0  0  0  0  0  0  0  0  0  0
   20.6585   20.3934   25.3709 H   0  0  0  0  0  0  0  0  0  0  0  0
   18.6390   19.6770   25.7476 C   0  0  0  0  0  0  0  0  0  0  0  0
   18.3825   20.5800   26.3170 H   0  0  0  0  0  0  0  0  0  0  0  0
   17.7448   19.4265   25.1629 H   0  0  0  0  0  0  0  0  0  0  0  0
   18.9279   18.5254   26.7309 C   0  0  0  0  0  0  0  0  0  0  0  0
   19.1527   17.6123   26.1735 H   0  0  0  0  0  0  0  0  0  0  0  0
   18.0424   18.3403   27.3450 H   0  0  0  0  0  0  0  0  0  0  0  0
   20.0883   18.8036   27.6654 N   0  3  0  0  0  0  0  0  0  0  0  0
   20.2560   18.0224   28.3087 H   0  0  0  0  0  0  0  0  0  0  0  0
   19.9218   19.6361   28.2401 H   0  0  0  0  0  0  0  0  0  0  0  0
   20.9584   18.9615   27.1476 H   0  0  0  0  0  0  0  0  0  0  0  0
  1  2  1  0  0  0  0
  1  3  1  0  0  0  0
  1  4  1  0  0  0  0
  1  5  1  0  0  0  0
  5  6  1  0  0  0  0
  5  7  1  0  0  0  0
  5  8  1  0  0  0  0
  8  9  1  0  0  0  0
  8 10  1  0  0  0  0
  8 11  1  0  0  0  0
 11 12  1  0  0  0  0
 11 13  1  0  0  0  0
 11 14  1  0  0  0  0
 14 15  1  0  0  0  0
 14 16  1  0  0  0  0
 14 17  1  0  0  0  0
 17 18  1  0  0  0  0
 17 19  1  0  0  0  0
 17 20  1  0  0  0  0
 20 21  1  0  0  0  0
 20 22  1  0  0  0  0
 20 23  1  0  0  0  0
 23 24  1  0  0  0  0
 23 25  1  0  0  0  0
 23 26  1  0  0  0  0
 26 27  1  0  0  0  0
 26 28  1  0  0  0  0
 26 29  1  0  0  0  0
M  END
> <VM2 Rank>
214

> <Conf_Id>
1299

> <Probability>
0.02

> <Sum Probability>
99.01

> <Delta G>
3.391

> <G>
61.539

> <E>
22.858

> <-TS>
38.681

> <U+W>
-1.287

> <U>
50.976

> <W>
-52.263

> <W(PB)>
-54.638

> <W(SA)>
2.376

> <Valence>
4.770

> <Coulomb>
45.602

> <VdW>
0.604

> <VdW6>
-12.016

> <VdW12>
12.620

> <Bond>
0.365

> <Angle>
1.946

> <Pdih>
2.459

> <Idih>
0.000

> <Tether>
0.000

$$$$
VeraChem MOL file


 29 28  0  0  0  0  0  0  0  0999 V2000     
   21.3893   19.3177   20.3945 C   0  0  0  0  0  0  0  0  0  0  0  0
   21.3719   18.3033   19.9751 H   0  0  0  0  0  0  0  0  0  0  0  0
   21.6810   20.0088   19.5930 H   0  0  0  0  0  0  0  0  0  0  0  0
   22.1655   19.3540   21.1700 H   0  0  0  0  0  0  0  0  0  0  0  0
   20.0106   19.7031   20.9711 C   0  0  0  0  0  0  0  0  0  0  0  0
   19.2624   19.6914   20.1661 H   0  0  0  0  0  0  0  0  0  0  0  0
   20.0501   20.7331   21.3525 H   0  0  0  0  0  0  0  0  0  0  0  0
   19.5756   18.7451   22.1019 C   0  0  0  0  0  0  0  0  0  0  0  0
   19.5383   17.7179   21.7139 H   0  0  0  0  0  0  0  0  0  0  0  0
   20.3348   18.7522   22.8926 H   0  0  0  0  0  0  0  0  0  0  0  0
   18.1892   19.1268   22.6762 C   0  0  0  0  0  0  0  0  0  0  0  0
   17.4542   19.0673   21.8615 H   0  0  0  0  0  0  0  0  0  0  0  0
   18.1865   20.1734   23.0106 H   0  0  0  0  0  0  0  0  0  0  0  0
   17.7215   18.1986   23.8273 C   0  0  0  0  0  0  0  0  0  0  0  0
   16.6339   18.0681   23.7407 H   0  0  0  0  0  0  0  0  0  0  0  0
   18.1499   17.1942   23.7054 H   0  0  0  0  0  0  0  0  0  0  0  0
   18.0143   18.7341   25.2527 C   0  0  0  0  0  0  0  0  0  0  0  0
   17.5816   18.0329   25.9798 H   0  0  0  0  0  0  0  0  0  0  0  0
   17.4893   19.6883   25.3991 H   0  0  0  0  0  0  0  0  0  0  0  0
   19.5153   18.9211   25.5693 C   0  0  0  0  0  0  0  0  0  0  0  0
   20.0602   17.9948   25.3442 H   0  0  0  0  0  0  0  0  0  0  0  0
   19.9338   19.7131   24.9357 H   0  0  0  0  0  0  0  0  0  0  0  0
   19.7339   19.2977   27.0451 C   0  0  0  0  0  0  0  0  0  0  0  0
   19.3345   18.5098   27.6893 H   0  0  0  0  0  0  0  0  0  0  0  0
   19.2048   20.2277   27.2700 H   0  0  0  0  0  0  0  0  0  0  0  0
   21.1943   19.4936   27.3971 N   0  3  0  0  0  0  0  0  0  0  0  0
   21.3176   19.7434   28.3846 H   0  0  0  0  0  0  0  0  0  0  0  0
   21.6235   20.2426   26.8437 H   0  0  0  0  0  0  0  0  0  0  0  0
   21.7439   18.6435   27.2333 H   0  0  0  0  0  0  0  0  0  0  0  0
  1  2  1  0  0  0  0
  1  3  1  0  0  0  0
  1  4  1  0  0  0  0
  1  5  1  0  0  0  0
  5  6  1  0  0  0  0
  5  7  1  0  0  0  0
  5  8  1  0  0  0  0
  8  9  1  0  0  0  0
  8 10  1  0  0  0  0
  8 11  1  0  0  0  0
 11 12  1  0  0  0  0
 11 13  1  0  0  0  0
 11 14  1  0  0  0  0
 14 15  1  0  0  0  0
 14 16  1  0  0  0  0
 14 17  1  0  0  0  0
 17 18  1  0  0  0  0
 17 19  1  0  0  0  0
 17 20  1  0  0  0  0
 20 21  1  0  0  0  0
 20 22  1  0  0  0  0
 20 23  1  0  0  0  0
 23 24  1  0  0  0  0
 23 25  1  0  0  0  0
 23 26  1  0  0  0  0
 26 27  1  0  0  0  0
 26 28  1  0  0  0  0
 26 29  1  0  0  0  0
M  END
> <VM2 Rank>
215

> <Conf_Id>
2273

> <Probability>
0.02

> <Sum Probability>
99.03

> <Delta G>
3.411

> <G>
61.559

> <E>
23.988

> <-TS>
37.570

> <U+W>
-0.156

> <U>
51.876

> <W>
-52.032

> <W(PB)>
-54.548

> <W(SA)>
2.516

> <Valence>
5.608

> <Coulomb>
45.523

> <VdW>
0.745

> <VdW6>
-8.647

> <VdW12>
9.392

> <Bond>
0.233

> <Angle>
1.167

> <Pdih>
4.208

> <Idih>
0.000

> <Tether>
0.000

$$$$
VeraChem MOL file


 29 28  0  0  0  0  0  0  0  0999 V2000     
   20.1052   17.3256   20.9264 C   0  0  0  0  0  0  0  0  0  0  0  0
   21.1664   17.3466   21.2065 H   0  0  0  0  0  0  0  0  0  0  0  0
   19.5377   16.8914   21.7588 H   0  0  0  0  0  0  0  0  0  0  0  0
   19.9980   16.6508   20.0672 H   0  0  0  0  0  0  0  0  0  0  0  0
   19.5967   18.7407   20.5689 C   0  0  0  0  0  0  0  0  0  0  0  0
   18.5261   18.6982   20.3249 H   0  0  0  0  0  0  0  0  0  0  0  0
   20.1068   19.0797   19.6564 H   0  0  0  0  0  0  0  0  0  0  0  0
   19.8378   19.7824   21.6879 C   0  0  0  0  0  0  0  0  0  0  0  0
   20.9115   19.8341   21.9154 H   0  0  0  0  0  0  0  0  0  0  0  0
   19.5541   20.7737   21.3082 H   0  0  0  0  0  0  0  0  0  0  0  0
   19.0437   19.4907   22.9836 C   0  0  0  0  0  0  0  0  0  0  0  0
   19.3604   18.5276   23.3965 H   0  0  0  0  0  0  0  0  0  0  0  0
   17.9762   19.3952   22.7423 H   0  0  0  0  0  0  0  0  0  0  0  0
   19.2345   20.6119   24.0347 C   0  0  0  0  0  0  0  0  0  0  0  0
   20.3014   20.7487   24.2587 H   0  0  0  0  0  0  0  0  0  0  0  0
   18.8943   21.5574   23.5900 H   0  0  0  0  0  0  0  0  0  0  0  0
   18.4411   20.3799   25.3470 C   0  0  0  0  0  0  0  0  0  0  0  0
   17.4912   19.8709   25.1329 H   0  0  0  0  0  0  0  0  0  0  0  0
   18.1663   21.3614   25.7576 H   0  0  0  0  0  0  0  0  0  0  0  0
   19.2206   19.6164   26.4473 C   0  0  0  0  0  0  0  0  0  0  0  0
   20.1288   20.1756   26.7086 H   0  0  0  0  0  0  0  0  0  0  0  0
   18.6033   19.5852   27.3550 H   0  0  0  0  0  0  0  0  0  0  0  0
   19.6016   18.1780   26.0558 C   0  0  0  0  0  0  0  0  0  0  0  0
   20.2987   18.1988   25.2145 H   0  0  0  0  0  0  0  0  0  0  0  0
   18.7063   17.6283   25.7532 H   0  0  0  0  0  0  0  0  0  0  0  0
   20.2627   17.4124   27.1835 N   0  3  0  0  0  0  0  0  0  0  0  0
   19.6493   17.3321   28.0012 H   0  0  0  0  0  0  0  0  0  0  0  0
   21.1269   17.8662   27.4977 H   0  0  0  0  0  0  0  0  0  0  0  0
   20.5115   16.4577   26.9016 H   0  0  0  0  0  0  0  0  0  0  0  0
  1  2  1  0  0  0  0
  1  3  1  0  0  0  0
  1  4  1  0  0  0  0
  1  5  1  0  0  0  0
  5  6  1  0  0  0  0
  5  7  1  0  0  0  0
  5  8  1  0  0  0  0
  8  9  1  0  0  0  0
  8 10  1  0  0  0  0
  8 11  1  0  0  0  0
 11 12  1  0  0  0  0
 11 13  1  0  0  0  0
 11 14  1  0  0  0  0
 14 15  1  0  0  0  0
 14 16  1  0  0  0  0
 14 17  1  0  0  0  0
 17 18  1  0  0  0  0
 17 19  1  0  0  0  0
 17 20  1  0  0  0  0
 20 21  1  0  0  0  0
 20 22  1  0  0  0  0
 20 23  1  0  0  0  0
 23 24  1  0  0  0  0
 23 25  1  0  0  0  0
 23 26  1  0  0  0  0
 26 27  1  0  0  0  0
 26 28  1  0  0  0  0
 26 29  1  0  0  0  0
M  END
> <VM2 Rank>
216

> <Conf_Id>
2008

> <Probability>
0.02

> <Sum Probability>
99.05

> <Delta G>
3.439

> <G>
61.587

> <E>
24.142

> <-TS>
37.444

> <U+W>
-0.002

> <U>
52.222

> <W>
-52.224

> <W(PB)>
-54.698

> <W(SA)>
2.474

> <Valence>
5.623

> <Coulomb>
45.733

> <VdW>
0.865

> <VdW6>
-9.148

> <VdW12>
10.014

> <Bond>
0.264

> <Angle>
1.329

> <Pdih>
4.030

> <Idih>
0.000

> <Tether>
0.000

$$$$
VeraChem MOL file


 29 28  0  0  0  0  0  0  0  0999 V2000     
   20.3178   18.6269   19.6204 C   0  0  0  0  0  0  0  0  0  0  0  0
   19.4915   19.1181   19.0903 H   0  0  0  0  0  0  0  0  0  0  0  0
   21.2583   18.9663   19.1672 H   0  0  0  0  0  0  0  0  0  0  0  0
   20.2353   17.5448   19.4546 H   0  0  0  0  0  0  0  0  0  0  0  0
   20.2868   18.9618   21.1266 C   0  0  0  0  0  0  0  0  0  0  0  0
   20.4118   20.0454   21.2538 H   0  0  0  0  0  0  0  0  0  0  0  0
   21.1408   18.4815   21.6243 H   0  0  0  0  0  0  0  0  0  0  0  0
   18.9678   18.4960   21.7870 C   0  0  0  0  0  0  0  0  0  0  0  0
   18.1176   19.0122   21.3203 H   0  0  0  0  0  0  0  0  0  0  0  0
   18.8258   17.4251   21.5862 H   0  0  0  0  0  0  0  0  0  0  0  0
   18.9328   18.7177   23.3189 C   0  0  0  0  0  0  0  0  0  0  0  0
   19.7701   18.1740   23.7748 H   0  0  0  0  0  0  0  0  0  0  0  0
   18.0100   18.2719   23.7149 H   0  0  0  0  0  0  0  0  0  0  0  0
   18.9919   20.2109   23.7248 C   0  0  0  0  0  0  0  0  0  0  0  0
   19.9851   20.6190   23.4949 H   0  0  0  0  0  0  0  0  0  0  0  0
   18.2779   20.7756   23.1097 H   0  0  0  0  0  0  0  0  0  0  0  0
   18.6659   20.4840   25.2160 C   0  0  0  0  0  0  0  0  0  0  0  0
   17.6386   20.1667   25.4430 H   0  0  0  0  0  0  0  0  0  0  0  0
   18.6802   21.5727   25.3638 H   0  0  0  0  0  0  0  0  0  0  0  0
   19.6537   19.8485   26.2266 C   0  0  0  0  0  0  0  0  0  0  0  0
   20.6777   19.8940   25.8328 H   0  0  0  0  0  0  0  0  0  0  0  0
   19.6475   20.4498   27.1455 H   0  0  0  0  0  0  0  0  0  0  0  0
   19.2881   18.3992   26.6016 C   0  0  0  0  0  0  0  0  0  0  0  0
   19.2969   17.7640   25.7141 H   0  0  0  0  0  0  0  0  0  0  0  0
   18.2823   18.3745   27.0294 H   0  0  0  0  0  0  0  0  0  0  0  0
   20.2392   17.7931   27.6130 N   0  3  0  0  0  0  0  0  0  0  0  0
   21.2019   17.7623   27.2613 H   0  0  0  0  0  0  0  0  0  0  0  0
   19.9774   16.8307   27.8534 H   0  0  0  0  0  0  0  0  0  0  0  0
   20.2548   18.3259   28.4890 H   0  0  0  0  0  0  0  0  0  0  0  0
  1  2  1  0  0  0  0
  1  3  1  0  0  0  0
  1  4  1  0  0  0  0
  1  5  1  0  0  0  0
  5  6  1  0  0  0  0
  5  7  1  0  0  0  0
  5  8  1  0  0  0  0
  8  9  1  0  0  0  0
  8 10  1  0  0  0  0
  8 11  1  0  0  0  0
 11 12  1  0  0  0  0
 11 13  1  0  0  0  0
 11 14  1  0  0  0  0
 14 15  1  0  0  0  0
 14 16  1  0  0  0  0
 14 17  1  0  0  0  0
 17 18  1  0  0  0  0
 17 19  1  0  0  0  0
 17 20  1  0  0  0  0
 20 21  1  0  0  0  0
 20 22  1  0  0  0  0
 20 23  1  0  0  0  0
 23 24  1  0  0  0  0
 23 25  1  0  0  0  0
 23 26  1  0  0  0  0
 26 27  1  0  0  0  0
 26 28  1  0  0  0  0
 26 29  1  0  0  0  0
M  END
> <VM2 Rank>
217

> <Conf_Id>
300

> <Probability>
0.02

> <Sum Probability>
99.06

> <Delta G>
3.445

> <G>
61.593

> <E>
23.948

> <-TS>
37.645

> <U+W>
-0.197

> <U>
51.999

> <W>
-52.196

> <W(PB)>
-54.680

> <W(SA)>
2.484

> <Valence>
5.450

> <Coulomb>
45.755

> <VdW>
0.794

> <VdW6>
-9.318

> <VdW12>
10.112

> <Bond>
0.250

> <Angle>
1.353

> <Pdih>
3.847

> <Idih>
0.000

> <Tether>
0.000

$$$$
VeraChem MOL file


 29 28  0  0  0  0  0  0  0  0999 V2000     
   21.1030   20.1269   20.9887 C   0  0  0  0  0  0  0  0  0  0  0  0
   20.9256   20.7890   21.8452 H   0  0  0  0  0  0  0  0  0  0  0  0
   21.9082   19.4293   21.2533 H   0  0  0  0  0  0  0  0  0  0  0  0
   21.4586   20.7506   20.1583 H   0  0  0  0  0  0  0  0  0  0  0  0
   19.8201   19.3666   20.5827 C   0  0  0  0  0  0  0  0  0  0  0  0
   20.0143   18.8176   19.6507 H   0  0  0  0  0  0  0  0  0  0  0  0
   19.0206   20.0855   20.3553 H   0  0  0  0  0  0  0  0  0  0  0  0
   19.3328   18.3640   21.6565 C   0  0  0  0  0  0  0  0  0  0  0  0
   18.4920   17.7908   21.2420 H   0  0  0  0  0  0  0  0  0  0  0  0
   20.1290   17.6366   21.8668 H   0  0  0  0  0  0  0  0  0  0  0  0
   18.8835   19.0407   22.9735 C   0  0  0  0  0  0  0  0  0  0  0  0
   18.1202   19.7989   22.7509 H   0  0  0  0  0  0  0  0  0  0  0  0
   19.7317   19.5696   23.4197 H   0  0  0  0  0  0  0  0  0  0  0  0
   18.3076   18.0111   23.9767 C   0  0  0  0  0  0  0  0  0  0  0  0
   17.4526   17.5120   23.4998 H   0  0  0  0  0  0  0  0  0  0  0  0
   19.0444   17.2219   24.1804 H   0  0  0  0  0  0  0  0  0  0  0  0
   17.8208   18.6406   25.3080 C   0  0  0  0  0  0  0  0  0  0  0  0
   16.9814   18.0388   25.6831 H   0  0  0  0  0  0  0  0  0  0  0  0
   17.4101   19.6436   25.1273 H   0  0  0  0  0  0  0  0  0  0  0  0
   18.8916   18.6949   26.4268 C   0  0  0  0  0  0  0  0  0  0  0  0
   18.4202   19.0739   27.3434 H   0  0  0  0  0  0  0  0  0  0  0  0
   19.2374   17.6776   26.6534 H   0  0  0  0  0  0  0  0  0  0  0  0
   20.1022   19.5819   26.0872 C   0  0  0  0  0  0  0  0  0  0  0  0
   19.7609   20.5853   25.8190 H   0  0  0  0  0  0  0  0  0  0  0  0
   20.6408   19.1579   25.2361 H   0  0  0  0  0  0  0  0  0  0  0  0
   21.0824   19.7114   27.2349 N   0  3  0  0  0  0  0  0  0  0  0  0
   21.8829   20.3034   26.9876 H   0  0  0  0  0  0  0  0  0  0  0  0
   21.4599   18.8013   27.5190 H   0  0  0  0  0  0  0  0  0  0  0  0
   20.6466   20.1293   28.0637 H   0  0  0  0  0  0  0  0  0  0  0  0
  1  2  1  0  0  0  0
  1  3  1  0  0  0  0
  1  4  1  0  0  0  0
  1  5  1  0  0  0  0
  5  6  1  0  0  0  0
  5  7  1  0  0  0  0
  5  8  1  0  0  0  0
  8  9  1  0  0  0  0
  8 10  1  0  0  0  0
  8 11  1  0  0  0  0
 11 12  1  0  0  0  0
 11 13  1  0  0  0  0
 11 14  1  0  0  0  0
 14 15  1  0  0  0  0
 14 16  1  0  0  0  0
 14 17  1  0  0  0  0
 17 18  1  0  0  0  0
 17 19  1  0  0  0  0
 17 20  1  0  0  0  0
 20 21  1  0  0  0  0
 20 22  1  0  0  0  0
 20 23  1  0  0  0  0
 23 24  1  0  0  0  0
 23 25  1  0  0  0  0
 23 26  1  0  0  0  0
 26 27  1  0  0  0  0
 26 28  1  0  0  0  0
 26 29  1  0  0  0  0
M  END
> <VM2 Rank>
218

> <Conf_Id>
1615

> <Probability>
0.02

> <Sum Probability>
99.08

> <Delta G>
3.450

> <G>
61.598

> <E>
24.152

> <-TS>
37.446

> <U+W>
0.008

> <U>
52.222

> <W>
-52.214

> <W(PB)>
-54.706

> <W(SA)>
2.492

> <Valence>
5.624

> <Coulomb>
45.733

> <VdW>
0.865

> <VdW6>
-9.148

> <VdW12>
10.014

> <Bond>
0.264

> <Angle>
1.329

> <Pdih>
4.031

> <Idih>
0.000

> <Tether>
0.000

$$$$
VeraChem MOL file


 29 28  0  0  0  0  0  0  0  0999 V2000     
   20.5966   20.4061   20.7255 C   0  0  0  0  0  0  0  0  0  0  0  0
   19.6942   20.8045   20.2440 H   0  0  0  0  0  0  0  0  0  0  0  0
   20.7177   20.9038   21.6955 H   0  0  0  0  0  0  0  0  0  0  0  0
   21.4584   20.6813   20.1037 H   0  0  0  0  0  0  0  0  0  0  0  0
   20.5111   18.8709   20.8820 C   0  0  0  0  0  0  0  0  0  0  0  0
   21.4107   18.5011   21.3935 H   0  0  0  0  0  0  0  0  0  0  0  0
   20.5147   18.4122   19.8833 H   0  0  0  0  0  0  0  0  0  0  0  0
   19.2468   18.3996   21.6402 C   0  0  0  0  0  0  0  0  0  0  0  0
   18.3502   18.7489   21.1100 H   0  0  0  0  0  0  0  0  0  0  0  0
   19.2134   17.3016   21.6146 H   0  0  0  0  0  0  0  0  0  0  0  0
   19.2005   18.8721   23.1129 C   0  0  0  0  0  0  0  0  0  0  0  0
   19.1502   19.9680   23.1519 H   0  0  0  0  0  0  0  0  0  0  0  0
   20.1294   18.5671   23.6111 H   0  0  0  0  0  0  0  0  0  0  0  0
   17.9873   18.2785   23.8662 C   0  0  0  0  0  0  0  0  0  0  0  0
   17.0790   18.4540   23.2733 H   0  0  0  0  0  0  0  0  0  0  0  0
   18.0997   17.1878   23.9364 H   0  0  0  0  0  0  0  0  0  0  0  0
   17.7588   18.8654   25.2833 C   0  0  0  0  0  0  0  0  0  0  0  0
   16.8525   18.3984   25.6929 H   0  0  0  0  0  0  0  0  0  0  0  0
   17.5353   19.9392   25.2157 H   0  0  0  0  0  0  0  0  0  0  0  0
   18.9181   18.6273   26.2834 C   0  0  0  0  0  0  0  0  0  0  0  0
   18.5044   18.6127   27.3006 H   0  0  0  0  0  0  0  0  0  0  0  0
   19.3642   17.6379   26.1156 H   0  0  0  0  0  0  0  0  0  0  0  0
   20.0018   19.7214   26.2240 C   0  0  0  0  0  0  0  0  0  0  0  0
   19.5516   20.6942   26.4396 H   0  0  0  0  0  0  0  0  0  0  0  0
   20.4437   19.7642   25.2268 H   0  0  0  0  0  0  0  0  0  0  0  0
   21.1230   19.4968   27.2175 N   0  3  0  0  0  0  0  0  0  0  0  0
   21.8316   20.2370   27.1664 H   0  0  0  0  0  0  0  0  0  0  0  0
   21.6066   18.6078   27.0530 H   0  0  0  0  0  0  0  0  0  0  0  0
   20.7790   19.4790   28.1833 H   0  0  0  0  0  0  0  0  0  0  0  0
  1  2  1  0  0  0  0
  1  3  1  0  0  0  0
  1  4  1  0  0  0  0
  1  5  1  0  0  0  0
  5  6  1  0  0  0  0
  5  7  1  0  0  0  0
  5  8  1  0  0  0  0
  8  9  1  0  0  0  0
  8 10  1  0  0  0  0
  8 11  1  0  0  0  0
 11 12  1  0  0  0  0
 11 13  1  0  0  0  0
 11 14  1  0  0  0  0
 14 15  1  0  0  0  0
 14 16  1  0  0  0  0
 14 17  1  0  0  0  0
 17 18  1  0  0  0  0
 17 19  1  0  0  0  0
 17 20  1  0  0  0  0
 20 21  1  0  0  0  0
 20 22  1  0  0  0  0
 20 23  1  0  0  0  0
 23 24  1  0  0  0  0
 23 25  1  0  0  0  0
 23 26  1  0  0  0  0
 26 27  1  0  0  0  0
 26 28  1  0  0  0  0
 26 29  1  0  0  0  0
M  END
> <VM2 Rank>
219

> <Conf_Id>
2147

> <Probability>
0.02

> <Sum Probability>
99.10

> <Delta G>
3.457

> <G>
61.605

> <E>
23.960

> <-TS>
37.645

> <U+W>
-0.184

> <U>
52.128

> <W>
-52.312

> <W(PB)>
-54.797

> <W(SA)>
2.484

> <Valence>
5.466

> <Coulomb>
45.872

> <VdW>
0.790

> <VdW6>
-9.336

> <VdW12>
10.126

> <Bond>
0.248

> <Angle>
1.378

> <Pdih>
3.840

> <Idih>
0.000

> <Tether>
0.000

$$$$
VeraChem MOL file


 29 28  0  0  0  0  0  0  0  0999 V2000     
   20.4641   19.0364   19.6296 C   0  0  0  0  0  0  0  0  0  0  0  0
   19.5209   19.2001   19.0921 H   0  0  0  0  0  0  0  0  0  0  0  0
   21.0869   19.9323   19.5080 H   0  0  0  0  0  0  0  0  0  0  0  0
   20.9841   18.1970   19.1502 H   0  0  0  0  0  0  0  0  0  0  0  0
   20.2069   18.7374   21.1217 C   0  0  0  0  0  0  0  0  0  0  0  0
   21.1650   18.5491   21.6259 H   0  0  0  0  0  0  0  0  0  0  0  0
   19.6165   17.8151   21.2041 H   0  0  0  0  0  0  0  0  0  0  0  0
   19.4707   19.9059   21.8185 C   0  0  0  0  0  0  0  0  0  0  0  0
   20.0410   20.8320   21.6623 H   0  0  0  0  0  0  0  0  0  0  0  0
   18.4924   20.0629   21.3438 H   0  0  0  0  0  0  0  0  0  0  0  0
   19.2816   19.6959   23.3408 C   0  0  0  0  0  0  0  0  0  0  0  0
   18.8436   20.6088   23.7671 H   0  0  0  0  0  0  0  0  0  0  0  0
   20.2675   19.5685   23.8060 H   0  0  0  0  0  0  0  0  0  0  0  0
   18.3769   18.4875   23.6863 C   0  0  0  0  0  0  0  0  0  0  0  0
   17.4754   18.5270   23.0595 H   0  0  0  0  0  0  0  0  0  0  0  0
   18.8909   17.5526   23.4263 H   0  0  0  0  0  0  0  0  0  0  0  0
   17.9307   18.4235   25.1700 C   0  0  0  0  0  0  0  0  0  0  0  0
   17.2509   17.5665   25.2744 H   0  0  0  0  0  0  0  0  0  0  0  0
   17.3329   19.3098   25.4240 H   0  0  0  0  0  0  0  0  0  0  0  0
   19.0835   18.2500   26.1908 C   0  0  0  0  0  0  0  0  0  0  0  0
   18.6854   17.7521   27.0850 H   0  0  0  0  0  0  0  0  0  0  0  0
   19.8533   17.5826   25.7809 H   0  0  0  0  0  0  0  0  0  0  0  0
   19.7119   19.5873   26.6283 C   0  0  0  0  0  0  0  0  0  0  0  0
   18.9426   20.2255   27.0712 H   0  0  0  0  0  0  0  0  0  0  0  0
   20.1328   20.1084   25.7666 H   0  0  0  0  0  0  0  0  0  0  0  0
   20.8177   19.4142   27.6491 N   0  3  0  0  0  0  0  0  0  0  0  0
   21.5875   18.8431   27.2849 H   0  0  0  0  0  0  0  0  0  0  0  0
   20.4806   18.9573   28.5029 H   0  0  0  0  0  0  0  0  0  0  0  0
   21.2203   20.3147   27.9312 H   0  0  0  0  0  0  0  0  0  0  0  0
  1  2  1  0  0  0  0
  1  3  1  0  0  0  0
  1  4  1  0  0  0  0
  1  5  1  0  0  0  0
  5  6  1  0  0  0  0
  5  7  1  0  0  0  0
  5  8  1  0  0  0  0
  8  9  1  0  0  0  0
  8 10  1  0  0  0  0
  8 11  1  0  0  0  0
 11 12  1  0  0  0  0
 11 13  1  0  0  0  0
 11 14  1  0  0  0  0
 14 15  1  0  0  0  0
 14 16  1  0  0  0  0
 14 17  1  0  0  0  0
 17 18  1  0  0  0  0
 17 19  1  0  0  0  0
 17 20  1  0  0  0  0
 20 21  1  0  0  0  0
 20 22  1  0  0  0  0
 20 23  1  0  0  0  0
 23 24  1  0  0  0  0
 23 25  1  0  0  0  0
 23 26  1  0  0  0  0
 26 27  1  0  0  0  0
 26 28  1  0  0  0  0
 26 29  1  0  0  0  0
M  END
> <VM2 Rank>
220

> <Conf_Id>
2285

> <Probability>
0.02

> <Sum Probability>
99.11

> <Delta G>
3.470

> <G>
61.618

> <E>
23.973

> <-TS>
37.645

> <U+W>
-0.171

> <U>
51.999

> <W>
-52.171

> <W(PB)>
-54.674

> <W(SA)>
2.504

> <Valence>
5.450

> <Coulomb>
45.756

> <VdW>
0.793

> <VdW6>
-9.318

> <VdW12>
10.111

> <Bond>
0.250

> <Angle>
1.353

> <Pdih>
3.847

> <Idih>
0.000

> <Tether>
0.000

$$$$
VeraChem MOL file


 29 28  0  0  0  0  0  0  0  0999 V2000     
   20.9691   18.8000   19.9173 C   0  0  0  0  0  0  0  0  0  0  0  0
   20.2804   18.7557   19.0635 H   0  0  0  0  0  0  0  0  0  0  0  0
   21.8224   19.4277   19.6295 H   0  0  0  0  0  0  0  0  0  0  0  0
   21.3450   17.7860   20.1065 H   0  0  0  0  0  0  0  0  0  0  0  0
   20.2680   19.3732   21.1670 C   0  0  0  0  0  0  0  0  0  0  0  0
   19.9292   20.3973   20.9570 H   0  0  0  0  0  0  0  0  0  0  0  0
   20.9975   19.4400   21.9849 H   0  0  0  0  0  0  0  0  0  0  0  0
   19.0633   18.5019   21.5943 C   0  0  0  0  0  0  0  0  0  0  0  0
   18.3867   18.3838   20.7367 H   0  0  0  0  0  0  0  0  0  0  0  0
   19.4100   17.4922   21.8542 H   0  0  0  0  0  0  0  0  0  0  0  0
   18.2575   19.0947   22.7762 C   0  0  0  0  0  0  0  0  0  0  0  0
   17.3641   18.4747   22.9335 H   0  0  0  0  0  0  0  0  0  0  0  0
   17.8946   20.0963   22.5072 H   0  0  0  0  0  0  0  0  0  0  0  0
   19.0597   19.1661   24.0976 C   0  0  0  0  0  0  0  0  0  0  0  0
   19.4653   18.1709   24.3169 H   0  0  0  0  0  0  0  0  0  0  0  0
   19.9089   19.8522   23.9819 H   0  0  0  0  0  0  0  0  0  0  0  0
   18.1770   19.6428   25.2751 C   0  0  0  0  0  0  0  0  0  0  0  0
   17.3941   18.8973   25.4719 H   0  0  0  0  0  0  0  0  0  0  0  0
   17.6555   20.5634   24.9783 H   0  0  0  0  0  0  0  0  0  0  0  0
   18.9552   19.9307   26.5844 C   0  0  0  0  0  0  0  0  0  0  0  0
   19.7006   20.7203   26.4206 H   0  0  0  0  0  0  0  0  0  0  0  0
   18.2437   20.3353   27.3165 H   0  0  0  0  0  0  0  0  0  0  0  0
   19.6262   18.6934   27.2159 C   0  0  0  0  0  0  0  0  0  0  0  0
   18.9634   17.8280   27.1318 H   0  0  0  0  0  0  0  0  0  0  0  0
   19.8000   18.8858   28.2781 H   0  0  0  0  0  0  0  0  0  0  0  0
   20.9679   18.3352   26.6071 N   0  3  0  0  0  0  0  0  0  0  0  0
   21.3783   17.5070   27.0524 H   0  0  0  0  0  0  0  0  0  0  0  0
   21.6462   19.0972   26.7104 H   0  0  0  0  0  0  0  0  0  0  0  0
   20.8886   18.1336   25.6063 H   0  0  0  0  0  0  0  0  0  0  0  0
  1  2  1  0  0  0  0
  1  3  1  0  0  0  0
  1  4  1  0  0  0  0
  1  5  1  0  0  0  0
  5  6  1  0  0  0  0
  5  7  1  0  0  0  0
  5  8  1  0  0  0  0
  8  9  1  0  0  0  0
  8 10  1  0  0  0  0
  8 11  1  0  0  0  0
 11 12  1  0  0  0  0
 11 13  1  0  0  0  0
 11 14  1  0  0  0  0
 14 15  1  0  0  0  0
 14 16  1  0  0  0  0
 14 17  1  0  0  0  0
 17 18  1  0  0  0  0
 17 19  1  0  0  0  0
 17 20  1  0  0  0  0
 20 21  1  0  0  0  0
 20 22  1  0  0  0  0
 20 23  1  0  0  0  0
 23 24  1  0  0  0  0
 23 25  1  0  0  0  0
 23 26  1  0  0  0  0
 26 27  1  0  0  0  0
 26 28  1  0  0  0  0
 26 29  1  0  0  0  0
M  END
> <VM2 Rank>
221

> <Conf_Id>
1280

> <Probability>
0.02

> <Sum Probability>
99.13

> <Delta G>
3.497

> <G>
61.645

> <E>
24.191

> <-TS>
37.454

> <U+W>
0.046

> <U>
52.272

> <W>
-52.226

> <W(PB)>
-54.706

> <W(SA)>
2.479

> <Valence>
4.707

> <Coulomb>
46.779

> <VdW>
0.787

> <VdW6>
-9.146

> <VdW12>
9.933

> <Bond>
0.241

> <Angle>
1.214

> <Pdih>
3.253

> <Idih>
0.000

> <Tether>
0.000

$$$$
VeraChem MOL file


 29 28  0  0  0  0  0  0  0  0999 V2000     
   20.2446   19.3359   19.3783 C   0  0  0  0  0  0  0  0  0  0  0  0
   19.8462   19.2272   18.3612 H   0  0  0  0  0  0  0  0  0  0  0  0
   20.5023   20.3924   19.5283 H   0  0  0  0  0  0  0  0  0  0  0  0
   21.1681   18.7460   19.4434 H   0  0  0  0  0  0  0  0  0  0  0  0
   19.2102   18.8636   20.4219 C   0  0  0  0  0  0  0  0  0  0  0  0
   18.9468   17.8150   20.2247 H   0  0  0  0  0  0  0  0  0  0  0  0
   18.2867   19.4490   20.3108 H   0  0  0  0  0  0  0  0  0  0  0  0
   19.7466   19.0052   21.8636 C   0  0  0  0  0  0  0  0  0  0  0  0
   20.6682   18.4166   21.9699 H   0  0  0  0  0  0  0  0  0  0  0  0
   20.0152   20.0542   22.0423 H   0  0  0  0  0  0  0  0  0  0  0  0
   18.7080   18.5349   22.9106 C   0  0  0  0  0  0  0  0  0  0  0  0
   18.3944   17.5114   22.6626 H   0  0  0  0  0  0  0  0  0  0  0  0
   17.8051   19.1577   22.8455 H   0  0  0  0  0  0  0  0  0  0  0  0
   19.2412   18.5421   24.3646 C   0  0  0  0  0  0  0  0  0  0  0  0
   18.4960   18.0383   24.9920 H   0  0  0  0  0  0  0  0  0  0  0  0
   20.1619   17.9452   24.4212 H   0  0  0  0  0  0  0  0  0  0  0  0
   19.4974   19.9645   24.9230 C   0  0  0  0  0  0  0  0  0  0  0  0
   18.5542   20.5279   24.9347 H   0  0  0  0  0  0  0  0  0  0  0  0
   20.1704   20.5081   24.2482 H   0  0  0  0  0  0  0  0  0  0  0  0
   20.1309   19.9920   26.3376 C   0  0  0  0  0  0  0  0  0  0  0  0
   21.1063   19.4876   26.3295 H   0  0  0  0  0  0  0  0  0  0  0  0
   20.3362   21.0401   26.5929 H   0  0  0  0  0  0  0  0  0  0  0  0
   19.2406   19.4041   27.4520 C   0  0  0  0  0  0  0  0  0  0  0  0
   18.1974   19.6819   27.2798 H   0  0  0  0  0  0  0  0  0  0  0  0
   19.5495   19.8243   28.4130 H   0  0  0  0  0  0  0  0  0  0  0  0
   19.3246   17.8958   27.5835 N   0  3  0  0  0  0  0  0  0  0  0  0
   19.0450   17.4227   26.7195 H   0  0  0  0  0  0  0  0  0  0  0  0
   18.7168   17.5450   28.3320 H   0  0  0  0  0  0  0  0  0  0  0  0
   20.2774   17.5871   27.8030 H   0  0  0  0  0  0  0  0  0  0  0  0
  1  2  1  0  0  0  0
  1  3  1  0  0  0  0
  1  4  1  0  0  0  0
  1  5  1  0  0  0  0
  5  6  1  0  0  0  0
  5  7  1  0  0  0  0
  5  8  1  0  0  0  0
  8  9  1  0  0  0  0
  8 10  1  0  0  0  0
  8 11  1  0  0  0  0
 11 12  1  0  0  0  0
 11 13  1  0  0  0  0
 11 14  1  0  0  0  0
 14 15  1  0  0  0  0
 14 16  1  0  0  0  0
 14 17  1  0  0  0  0
 17 18  1  0  0  0  0
 17 19  1  0  0  0  0
 17 20  1  0  0  0  0
 20 21  1  0  0  0  0
 20 22  1  0  0  0  0
 20 23  1  0  0  0  0
 23 24  1  0  0  0  0
 23 25  1  0  0  0  0
 23 26  1  0  0  0  0
 26 27  1  0  0  0  0
 26 28  1  0  0  0  0
 26 29  1  0  0  0  0
M  END
> <VM2 Rank>
222

> <Conf_Id>
2334

> <Probability>
0.02

> <Sum Probability>
99.14

> <Delta G>
3.499

> <G>
61.647

> <E>
24.302

> <-TS>
37.344

> <U+W>
0.158

> <U>
51.996

> <W>
-51.838

> <W(PB)>
-54.337

> <W(SA)>
2.500

> <Valence>
4.867

> <Coulomb>
46.253

> <VdW>
0.877

> <VdW6>
-9.001

> <VdW12>
9.878

> <Bond>
0.252

> <Angle>
1.290

> <Pdih>
3.325

> <Idih>
0.000

> <Tether>
0.000

$$$$
VeraChem MOL file


 29 28  0  0  0  0  0  0  0  0999 V2000     
   21.1985   20.0183   21.0806 C   0  0  0  0  0  0  0  0  0  0  0  0
   21.7961   19.1029   20.9810 H   0  0  0  0  0  0  0  0  0  0  0  0
   21.6175   20.7688   20.3979 H   0  0  0  0  0  0  0  0  0  0  0  0
   21.3191   20.3990   22.1024 H   0  0  0  0  0  0  0  0  0  0  0  0
   19.7135   19.7518   20.7452 C   0  0  0  0  0  0  0  0  0  0  0  0
   19.6318   19.4955   19.6797 H   0  0  0  0  0  0  0  0  0  0  0  0
   19.1319   20.6737   20.8852 H   0  0  0  0  0  0  0  0  0  0  0  0
   19.0891   18.6075   21.5798 C   0  0  0  0  0  0  0  0  0  0  0  0
   18.0752   18.4154   21.2027 H   0  0  0  0  0  0  0  0  0  0  0  0
   19.6596   17.6823   21.4189 H   0  0  0  0  0  0  0  0  0  0  0  0
   19.0163   18.9187   23.0939 C   0  0  0  0  0  0  0  0  0  0  0  0
   18.4853   19.8680   23.2480 H   0  0  0  0  0  0  0  0  0  0  0  0
   20.0332   19.0432   23.4844 H   0  0  0  0  0  0  0  0  0  0  0  0
   18.3048   17.7911   23.8775 C   0  0  0  0  0  0  0  0  0  0  0  0
   17.3453   17.5677   23.3911 H   0  0  0  0  0  0  0  0  0  0  0  0
   18.9012   16.8706   23.8127 H   0  0  0  0  0  0  0  0  0  0  0  0
   18.0243   18.1201   25.3668 C   0  0  0  0  0  0  0  0  0  0  0  0
   17.4847   17.2658   25.7986 H   0  0  0  0  0  0  0  0  0  0  0  0
   17.3370   18.9743   25.4417 H   0  0  0  0  0  0  0  0  0  0  0  0
   19.2865   18.3782   26.2277 C   0  0  0  0  0  0  0  0  0  0  0  0
   19.0610   18.1088   27.2682 H   0  0  0  0  0  0  0  0  0  0  0  0
   20.1038   17.7187   25.9066 H   0  0  0  0  0  0  0  0  0  0  0  0
   19.7435   19.8499   26.2036 C   0  0  0  0  0  0  0  0  0  0  0  0
   18.9373   20.4892   26.5732 H   0  0  0  0  0  0  0  0  0  0  0  0
   19.9811   20.1570   25.1835 H   0  0  0  0  0  0  0  0  0  0  0  0
   20.9675   20.1024   27.0597 N   0  3  0  0  0  0  0  0  0  0  0  0
   21.7725   19.5492   26.7478 H   0  0  0  0  0  0  0  0  0  0  0  0
   20.8007   19.8647   28.0431 H   0  0  0  0  0  0  0  0  0  0  0  0
   21.2533   21.0874   27.0349 H   0  0  0  0  0  0  0  0  0  0  0  0
  1  2  1  0  0  0  0
  1  3  1  0  0  0  0
  1  4  1  0  0  0  0
  1  5  1  0  0  0  0
  5  6  1  0  0  0  0
  5  7  1  0  0  0  0
  5  8  1  0  0  0  0
  8  9  1  0  0  0  0
  8 10  1  0  0  0  0
  8 11  1  0  0  0  0
 11 12  1  0  0  0  0
 11 13  1  0  0  0  0
 11 14  1  0  0  0  0
 14 15  1  0  0  0  0
 14 16  1  0  0  0  0
 14 17  1  0  0  0  0
 17 18  1  0  0  0  0
 17 19  1  0  0  0  0
 17 20  1  0  0  0  0
 20 21  1  0  0  0  0
 20 22  1  0  0  0  0
 20 23  1  0  0  0  0
 23 24  1  0  0  0  0
 23 25  1  0  0  0  0
 23 26  1  0  0  0  0
 26 27  1  0  0  0  0
 26 28  1  0  0  0  0
 26 29  1  0  0  0  0
M  END
> <VM2 Rank>
223

> <Conf_Id>
2584

> <Probability>
0.02

> <Sum Probability>
99.16

> <Delta G>
3.502

> <G>
61.650

> <E>
23.999

> <-TS>
37.651

> <U+W>
-0.145

> <U>
52.277

> <W>
-52.422

> <W(PB)>
-54.893

> <W(SA)>
2.471

> <Valence>
5.465

> <Coulomb>
46.027

> <VdW>
0.785

> <VdW6>
-9.375

> <VdW12>
10.160

> <Bond>
0.251

> <Angle>
1.379

> <Pdih>
3.835

> <Idih>
0.000

> <Tether>
0.000

$$$$
VeraChem MOL file


 29 28  0  0  0  0  0  0  0  0999 V2000     
   21.0163   18.1840   20.5627 C   0  0  0  0  0  0  0  0  0  0  0  0
   21.8836   18.1664   21.2355 H   0  0  0  0  0  0  0  0  0  0  0  0
   21.0938   17.3199   19.8902 H   0  0  0  0  0  0  0  0  0  0  0  0
   21.0763   19.0937   19.9511 H   0  0  0  0  0  0  0  0  0  0  0  0
   19.6953   18.1377   21.3592 C   0  0  0  0  0  0  0  0  0  0  0  0
   19.6497   17.2027   21.9351 H   0  0  0  0  0  0  0  0  0  0  0  0
   18.8480   18.1211   20.6596 H   0  0  0  0  0  0  0  0  0  0  0  0
   19.5608   19.3446   22.3134 C   0  0  0  0  0  0  0  0  0  0  0  0
   20.4197   19.3587   22.9959 H   0  0  0  0  0  0  0  0  0  0  0  0
   19.6023   20.2769   21.7336 H   0  0  0  0  0  0  0  0  0  0  0  0
   18.2385   19.2961   23.1162 C   0  0  0  0  0  0  0  0  0  0  0  0
   18.1746   18.3651   23.6929 H   0  0  0  0  0  0  0  0  0  0  0  0
   17.3983   19.2635   22.4089 H   0  0  0  0  0  0  0  0  0  0  0  0
   18.0360   20.5143   24.0517 C   0  0  0  0  0  0  0  0  0  0  0  0
   17.9875   21.4237   23.4369 H   0  0  0  0  0  0  0  0  0  0  0  0
   17.0510   20.4278   24.5307 H   0  0  0  0  0  0  0  0  0  0  0  0
   19.1102   20.7216   25.1538 C   0  0  0  0  0  0  0  0  0  0  0  0
   18.8430   21.6362   25.7011 H   0  0  0  0  0  0  0  0  0  0  0  0
   20.0917   20.9277   24.7065 H   0  0  0  0  0  0  0  0  0  0  0  0
   19.2207   19.5679   26.1828 C   0  0  0  0  0  0  0  0  0  0  0  0
   19.6012   19.9789   27.1274 H   0  0  0  0  0  0  0  0  0  0  0  0
   18.2243   19.1614   26.4011 H   0  0  0  0  0  0  0  0  0  0  0  0
   20.1713   18.4408   25.7358 C   0  0  0  0  0  0  0  0  0  0  0  0
   21.1697   18.8512   25.5628 H   0  0  0  0  0  0  0  0  0  0  0  0
   19.8192   17.9960   24.8033 H   0  0  0  0  0  0  0  0  0  0  0  0
   20.2949   17.3310   26.7593 N   0  3  0  0  0  0  0  0  0  0  0  0
   20.9345   16.5927   26.4458 H   0  0  0  0  0  0  0  0  0  0  0  0
   19.3917   16.8841   26.9487 H   0  0  0  0  0  0  0  0  0  0  0  0
   20.6542   17.6768   27.6553 H   0  0  0  0  0  0  0  0  0  0  0  0
  1  2  1  0  0  0  0
  1  3  1  0  0  0  0
  1  4  1  0  0  0  0
  1  5  1  0  0  0  0
  5  6  1  0  0  0  0
  5  7  1  0  0  0  0
  5  8  1  0  0  0  0
  8  9  1  0  0  0  0
  8 10  1  0  0  0  0
  8 11  1  0  0  0  0
 11 12  1  0  0  0  0
 11 13  1  0  0  0  0
 11 14  1  0  0  0  0
 14 15  1  0  0  0  0
 14 16  1  0  0  0  0
 14 17  1  0  0  0  0
 17 18  1  0  0  0  0
 17 19  1  0  0  0  0
 17 20  1  0  0  0  0
 20 21  1  0  0  0  0
 20 22  1  0  0  0  0
 20 23  1  0  0  0  0
 23 24  1  0  0  0  0
 23 25  1  0  0  0  0
 23 26  1  0  0  0  0
 26 27  1  0  0  0  0
 26 28  1  0  0  0  0
 26 29  1  0  0  0  0
M  END
> <VM2 Rank>
224

> <Conf_Id>
2467

> <Probability>
0.01

> <Sum Probability>
99.17

> <Delta G>
3.526

> <G>
61.674

> <E>
23.615

> <-TS>
38.059

> <U+W>
-0.530

> <U>
52.109

> <W>
-52.639

> <W(PB)>
-55.097

> <W(SA)>
2.458

> <Valence>
5.483

> <Coulomb>
46.297

> <VdW>
0.329

> <VdW6>
-10.093

> <VdW12>
10.423

> <Bond>
0.261

> <Angle>
1.719

> <Pdih>
3.504

> <Idih>
0.000

> <Tether>
0.000

$$$$
VeraChem MOL file


 29 28  0  0  0  0  0  0  0  0999 V2000     
   20.2468   17.3461   21.0208 C   0  0  0  0  0  0  0  0  0  0  0  0
   21.2896   17.6814   20.9484 H   0  0  0  0  0  0  0  0  0  0  0  0
   20.0861   16.9348   22.0250 H   0  0  0  0  0  0  0  0  0  0  0  0
   20.1069   16.5274   20.3031 H   0  0  0  0  0  0  0  0  0  0  0  0
   19.2686   18.5037   20.7176 C   0  0  0  0  0  0  0  0  0  0  0  0
   18.2336   18.1516   20.8296 H   0  0  0  0  0  0  0  0  0  0  0  0
   19.3817   18.7958   19.6642 H   0  0  0  0  0  0  0  0  0  0  0  0
   19.4960   19.7510   21.6054 C   0  0  0  0  0  0  0  0  0  0  0  0
   20.5249   20.1132   21.4729 H   0  0  0  0  0  0  0  0  0  0  0  0
   18.8367   20.5551   21.2507 H   0  0  0  0  0  0  0  0  0  0  0  0
   19.2221   19.4962   23.1069 C   0  0  0  0  0  0  0  0  0  0  0  0
   19.9261   18.7419   23.4776 H   0  0  0  0  0  0  0  0  0  0  0  0
   18.2087   19.0907   23.2311 H   0  0  0  0  0  0  0  0  0  0  0  0
   19.3724   20.7876   23.9444 C   0  0  0  0  0  0  0  0  0  0  0  0
   20.4172   21.1257   23.9076 H   0  0  0  0  0  0  0  0  0  0  0  0
   18.7768   21.5861   23.4808 H   0  0  0  0  0  0  0  0  0  0  0  0
   18.9263   20.6514   25.4234 C   0  0  0  0  0  0  0  0  0  0  0  0
   17.8528   20.4218   25.4742 H   0  0  0  0  0  0  0  0  0  0  0  0
   19.0423   21.6364   25.8963 H   0  0  0  0  0  0  0  0  0  0  0  0
   19.7290   19.6196   26.2554 C   0  0  0  0  0  0  0  0  0  0  0  0
   20.7835   19.6261   25.9490 H   0  0  0  0  0  0  0  0  0  0  0  0
   19.7100   19.9294   27.3088 H   0  0  0  0  0  0  0  0  0  0  0  0
   19.1531   18.1928   26.1666 C   0  0  0  0  0  0  0  0  0  0  0  0
   19.1574   17.8454   25.1319 H   0  0  0  0  0  0  0  0  0  0  0  0
   18.1191   18.1931   26.5219 H   0  0  0  0  0  0  0  0  0  0  0  0
   19.9296   17.1898   26.9946 N   0  3  0  0  0  0  0  0  0  0  0  0
   20.9074   17.1214   26.6934 H   0  0  0  0  0  0  0  0  0  0  0  0
   19.5287   16.2478   26.9268 H   0  0  0  0  0  0  0  0  0  0  0  0
   19.9369   17.4402   27.9889 H   0  0  0  0  0  0  0  0  0  0  0  0
  1  2  1  0  0  0  0
  1  3  1  0  0  0  0
  1  4  1  0  0  0  0
  1  5  1  0  0  0  0
  5  6  1  0  0  0  0
  5  7  1  0  0  0  0
  5  8  1  0  0  0  0
  8  9  1  0  0  0  0
  8 10  1  0  0  0  0
  8 11  1  0  0  0  0
 11 12  1  0  0  0  0
 11 13  1  0  0  0  0
 11 14  1  0  0  0  0
 14 15  1  0  0  0  0
 14 16  1  0  0  0  0
 14 17  1  0  0  0  0
 17 18  1  0  0  0  0
 17 19  1  0  0  0  0
 17 20  1  0  0  0  0
 20 21  1  0  0  0  0
 20 22  1  0  0  0  0
 20 23  1  0  0  0  0
 23 24  1  0  0  0  0
 23 25  1  0  0  0  0
 23 26  1  0  0  0  0
 26 27  1  0  0  0  0
 26 28  1  0  0  0  0
 26 29  1  0  0  0  0
M  END
> <VM2 Rank>
225

> <Conf_Id>
1216

> <Probability>
0.01

> <Sum Probability>
99.19

> <Delta G>
3.529

> <G>
61.677

> <E>
24.026

> <-TS>
37.651

> <U+W>
-0.119

> <U>
52.277

> <W>
-52.395

> <W(PB)>
-54.863

> <W(SA)>
2.467

> <Valence>
5.464

> <Coulomb>
46.027

> <VdW>
0.785

> <VdW6>
-9.375

> <VdW12>
10.160

> <Bond>
0.251

> <Angle>
1.378

> <Pdih>
3.835

> <Idih>
0.000

> <Tether>
0.000

$$$$
VeraChem MOL file


 29 28  0  0  0  0  0  0  0  0999 V2000     
   20.8550   18.4796   19.9102 C   0  0  0  0  0  0  0  0  0  0  0  0
   21.7845   19.0193   20.1340 H   0  0  0  0  0  0  0  0  0  0  0  0
   21.1235   17.4659   19.5858 H   0  0  0  0  0  0  0  0  0  0  0  0
   20.3614   18.9829   19.0686 H   0  0  0  0  0  0  0  0  0  0  0  0
   19.9319   18.4297   21.1460 C   0  0  0  0  0  0  0  0  0  0  0  0
   20.4433   17.8846   21.9503 H   0  0  0  0  0  0  0  0  0  0  0  0
   19.0251   17.8595   20.9004 H   0  0  0  0  0  0  0  0  0  0  0  0
   19.5431   19.8485   21.6244 C   0  0  0  0  0  0  0  0  0  0  0  0
   20.4463   20.4005   21.9191 H   0  0  0  0  0  0  0  0  0  0  0  0
   19.1056   20.4016   20.7818 H   0  0  0  0  0  0  0  0  0  0  0  0
   18.5274   19.8522   22.7931 C   0  0  0  0  0  0  0  0  0  0  0  0
   17.6170   19.3171   22.4897 H   0  0  0  0  0  0  0  0  0  0  0  0
   18.2247   20.8905   22.9874 H   0  0  0  0  0  0  0  0  0  0  0  0
   19.0851   19.2376   24.0992 C   0  0  0  0  0  0  0  0  0  0  0  0
   19.3111   18.1745   23.9445 H   0  0  0  0  0  0  0  0  0  0  0  0
   20.0253   19.7428   24.3520 H   0  0  0  0  0  0  0  0  0  0  0  0
   18.0833   19.3801   25.2693 C   0  0  0  0  0  0  0  0  0  0  0  0
   17.1016   19.0091   24.9437 H   0  0  0  0  0  0  0  0  0  0  0  0
   17.9452   20.4441   25.5064 H   0  0  0  0  0  0  0  0  0  0  0  0
   18.4858   18.6136   26.5551 C   0  0  0  0  0  0  0  0  0  0  0  0
   17.6686   18.7213   27.2806 H   0  0  0  0  0  0  0  0  0  0  0  0
   18.5664   17.5378   26.3496 H   0  0  0  0  0  0  0  0  0  0  0  0
   19.7790   19.1218   27.2254 C   0  0  0  0  0  0  0  0  0  0  0  0
   19.7770   18.8211   28.2766 H   0  0  0  0  0  0  0  0  0  0  0  0
   19.8138   20.2138   27.1849 H   0  0  0  0  0  0  0  0  0  0  0  0
   21.0534   18.5748   26.6123 N   0  3  0  0  0  0  0  0  0  0  0  0
   21.0956   17.5523   26.6759 H   0  0  0  0  0  0  0  0  0  0  0  0
   21.8886   18.9386   27.0842 H   0  0  0  0  0  0  0  0  0  0  0  0
   21.1335   18.8205   25.6216 H   0  0  0  0  0  0  0  0  0  0  0  0
  1  2  1  0  0  0  0
  1  3  1  0  0  0  0
  1  4  1  0  0  0  0
  1  5  1  0  0  0  0
  5  6  1  0  0  0  0
  5  7  1  0  0  0  0
  5  8  1  0  0  0  0
  8  9  1  0  0  0  0
  8 10  1  0  0  0  0
  8 11  1  0  0  0  0
 11 12  1  0  0  0  0
 11 13  1  0  0  0  0
 11 14  1  0  0  0  0
 14 15  1  0  0  0  0
 14 16  1  0  0  0  0
 14 17  1  0  0  0  0
 17 18  1  0  0  0  0
 17 19  1  0  0  0  0
 17 20  1  0  0  0  0
 20 21  1  0  0  0  0
 20 22  1  0  0  0  0
 20 23  1  0  0  0  0
 23 24  1  0  0  0  0
 23 25  1  0  0  0  0
 23 26  1  0  0  0  0
 26 27  1  0  0  0  0
 26 28  1  0  0  0  0
 26 29  1  0  0  0  0
M  END
> <VM2 Rank>
226

> <Conf_Id>
1291

> <Probability>
0.01

> <Sum Probability>
99.20

> <Delta G>
3.553

> <G>
61.701

> <E>
24.245

> <-TS>
37.456

> <U+W>
0.101

> <U>
52.272

> <W>
-52.172

> <W(PB)>
-54.659

> <W(SA)>
2.487

> <Valence>
4.707

> <Coulomb>
46.779

> <VdW>
0.786

> <VdW6>
-9.146

> <VdW12>
9.932

> <Bond>
0.241

> <Angle>
1.214

> <Pdih>
3.253

> <Idih>
0.000

> <Tether>
0.000

$$$$
VeraChem MOL file


 29 28  0  0  0  0  0  0  0  0999 V2000     
   19.5380   17.4397   20.6599 C   0  0  0  0  0  0  0  0  0  0  0  0
   19.3035   16.9400   21.6080 H   0  0  0  0  0  0  0  0  0  0  0  0
   18.5937   17.7214   20.1761 H   0  0  0  0  0  0  0  0  0  0  0  0
   20.0397   16.7061   20.0157 H   0  0  0  0  0  0  0  0  0  0  0  0
   20.4409   18.6750   20.8775 C   0  0  0  0  0  0  0  0  0  0  0  0
   20.7476   19.0668   19.8976 H   0  0  0  0  0  0  0  0  0  0  0  0
   21.3644   18.3718   21.3902 H   0  0  0  0  0  0  0  0  0  0  0  0
   19.7498   19.8097   21.6716 C   0  0  0  0  0  0  0  0  0  0  0  0
   20.4192   20.6809   21.6897 H   0  0  0  0  0  0  0  0  0  0  0  0
   18.8419   20.1278   21.1409 H   0  0  0  0  0  0  0  0  0  0  0  0
   19.3944   19.4155   23.1251 C   0  0  0  0  0  0  0  0  0  0  0  0
   20.2995   19.0436   23.6216 H   0  0  0  0  0  0  0  0  0  0  0  0
   18.6611   18.5985   23.1216 H   0  0  0  0  0  0  0  0  0  0  0  0
   18.8207   20.6127   23.9184 C   0  0  0  0  0  0  0  0  0  0  0  0
   19.5972   21.3819   24.0300 H   0  0  0  0  0  0  0  0  0  0  0  0
   18.0148   21.0755   23.3320 H   0  0  0  0  0  0  0  0  0  0  0  0
   18.2525   20.2475   25.3144 C   0  0  0  0  0  0  0  0  0  0  0  0
   17.4005   19.5618   25.2076 H   0  0  0  0  0  0  0  0  0  0  0  0
   17.8413   21.1662   25.7551 H   0  0  0  0  0  0  0  0  0  0  0  0
   19.2864   19.6577   26.3063 C   0  0  0  0  0  0  0  0  0  0  0  0
   20.2605   20.1465   26.1714 H   0  0  0  0  0  0  0  0  0  0  0  0
   18.9614   19.8906   27.3291 H   0  0  0  0  0  0  0  0  0  0  0  0
   19.4328   18.1281   26.1881 C   0  0  0  0  0  0  0  0  0  0  0  0
   19.7617   17.8548   25.1839 H   0  0  0  0  0  0  0  0  0  0  0  0
   18.4653   17.6528   26.3714 H   0  0  0  0  0  0  0  0  0  0  0  0
   20.4286   17.5521   27.1737 N   0  3  0  0  0  0  0  0  0  0  0  0
   21.3681   17.9394   27.0376 H   0  0  0  0  0  0  0  0  0  0  0  0
   20.5087   16.5333   27.0831 H   0  0  0  0  0  0  0  0  0  0  0  0
   20.1600   17.7453   28.1442 H   0  0  0  0  0  0  0  0  0  0  0  0
  1  2  1  0  0  0  0
  1  3  1  0  0  0  0
  1  4  1  0  0  0  0
  1  5  1  0  0  0  0
  5  6  1  0  0  0  0
  5  7  1  0  0  0  0
  5  8  1  0  0  0  0
  8  9  1  0  0  0  0
  8 10  1  0  0  0  0
  8 11  1  0  0  0  0
 11 12  1  0  0  0  0
 11 13  1  0  0  0  0
 11 14  1  0  0  0  0
 14 15  1  0  0  0  0
 14 16  1  0  0  0  0
 14 17  1  0  0  0  0
 17 18  1  0  0  0  0
 17 19  1  0  0  0  0
 17 20  1  0  0  0  0
 20 21  1  0  0  0  0
 20 22  1  0  0  0  0
 20 23  1  0  0  0  0
 23 24  1  0  0  0  0
 23 25  1  0  0  0  0
 23 26  1  0  0  0  0
 26 27  1  0  0  0  0
 26 28  1  0  0  0  0
 26 29  1  0  0  0  0
M  END
> <VM2 Rank>
227

> <Conf_Id>
888

> <Probability>
0.01

> <Sum Probability>
99.21

> <Delta G>
3.558

> <G>
61.706

> <E>
24.061

> <-TS>
37.645

> <U+W>
-0.083

> <U>
52.128

> <W>
-52.212

> <W(PB)>
-54.720

> <W(SA)>
2.508

> <Valence>
5.466

> <Coulomb>
45.873

> <VdW>
0.790

> <VdW6>
-9.337

> <VdW12>
10.127

> <Bond>
0.248

> <Angle>
1.378

> <Pdih>
3.839

> <Idih>
0.000

> <Tether>
0.000

$$$$
VeraChem MOL file


 29 28  0  0  0  0  0  0  0  0999 V2000     
   19.9635   18.5446   19.3607 C   0  0  0  0  0  0  0  0  0  0  0  0
   21.0511   18.4158   19.4363 H   0  0  0  0  0  0  0  0  0  0  0  0
   19.4942   17.5576   19.4650 H   0  0  0  0  0  0  0  0  0  0  0  0
   19.7376   18.9205   18.3544 H   0  0  0  0  0  0  0  0  0  0  0  0
   19.4447   19.5220   20.4366 C   0  0  0  0  0  0  0  0  0  0  0  0
   18.3606   19.6561   20.3153 H   0  0  0  0  0  0  0  0  0  0  0  0
   19.9052   20.5083   20.2848 H   0  0  0  0  0  0  0  0  0  0  0  0
   19.7506   19.0166   21.8639 C   0  0  0  0  0  0  0  0  0  0  0  0
   19.2941   18.0276   21.9971 H   0  0  0  0  0  0  0  0  0  0  0  0
   20.8353   18.8863   21.9806 H   0  0  0  0  0  0  0  0  0  0  0  0
   19.2275   19.9952   22.9431 C   0  0  0  0  0  0  0  0  0  0  0  0
   18.1352   20.0856   22.8660 H   0  0  0  0  0  0  0  0  0  0  0  0
   19.6342   20.9957   22.7404 H   0  0  0  0  0  0  0  0  0  0  0  0
   19.6157   19.5954   24.3881 C   0  0  0  0  0  0  0  0  0  0  0  0
   20.7056   19.4737   24.4554 H   0  0  0  0  0  0  0  0  0  0  0  0
   19.3473   20.4312   25.0453 H   0  0  0  0  0  0  0  0  0  0  0  0
   18.9079   18.3101   24.8861 C   0  0  0  0  0  0  0  0  0  0  0  0
   19.0956   17.4909   24.1809 H   0  0  0  0  0  0  0  0  0  0  0  0
   17.8208   18.4693   24.8890 H   0  0  0  0  0  0  0  0  0  0  0  0
   19.3619   17.8326   26.2894 C   0  0  0  0  0  0  0  0  0  0  0  0
   18.8552   16.8815   26.5002 H   0  0  0  0  0  0  0  0  0  0  0  0
   20.4366   17.6070   26.2872 H   0  0  0  0  0  0  0  0  0  0  0  0
   19.0280   18.8061   27.4387 C   0  0  0  0  0  0  0  0  0  0  0  0
   18.9884   18.2476   28.3778 H   0  0  0  0  0  0  0  0  0  0  0  0
   18.0463   19.2571   27.2705 H   0  0  0  0  0  0  0  0  0  0  0  0
   20.0443   19.9154   27.6283 N   0  3  0  0  0  0  0  0  0  0  0  0
   20.9746   19.5436   27.8462 H   0  0  0  0  0  0  0  0  0  0  0  0
   19.7845   20.5414   28.3986 H   0  0  0  0  0  0  0  0  0  0  0  0
   20.1385   20.4924   26.7877 H   0  0  0  0  0  0  0  0  0  0  0  0
  1  2  1  0  0  0  0
  1  3  1  0  0  0  0
  1  4  1  0  0  0  0
  1  5  1  0  0  0  0
  5  6  1  0  0  0  0
  5  7  1  0  0  0  0
  5  8  1  0  0  0  0
  8  9  1  0  0  0  0
  8 10  1  0  0  0  0
  8 11  1  0  0  0  0
 11 12  1  0  0  0  0
 11 13  1  0  0  0  0
 11 14  1  0  0  0  0
 14 15  1  0  0  0  0
 14 16  1  0  0  0  0
 14 17  1  0  0  0  0
 17 18  1  0  0  0  0
 17 19  1  0  0  0  0
 17 20  1  0  0  0  0
 20 21  1  0  0  0  0
 20 22  1  0  0  0  0
 20 23  1  0  0  0  0
 23 24  1  0  0  0  0
 23 25  1  0  0  0  0
 23 26  1  0  0  0  0
 26 27  1  0  0  0  0
 26 28  1  0  0  0  0
 26 29  1  0  0  0  0
M  END
> <VM2 Rank>
228

> <Conf_Id>
2282

> <Probability>
0.01

> <Sum Probability>
99.23

> <Delta G>
3.588

> <G>
61.736

> <E>
24.392

> <-TS>
37.344

> <U+W>
0.247

> <U>
51.996

> <W>
-51.749

> <W(PB)>
-54.267

> <W(SA)>
2.518

> <Valence>
4.867

> <Coulomb>
46.253

> <VdW>
0.877

> <VdW6>
-9.001

> <VdW12>
9.878

> <Bond>
0.252

> <Angle>
1.290

> <Pdih>
3.325

> <Idih>
0.000

> <Tether>
0.000

$$$$
VeraChem MOL file


 29 28  0  0  0  0  0  0  0  0999 V2000     
   20.4810   20.1589   20.6714 C   0  0  0  0  0  0  0  0  0  0  0  0
   20.1959   20.7527   21.5485 H   0  0  0  0  0  0  0  0  0  0  0  0
   21.3920   19.5952   20.9107 H   0  0  0  0  0  0  0  0  0  0  0  0
   20.7232   20.8623   19.8643 H   0  0  0  0  0  0  0  0  0  0  0  0
   19.3387   19.2142   20.2390 C   0  0  0  0  0  0  0  0  0  0  0  0
   19.5981   18.7696   19.2680 H   0  0  0  0  0  0  0  0  0  0  0  0
   18.4249   19.8010   20.0704 H   0  0  0  0  0  0  0  0  0  0  0  0
   19.0431   18.0688   21.2406 C   0  0  0  0  0  0  0  0  0  0  0  0
   18.2546   17.4419   20.8017 H   0  0  0  0  0  0  0  0  0  0  0  0
   19.9211   17.4155   21.3369 H   0  0  0  0  0  0  0  0  0  0  0  0
   18.5643   18.5376   22.6393 C   0  0  0  0  0  0  0  0  0  0  0  0
   17.8228   17.8174   23.0119 H   0  0  0  0  0  0  0  0  0  0  0  0
   18.0385   19.4986   22.5544 H   0  0  0  0  0  0  0  0  0  0  0  0
   19.7062   18.6359   23.6804 C   0  0  0  0  0  0  0  0  0  0  0  0
   20.1808   17.6514   23.7934 H   0  0  0  0  0  0  0  0  0  0  0  0
   20.4869   19.3203   23.3281 H   0  0  0  0  0  0  0  0  0  0  0  0
   19.1884   19.1162   25.0548 C   0  0  0  0  0  0  0  0  0  0  0  0
   18.4110   18.4266   25.4098 H   0  0  0  0  0  0  0  0  0  0  0  0
   18.7148   20.1016   24.9438 H   0  0  0  0  0  0  0  0  0  0  0  0
   20.3274   19.2071   26.0976 C   0  0  0  0  0  0  0  0  0  0  0  0
   20.7881   18.2203   26.2389 H   0  0  0  0  0  0  0  0  0  0  0  0
   21.1163   19.8698   25.7177 H   0  0  0  0  0  0  0  0  0  0  0  0
   19.8474   19.7502   27.4572 C   0  0  0  0  0  0  0  0  0  0  0  0
   19.3824   20.7300   27.3189 H   0  0  0  0  0  0  0  0  0  0  0  0
   20.7060   19.8708   28.1234 H   0  0  0  0  0  0  0  0  0  0  0  0
   18.8475   18.8491   28.1547 N   0  3  0  0  0  0  0  0  0  0  0  0
   17.9978   18.7219   27.5961 H   0  0  0  0  0  0  0  0  0  0  0  0
   18.5570   19.2324   29.0610 H   0  0  0  0  0  0  0  0  0  0  0  0
   19.2355   17.9171   28.3337 H   0  0  0  0  0  0  0  0  0  0  0  0
  1  2  1  0  0  0  0
  1  3  1  0  0  0  0
  1  4  1  0  0  0  0
  1  5  1  0  0  0  0
  5  6  1  0  0  0  0
  5  7  1  0  0  0  0
  5  8  1  0  0  0  0
  8  9  1  0  0  0  0
  8 10  1  0  0  0  0
  8 11  1  0  0  0  0
 11 12  1  0  0  0  0
 11 13  1  0  0  0  0
 11 14  1  0  0  0  0
 14 15  1  0  0  0  0
 14 16  1  0  0  0  0
 14 17  1  0  0  0  0
 17 18  1  0  0  0  0
 17 19  1  0  0  0  0
 17 20  1  0  0  0  0
 20 21  1  0  0  0  0
 20 22  1  0  0  0  0
 20 23  1  0  0  0  0
 23 24  1  0  0  0  0
 23 25  1  0  0  0  0
 23 26  1  0  0  0  0
 26 27  1  0  0  0  0
 26 28  1  0  0  0  0
 26 29  1  0  0  0  0
M  END
> <VM2 Rank>
229

> <Conf_Id>
652

> <Probability>
0.01

> <Sum Probability>
99.24

> <Delta G>
3.594

> <G>
61.742

> <E>
24.099

> <-TS>
37.643

> <U+W>
-0.046

> <U>
51.589

> <W>
-51.634

> <W(PB)>
-54.120

> <W(SA)>
2.486

> <Valence>
5.652

> <Coulomb>
44.997

> <VdW>
0.940

> <VdW6>
-9.012

> <VdW12>
9.952

> <Bond>
0.249

> <Angle>
1.190

> <Pdih>
4.213

> <Idih>
0.000

> <Tether>
0.000

$$$$
VeraChem MOL file


 29 28  0  0  0  0  0  0  0  0999 V2000     
   21.1456   19.2222   20.1431 C   0  0  0  0  0  0  0  0  0  0  0  0
   20.9137   18.2641   19.6600 H   0  0  0  0  0  0  0  0  0  0  0  0
   21.4416   19.9318   19.3595 H   0  0  0  0  0  0  0  0  0  0  0  0
   22.0085   19.0717   20.8049 H   0  0  0  0  0  0  0  0  0  0  0  0
   19.9295   19.7553   20.9297 C   0  0  0  0  0  0  0  0  0  0  0  0
   19.0944   19.9286   20.2365 H   0  0  0  0  0  0  0  0  0  0  0  0
   20.1808   20.7289   21.3734 H   0  0  0  0  0  0  0  0  0  0  0  0
   19.4917   18.7744   22.0396 C   0  0  0  0  0  0  0  0  0  0  0  0
   19.2422   17.8037   21.5892 H   0  0  0  0  0  0  0  0  0  0  0  0
   20.3352   18.5966   22.7166 H   0  0  0  0  0  0  0  0  0  0  0  0
   18.2673   19.3054   22.8247 C   0  0  0  0  0  0  0  0  0  0  0  0
   17.4378   19.4355   22.1158 H   0  0  0  0  0  0  0  0  0  0  0  0
   18.4764   20.3037   23.2329 H   0  0  0  0  0  0  0  0  0  0  0  0
   17.7992   18.3542   23.9568 C   0  0  0  0  0  0  0  0  0  0  0  0
   16.7029   18.4039   24.0131 H   0  0  0  0  0  0  0  0  0  0  0  0
   18.0347   17.3118   23.7016 H   0  0  0  0  0  0  0  0  0  0  0  0
   18.3535   18.6983   25.3633 C   0  0  0  0  0  0  0  0  0  0  0  0
   17.8990   18.0109   26.0902 H   0  0  0  0  0  0  0  0  0  0  0  0
   18.0199   19.7064   25.6439 H   0  0  0  0  0  0  0  0  0  0  0  0
   19.8939   18.6056   25.4814 C   0  0  0  0  0  0  0  0  0  0  0  0
   20.2330   17.6389   25.0862 H   0  0  0  0  0  0  0  0  0  0  0  0
   20.3681   19.3859   24.8731 H   0  0  0  0  0  0  0  0  0  0  0  0
   20.3842   18.7377   26.9359 C   0  0  0  0  0  0  0  0  0  0  0  0
   21.4676   18.5939   26.9687 H   0  0  0  0  0  0  0  0  0  0  0  0
   19.9183   17.9647   27.5530 H   0  0  0  0  0  0  0  0  0  0  0  0
   20.0793   20.0849   27.5606 N   0  3  0  0  0  0  0  0  0  0  0  0
   20.5120   20.8534   27.0379 H   0  0  0  0  0  0  0  0  0  0  0  0
   20.4256   20.1448   28.5245 H   0  0  0  0  0  0  0  0  0  0  0  0
   19.0715   20.2685   27.5914 H   0  0  0  0  0  0  0  0  0  0  0  0
  1  2  1  0  0  0  0
  1  3  1  0  0  0  0
  1  4  1  0  0  0  0
  1  5  1  0  0  0  0
  5  6  1  0  0  0  0
  5  7  1  0  0  0  0
  5  8  1  0  0  0  0
  8  9  1  0  0  0  0
  8 10  1  0  0  0  0
  8 11  1  0  0  0  0
 11 12  1  0  0  0  0
 11 13  1  0  0  0  0
 11 14  1  0  0  0  0
 14 15  1  0  0  0  0
 14 16  1  0  0  0  0
 14 17  1  0  0  0  0
 17 18  1  0  0  0  0
 17 19  1  0  0  0  0
 17 20  1  0  0  0  0
 20 21  1  0  0  0  0
 20 22  1  0  0  0  0
 20 23  1  0  0  0  0
 23 24  1  0  0  0  0
 23 25  1  0  0  0  0
 23 26  1  0  0  0  0
 26 27  1  0  0  0  0
 26 28  1  0  0  0  0
 26 29  1  0  0  0  0
M  END
> <VM2 Rank>
230

> <Conf_Id>
661

> <Probability>
0.01

> <Sum Probability>
99.25

> <Delta G>
3.629

> <G>
61.777

> <E>
24.104

> <-TS>
37.673

> <U+W>
-0.041

> <U>
52.009

> <W>
-52.050

> <W(PB)>
-54.512

> <W(SA)>
2.462

> <Valence>
5.695

> <Coulomb>
45.464

> <VdW>
0.850

> <VdW6>
-9.160

> <VdW12>
10.010

> <Bond>
0.252

> <Angle>
1.178

> <Pdih>
4.265

> <Idih>
0.000

> <Tether>
0.000

$$$$
VeraChem MOL file


 29 28  0  0  0  0  0  0  0  0999 V2000     
   20.9243   19.5842   20.5107 C   0  0  0  0  0  0  0  0  0  0  0  0
   21.2604   20.4638   19.9465 H   0  0  0  0  0  0  0  0  0  0  0  0
   21.3024   19.6822   21.5342 H   0  0  0  0  0  0  0  0  0  0  0  0
   21.3945   18.7003   20.0603 H   0  0  0  0  0  0  0  0  0  0  0  0
   19.3826   19.4708   20.4675 C   0  0  0  0  0  0  0  0  0  0  0  0
   19.0782   19.4009   19.4138 H   0  0  0  0  0  0  0  0  0  0  0  0
   18.9208   20.3895   20.8551 H   0  0  0  0  0  0  0  0  0  0  0  0
   18.8351   18.2323   21.2226 C   0  0  0  0  0  0  0  0  0  0  0  0
   17.9595   17.8577   20.6746 H   0  0  0  0  0  0  0  0  0  0  0  0
   19.5704   17.4164   21.1980 H   0  0  0  0  0  0  0  0  0  0  0  0
   18.3891   18.5040   22.6826 C   0  0  0  0  0  0  0  0  0  0  0  0
   17.9574   17.5781   23.0872 H   0  0  0  0  0  0  0  0  0  0  0  0
   17.5783   19.2455   22.6842 H   0  0  0  0  0  0  0  0  0  0  0  0
   19.5236   18.9812   23.6183 C   0  0  0  0  0  0  0  0  0  0  0  0
   20.3764   18.2924   23.5443 H   0  0  0  0  0  0  0  0  0  0  0  0
   19.8747   19.9700   23.2960 H   0  0  0  0  0  0  0  0  0  0  0  0
   19.0567   19.0694   25.0888 C   0  0  0  0  0  0  0  0  0  0  0  0
   18.7032   18.0826   25.4163 H   0  0  0  0  0  0  0  0  0  0  0  0
   18.2012   19.7554   25.1612 H   0  0  0  0  0  0  0  0  0  0  0  0
   20.1896   19.5581   26.0219 C   0  0  0  0  0  0  0  0  0  0  0  0
   21.0382   18.8623   25.9800 H   0  0  0  0  0  0  0  0  0  0  0  0
   20.5616   20.5279   25.6654 H   0  0  0  0  0  0  0  0  0  0  0  0
   19.7288   19.7201   27.4831 C   0  0  0  0  0  0  0  0  0  0  0  0
   18.8798   20.4076   27.5274 H   0  0  0  0  0  0  0  0  0  0  0  0
   20.5435   20.1453   28.0756 H   0  0  0  0  0  0  0  0  0  0  0  0
   19.3143   18.4179   28.1395 N   0  3  0  0  0  0  0  0  0  0  0  0
   18.5258   17.9816   27.6514 H   0  0  0  0  0  0  0  0  0  0  0  0
   19.0247   18.5579   29.1137 H   0  0  0  0  0  0  0  0  0  0  0  0
   20.0801   17.7362   28.1492 H   0  0  0  0  0  0  0  0  0  0  0  0
  1  2  1  0  0  0  0
  1  3  1  0  0  0  0
  1  4  1  0  0  0  0
  1  5  1  0  0  0  0
  5  6  1  0  0  0  0
  5  7  1  0  0  0  0
  5  8  1  0  0  0  0
  8  9  1  0  0  0  0
  8 10  1  0  0  0  0
  8 11  1  0  0  0  0
 11 12  1  0  0  0  0
 11 13  1  0  0  0  0
 11 14  1  0  0  0  0
 14 15  1  0  0  0  0
 14 16  1  0  0  0  0
 14 17  1  0  0  0  0
 17 18  1  0  0  0  0
 17 19  1  0  0  0  0
 17 20  1  0  0  0  0
 20 21  1  0  0  0  0
 20 22  1  0  0  0  0
 20 23  1  0  0  0  0
 23 24  1  0  0  0  0
 23 25  1  0  0  0  0
 23 26  1  0  0  0  0
 26 27  1  0  0  0  0
 26 28  1  0  0  0  0
 26 29  1  0  0  0  0
M  END
> <VM2 Rank>
231

> <Conf_Id>
1988

> <Probability>
0.01

> <Sum Probability>
99.26

> <Delta G>
3.641

> <G>
61.789

> <E>
24.155

> <-TS>
37.634

> <U+W>
0.011

> <U>
51.624

> <W>
-51.613

> <W(PB)>
-54.099

> <W(SA)>
2.486

> <Valence>
5.677

> <Coulomb>
44.987

> <VdW>
0.961

> <VdW6>
-9.002

> <VdW12>
9.962

> <Bond>
0.249

> <Angle>
1.231

> <Pdih>
4.197

> <Idih>
0.000

> <Tether>
0.000

$$$$
VeraChem MOL file


 29 28  0  0  0  0  0  0  0  0999 V2000     
   19.1270   17.6597   20.1753 C   0  0  0  0  0  0  0  0  0  0  0  0
   20.1474   17.5380   19.7891 H   0  0  0  0  0  0  0  0  0  0  0  0
   18.6897   16.6598   20.2938 H   0  0  0  0  0  0  0  0  0  0  0  0
   18.5377   18.1977   19.4213 H   0  0  0  0  0  0  0  0  0  0  0  0
   19.1303   18.4158   21.5208 C   0  0  0  0  0  0  0  0  0  0  0  0
   19.6964   17.8277   22.2551 H   0  0  0  0  0  0  0  0  0  0  0  0
   18.1004   18.4991   21.8947 H   0  0  0  0  0  0  0  0  0  0  0  0
   19.7529   19.8236   21.3820 C   0  0  0  0  0  0  0  0  0  0  0  0
   20.8086   19.7284   21.0930 H   0  0  0  0  0  0  0  0  0  0  0  0
   19.2571   20.3529   20.5566 H   0  0  0  0  0  0  0  0  0  0  0  0
   19.6448   20.7014   22.6557 C   0  0  0  0  0  0  0  0  0  0  0  0
   18.5895   20.8938   22.8932 H   0  0  0  0  0  0  0  0  0  0  0  0
   20.0774   21.6830   22.4173 H   0  0  0  0  0  0  0  0  0  0  0  0
   20.3832   20.1376   23.8976 C   0  0  0  0  0  0  0  0  0  0  0  0
   21.2342   19.5190   23.5812 H   0  0  0  0  0  0  0  0  0  0  0  0
   20.8124   20.9795   24.4584 H   0  0  0  0  0  0  0  0  0  0  0  0
   19.4607   19.3427   24.8540 C   0  0  0  0  0  0  0  0  0  0  0  0
   18.9820   18.5116   24.3227 H   0  0  0  0  0  0  0  0  0  0  0  0
   18.6525   20.0004   25.2006 H   0  0  0  0  0  0  0  0  0  0  0  0
   20.2403   18.7877   26.0693 C   0  0  0  0  0  0  0  0  0  0  0  0
   21.0695   18.1616   25.7137 H   0  0  0  0  0  0  0  0  0  0  0  0
   20.6912   19.6128   26.6365 H   0  0  0  0  0  0  0  0  0  0  0  0
   19.3577   17.9411   27.0064 C   0  0  0  0  0  0  0  0  0  0  0  0
   19.9779   17.5082   27.7960 H   0  0  0  0  0  0  0  0  0  0  0  0
   18.9018   17.1224   26.4430 H   0  0  0  0  0  0  0  0  0  0  0  0
   18.2473   18.7283   27.6740 N   0  3  0  0  0  0  0  0  0  0  0  0
   17.6045   19.1346   26.9870 H   0  0  0  0  0  0  0  0  0  0  0  0
   18.6155   19.5007   28.2390 H   0  0  0  0  0  0  0  0  0  0  0  0
   17.6863   18.1398   28.2996 H   0  0  0  0  0  0  0  0  0  0  0  0
  1  2  1  0  0  0  0
  1  3  1  0  0  0  0
  1  4  1  0  0  0  0
  1  5  1  0  0  0  0
  5  6  1  0  0  0  0
  5  7  1  0  0  0  0
  5  8  1  0  0  0  0
  8  9  1  0  0  0  0
  8 10  1  0  0  0  0
  8 11  1  0  0  0  0
 11 12  1  0  0  0  0
 11 13  1  0  0  0  0
 11 14  1  0  0  0  0
 14 15  1  0  0  0  0
 14 16  1  0  0  0  0
 14 17  1  0  0  0  0
 17 18  1  0  0  0  0
 17 19  1  0  0  0  0
 17 20  1  0  0  0  0
 20 21  1  0  0  0  0
 20 22  1  0  0  0  0
 20 23  1  0  0  0  0
 23 24  1  0  0  0  0
 23 25  1  0  0  0  0
 23 26  1  0  0  0  0
 26 27  1  0  0  0  0
 26 28  1  0  0  0  0
 26 29  1  0  0  0  0
M  END
> <VM2 Rank>
232

> <Conf_Id>
279

> <Probability>
0.01

> <Sum Probability>
99.27

> <Delta G>
3.663

> <G>
61.811

> <E>
24.142

> <-TS>
37.670

> <U+W>
-0.003

> <U>
52.020

> <W>
-52.023

> <W(PB)>
-54.510

> <W(SA)>
2.487

> <Valence>
5.716

> <Coulomb>
45.417

> <VdW>
0.888

> <VdW6>
-9.127

> <VdW12>
10.015

> <Bond>
0.252

> <Angle>
1.208

> <Pdih>
4.255

> <Idih>
0.000

> <Tether>
0.000

$$$$
VeraChem MOL file


 29 28  0  0  0  0  0  0  0  0999 V2000     
   20.9133   18.4935   20.5458 C   0  0  0  0  0  0  0  0  0  0  0  0
   21.3030   17.5840   20.0706 H   0  0  0  0  0  0  0  0  0  0  0  0
   21.2973   19.3539   19.9825 H   0  0  0  0  0  0  0  0  0  0  0  0
   21.3274   18.5421   21.5588 H   0  0  0  0  0  0  0  0  0  0  0  0
   19.3668   18.4820   20.5484 C   0  0  0  0  0  0  0  0  0  0  0  0
   18.9922   17.5808   21.0532 H   0  0  0  0  0  0  0  0  0  0  0  0
   19.0276   18.4074   19.5057 H   0  0  0  0  0  0  0  0  0  0  0  0
   18.7429   19.7527   21.1807 C   0  0  0  0  0  0  0  0  0  0  0  0
   19.4086   20.6149   21.0369 H   0  0  0  0  0  0  0  0  0  0  0  0
   17.8242   19.9933   20.6280 H   0  0  0  0  0  0  0  0  0  0  0  0
   18.3631   19.6164   22.6778 C   0  0  0  0  0  0  0  0  0  0  0  0
   17.6156   18.8195   22.7932 H   0  0  0  0  0  0  0  0  0  0  0  0
   17.8698   20.5463   22.9926 H   0  0  0  0  0  0  0  0  0  0  0  0
   19.5595   19.3387   23.6170 C   0  0  0  0  0  0  0  0  0  0  0  0
   19.9796   18.3491   23.3953 H   0  0  0  0  0  0  0  0  0  0  0  0
   20.3512   20.0778   23.4328 H   0  0  0  0  0  0  0  0  0  0  0  0
   19.1444   19.3848   25.1048 C   0  0  0  0  0  0  0  0  0  0  0  0
   18.3447   18.6528   25.2796 H   0  0  0  0  0  0  0  0  0  0  0  0
   18.7286   20.3745   25.3398 H   0  0  0  0  0  0  0  0  0  0  0  0
   20.3395   19.0932   26.0428 C   0  0  0  0  0  0  0  0  0  0  0  0
   20.7432   18.0926   25.8384 H   0  0  0  0  0  0  0  0  0  0  0  0
   21.1482   19.8062   25.8337 H   0  0  0  0  0  0  0  0  0  0  0  0
   19.9663   19.2027   27.5336 C   0  0  0  0  0  0  0  0  0  0  0  0
   19.5586   20.1962   27.7391 H   0  0  0  0  0  0  0  0  0  0  0  0
   20.8642   19.0695   28.1432 H   0  0  0  0  0  0  0  0  0  0  0  0
   18.9481   18.1739   27.9842 N   0  3  0  0  0  0  0  0  0  0  0  0
   18.0642   18.2667   27.4738 H   0  0  0  0  0  0  0  0  0  0  0  0
   18.7300   18.2658   28.9825 H   0  0  0  0  0  0  0  0  0  0  0  0
   19.2842   17.2164   27.8375 H   0  0  0  0  0  0  0  0  0  0  0  0
  1  2  1  0  0  0  0
  1  3  1  0  0  0  0
  1  4  1  0  0  0  0
  1  5  1  0  0  0  0
  5  6  1  0  0  0  0
  5  7  1  0  0  0  0
  5  8  1  0  0  0  0
  8  9  1  0  0  0  0
  8 10  1  0  0  0  0
  8 11  1  0  0  0  0
 11 12  1  0  0  0  0
 11 13  1  0  0  0  0
 11 14  1  0  0  0  0
 14 15  1  0  0  0  0
 14 16  1  0  0  0  0
 14 17  1  0  0  0  0
 17 18  1  0  0  0  0
 17 19  1  0  0  0  0
 17 20  1  0  0  0  0
 20 21  1  0  0  0  0
 20 22  1  0  0  0  0
 20 23  1  0  0  0  0
 23 24  1  0  0  0  0
 23 25  1  0  0  0  0
 23 26  1  0  0  0  0
 26 27  1  0  0  0  0
 26 28  1  0  0  0  0
 26 29  1  0  0  0  0
M  END
> <VM2 Rank>
233

> <Conf_Id>
2330

> <Probability>
0.01

> <Sum Probability>
99.29

> <Delta G>
3.674

> <G>
61.822

> <E>
24.188

> <-TS>
37.634

> <U+W>
0.043

> <U>
51.669

> <W>
-51.626

> <W(PB)>
-54.116

> <W(SA)>
2.490

> <Valence>
5.678

> <Coulomb>
45.035

> <VdW>
0.957

> <VdW6>
-9.003

> <VdW12>
9.960

> <Bond>
0.249

> <Angle>
1.232

> <Pdih>
4.197

> <Idih>
0.000

> <Tether>
0.000

$$$$
VeraChem MOL file


 29 28  0  0  0  0  0  0  0  0999 V2000     
   19.2014   18.3372   19.5646 C   0  0  0  0  0  0  0  0  0  0  0  0
   18.3787   17.9340   18.9599 H   0  0  0  0  0  0  0  0  0  0  0  0
   19.5475   19.2636   19.0879 H   0  0  0  0  0  0  0  0  0  0  0  0
   20.0249   17.6116   19.5401 H   0  0  0  0  0  0  0  0  0  0  0  0
   18.7359   18.5990   21.0125 C   0  0  0  0  0  0  0  0  0  0  0  0
   18.3643   17.6622   21.4509 H   0  0  0  0  0  0  0  0  0  0  0  0
   17.8908   19.3016   21.0023 H   0  0  0  0  0  0  0  0  0  0  0  0
   19.8763   19.1675   21.8857 C   0  0  0  0  0  0  0  0  0  0  0  0
   20.7192   18.4626   21.8915 H   0  0  0  0  0  0  0  0  0  0  0  0
   20.2463   20.1018   21.4413 H   0  0  0  0  0  0  0  0  0  0  0  0
   19.4140   19.4314   23.3364 C   0  0  0  0  0  0  0  0  0  0  0  0
   19.0353   18.4959   23.7621 H   0  0  0  0  0  0  0  0  0  0  0  0
   18.5750   20.1405   23.3263 H   0  0  0  0  0  0  0  0  0  0  0  0
   20.5609   20.0007   24.2070 C   0  0  0  0  0  0  0  0  0  0  0  0
   21.4055   19.2985   24.2320 H   0  0  0  0  0  0  0  0  0  0  0  0
   20.9379   20.9102   23.7189 H   0  0  0  0  0  0  0  0  0  0  0  0
   20.1364   20.3727   25.6519 C   0  0  0  0  0  0  0  0  0  0  0  0
   19.1237   20.7971   25.6563 H   0  0  0  0  0  0  0  0  0  0  0  0
   20.7932   21.1840   25.9950 H   0  0  0  0  0  0  0  0  0  0  0  0
   20.2538   19.2205   26.6851 C   0  0  0  0  0  0  0  0  0  0  0  0
   21.2903   18.8586   26.7063 H   0  0  0  0  0  0  0  0  0  0  0  0
   20.0541   19.6213   27.6878 H   0  0  0  0  0  0  0  0  0  0  0  0
   19.3181   18.0213   26.4413 C   0  0  0  0  0  0  0  0  0  0  0  0
   19.4780   17.2739   27.2232 H   0  0  0  0  0  0  0  0  0  0  0  0
   19.5527   17.5570   25.4810 H   0  0  0  0  0  0  0  0  0  0  0  0
   17.8472   18.3877   26.4505 N   0  3  0  0  0  0  0  0  0  0  0  0
   17.5640   18.7940   27.3482 H   0  0  0  0  0  0  0  0  0  0  0  0
   17.2492   17.5700   26.2889 H   0  0  0  0  0  0  0  0  0  0  0  0
   17.6270   19.0751   25.7232 H   0  0  0  0  0  0  0  0  0  0  0  0
  1  2  1  0  0  0  0
  1  3  1  0  0  0  0
  1  4  1  0  0  0  0
  1  5  1  0  0  0  0
  5  6  1  0  0  0  0
  5  7  1  0  0  0  0
  5  8  1  0  0  0  0
  8  9  1  0  0  0  0
  8 10  1  0  0  0  0
  8 11  1  0  0  0  0
 11 12  1  0  0  0  0
 11 13  1  0  0  0  0
 11 14  1  0  0  0  0
 14 15  1  0  0  0  0
 14 16  1  0  0  0  0
 14 17  1  0  0  0  0
 17 18  1  0  0  0  0
 17 19  1  0  0  0  0
 17 20  1  0  0  0  0
 20 21  1  0  0  0  0
 20 22  1  0  0  0  0
 20 23  1  0  0  0  0
 23 24  1  0  0  0  0
 23 25  1  0  0  0  0
 23 26  1  0  0  0  0
 26 27  1  0  0  0  0
 26 28  1  0  0  0  0
 26 29  1  0  0  0  0
M  END
> <VM2 Rank>
234

> <Conf_Id>
1366

> <Probability>
0.01

> <Sum Probability>
99.30

> <Delta G>
3.685

> <G>
61.833

> <E>
24.127

> <-TS>
37.706

> <U+W>
-0.018

> <U>
52.436

> <W>
-52.454

> <W(PB)>
-54.920

> <W(SA)>
2.466

> <Valence>
5.285

> <Coulomb>
46.570

> <VdW>
0.581

> <VdW6>
-9.434

> <VdW12>
10.015

> <Bond>
0.255

> <Angle>
1.438

> <Pdih>
3.593

> <Idih>
0.000

> <Tether>
0.000

$$$$
VeraChem MOL file


 29 28  0  0  0  0  0  0  0  0999 V2000     
   20.9989   19.5830   20.0195 C   0  0  0  0  0  0  0  0  0  0  0  0
   21.6204   18.6784   20.0428 H   0  0  0  0  0  0  0  0  0  0  0  0
   20.3460   19.5268   19.1387 H   0  0  0  0  0  0  0  0  0  0  0  0
   21.6645   20.4463   19.8907 H   0  0  0  0  0  0  0  0  0  0  0  0
   20.1722   19.7209   21.3155 C   0  0  0  0  0  0  0  0  0  0  0  0
   19.5839   20.6483   21.2751 H   0  0  0  0  0  0  0  0  0  0  0  0
   20.8592   19.8156   22.1666 H   0  0  0  0  0  0  0  0  0  0  0  0
   19.2288   18.5122   21.5205 C   0  0  0  0  0  0  0  0  0  0  0  0
   18.6087   18.3880   20.6220 H   0  0  0  0  0  0  0  0  0  0  0  0
   19.8210   17.5916   21.6154 H   0  0  0  0  0  0  0  0  0  0  0  0
   18.2923   18.6558   22.7454 C   0  0  0  0  0  0  0  0  0  0  0  0
   17.5813   17.8182   22.7374 H   0  0  0  0  0  0  0  0  0  0  0  0
   17.6921   19.5707   22.6443 H   0  0  0  0  0  0  0  0  0  0  0  0
   19.0417   18.6691   24.0993 C   0  0  0  0  0  0  0  0  0  0  0  0
   19.6745   17.7741   24.1753 H   0  0  0  0  0  0  0  0  0  0  0  0
   19.6999   19.5443   24.1373 H   0  0  0  0  0  0  0  0  0  0  0  0
   18.0604   18.7152   25.2945 C   0  0  0  0  0  0  0  0  0  0  0  0
   17.3111   17.9209   25.1721 H   0  0  0  0  0  0  0  0  0  0  0  0
   17.5065   19.6640   25.2765 H   0  0  0  0  0  0  0  0  0  0  0  0
   18.7295   18.5350   26.6811 C   0  0  0  0  0  0  0  0  0  0  0  0
   17.9341   18.5121   27.4379 H   0  0  0  0  0  0  0  0  0  0  0  0
   19.2297   17.5593   26.7402 H   0  0  0  0  0  0  0  0  0  0  0  0
   19.7142   19.6578   27.0681 C   0  0  0  0  0  0  0  0  0  0  0  0
   19.8210   19.6785   28.1560 H   0  0  0  0  0  0  0  0  0  0  0  0
   19.3189   20.6254   26.7474 H   0  0  0  0  0  0  0  0  0  0  0  0
   21.1062   19.4889   26.4911 N   0  3  0  0  0  0  0  0  0  0  0  0
   21.5458   18.6198   26.8117 H   0  0  0  0  0  0  0  0  0  0  0  0
   21.7276   20.2575   26.7666 H   0  0  0  0  0  0  0  0  0  0  0  0
   21.0920   19.4615   25.4677 H   0  0  0  0  0  0  0  0  0  0  0  0
  1  2  1  0  0  0  0
  1  3  1  0  0  0  0
  1  4  1  0  0  0  0
  1  5  1  0  0  0  0
  5  6  1  0  0  0  0
  5  7  1  0  0  0  0
  5  8  1  0  0  0  0
  8  9  1  0  0  0  0
  8 10  1  0  0  0  0
  8 11  1  0  0  0  0
 11 12  1  0  0  0  0
 11 13  1  0  0  0  0
 11 14  1  0  0  0  0
 14 15  1  0  0  0  0
 14 16  1  0  0  0  0
 14 17  1  0  0  0  0
 17 18  1  0  0  0  0
 17 19  1  0  0  0  0
 17 20  1  0  0  0  0
 20 21  1  0  0  0  0
 20 22  1  0  0  0  0
 20 23  1  0  0  0  0
 23 24  1  0  0  0  0
 23 25  1  0  0  0  0
 23 26  1  0  0  0  0
 26 27  1  0  0  0  0
 26 28  1  0  0  0  0
 26 29  1  0  0  0  0
M  END
> <VM2 Rank>
235

> <Conf_Id>
996

> <Probability>
0.01

> <Sum Probability>
99.31

> <Delta G>
3.697

> <G>
61.845

> <E>
24.410

> <-TS>
37.435

> <U+W>
0.265

> <U>
52.481

> <W>
-52.215

> <W(PB)>
-54.699

> <W(SA)>
2.483

> <Valence>
4.726

> <Coulomb>
46.978

> <VdW>
0.777

> <VdW6>
-9.165

> <VdW12>
9.942

> <Bond>
0.244

> <Angle>
1.215

> <Pdih>
3.267

> <Idih>
0.000

> <Tether>
0.000

$$$$
VeraChem MOL file


 29 28  0  0  0  0  0  0  0  0999 V2000     
   20.3172   17.8781   20.4727 C   0  0  0  0  0  0  0  0  0  0  0  0
   21.2462   18.2835   20.0512 H   0  0  0  0  0  0  0  0  0  0  0  0
   20.5339   17.5229   21.4861 H   0  0  0  0  0  0  0  0  0  0  0  0
   20.0303   17.0072   19.8693 H   0  0  0  0  0  0  0  0  0  0  0  0
   19.1942   18.9413   20.4557 C   0  0  0  0  0  0  0  0  0  0  0  0
   18.2505   18.5062   20.8130 H   0  0  0  0  0  0  0  0  0  0  0  0
   19.0173   19.2294   19.4099 H   0  0  0  0  0  0  0  0  0  0  0  0
   19.5412   20.2161   21.2669 C   0  0  0  0  0  0  0  0  0  0  0  0
   20.6269   20.3846   21.2643 H   0  0  0  0  0  0  0  0  0  0  0  0
   19.1067   21.0809   20.7465 H   0  0  0  0  0  0  0  0  0  0  0  0
   19.0032   20.2296   22.7211 C   0  0  0  0  0  0  0  0  0  0  0  0
   17.9064   20.1675   22.7048 H   0  0  0  0  0  0  0  0  0  0  0  0
   19.2476   21.2031   23.1681 H   0  0  0  0  0  0  0  0  0  0  0  0
   19.5681   19.1064   23.6211 C   0  0  0  0  0  0  0  0  0  0  0  0
   19.2202   18.1319   23.2550 H   0  0  0  0  0  0  0  0  0  0  0  0
   20.6652   19.1041   23.5623 H   0  0  0  0  0  0  0  0  0  0  0  0
   19.1298   19.2749   25.0934 C   0  0  0  0  0  0  0  0  0  0  0  0
   18.0324   19.2814   25.1506 H   0  0  0  0  0  0  0  0  0  0  0  0
   19.4746   20.2492   25.4647 H   0  0  0  0  0  0  0  0  0  0  0  0
   19.6860   18.1439   25.9903 C   0  0  0  0  0  0  0  0  0  0  0  0
   19.3666   17.1723   25.5905 H   0  0  0  0  0  0  0  0  0  0  0  0
   20.7839   18.1481   25.9639 H   0  0  0  0  0  0  0  0  0  0  0  0
   19.2060   18.2518   27.4504 C   0  0  0  0  0  0  0  0  0  0  0  0
   19.5605   17.3845   28.0139 H   0  0  0  0  0  0  0  0  0  0  0  0
   18.1131   18.2542   27.4794 H   0  0  0  0  0  0  0  0  0  0  0  0
   19.6983   19.4958   28.1635 N   0  3  0  0  0  0  0  0  0  0  0  0
   19.3698   20.3510   27.7042 H   0  0  0  0  0  0  0  0  0  0  0  0
   20.7223   19.5393   28.1894 H   0  0  0  0  0  0  0  0  0  0  0  0
   19.3717   19.5319   29.1354 H   0  0  0  0  0  0  0  0  0  0  0  0
  1  2  1  0  0  0  0
  1  3  1  0  0  0  0
  1  4  1  0  0  0  0
  1  5  1  0  0  0  0
  5  6  1  0  0  0  0
  5  7  1  0  0  0  0
  5  8  1  0  0  0  0
  8  9  1  0  0  0  0
  8 10  1  0  0  0  0
  8 11  1  0  0  0  0
 11 12  1  0  0  0  0
 11 13  1  0  0  0  0
 11 14  1  0  0  0  0
 14 15  1  0  0  0  0
 14 16  1  0  0  0  0
 14 17  1  0  0  0  0
 17 18  1  0  0  0  0
 17 19  1  0  0  0  0
 17 20  1  0  0  0  0
 20 21  1  0  0  0  0
 20 22  1  0  0  0  0
 20 23  1  0  0  0  0
 23 24  1  0  0  0  0
 23 25  1  0  0  0  0
 23 26  1  0  0  0  0
 26 27  1  0  0  0  0
 26 28  1  0  0  0  0
 26 29  1  0  0  0  0
M  END
> <VM2 Rank>
236

> <Conf_Id>
1547

> <Probability>
0.01

> <Sum Probability>
99.32

> <Delta G>
3.719

> <G>
61.867

> <E>
24.233

> <-TS>
37.634

> <U+W>
0.088

> <U>
51.624

> <W>
-51.536

> <W(PB)>
-54.028

> <W(SA)>
2.492

> <Valence>
5.677

> <Coulomb>
44.987

> <VdW>
0.961

> <VdW6>
-9.002

> <VdW12>
9.963

> <Bond>
0.249

> <Angle>
1.231

> <Pdih>
4.197

> <Idih>
0.000

> <Tether>
0.000

$$$$
VeraChem MOL file


 29 28  0  0  0  0  0  0  0  0999 V2000     
   20.2542   18.6663   19.5079 C   0  0  0  0  0  0  0  0  0  0  0  0
   20.1833   19.3725   18.6705 H   0  0  0  0  0  0  0  0  0  0  0  0
   21.3183   18.4766   19.7000 H   0  0  0  0  0  0  0  0  0  0  0  0
   19.7900   17.7226   19.1928 H   0  0  0  0  0  0  0  0  0  0  0  0
   19.5578   19.2362   20.7617 C   0  0  0  0  0  0  0  0  0  0  0  0
   18.5035   19.4427   20.5305 H   0  0  0  0  0  0  0  0  0  0  0  0
   20.0219   20.1971   21.0205 H   0  0  0  0  0  0  0  0  0  0  0  0
   19.6489   18.2593   21.9577 C   0  0  0  0  0  0  0  0  0  0  0  0
   19.2549   17.2810   21.6494 H   0  0  0  0  0  0  0  0  0  0  0  0
   20.7025   18.0969   22.2236 H   0  0  0  0  0  0  0  0  0  0  0  0
   18.8655   18.7310   23.2073 C   0  0  0  0  0  0  0  0  0  0  0  0
   18.8840   17.9217   23.9460 H   0  0  0  0  0  0  0  0  0  0  0  0
   17.8090   18.8755   22.9428 H   0  0  0  0  0  0  0  0  0  0  0  0
   19.4263   20.0351   23.8316 C   0  0  0  0  0  0  0  0  0  0  0  0
   20.5094   19.9474   23.9935 H   0  0  0  0  0  0  0  0  0  0  0  0
   19.2906   20.8527   23.1116 H   0  0  0  0  0  0  0  0  0  0  0  0
   18.7229   20.4423   25.1525 C   0  0  0  0  0  0  0  0  0  0  0  0
   17.6678   20.1361   25.1322 H   0  0  0  0  0  0  0  0  0  0  0  0
   18.7132   21.5395   25.2115 H   0  0  0  0  0  0  0  0  0  0  0  0
   19.4095   19.9120   26.4364 C   0  0  0  0  0  0  0  0  0  0  0  0
   20.4373   20.2953   26.4868 H   0  0  0  0  0  0  0  0  0  0  0  0
   18.8829   20.3194   27.3097 H   0  0  0  0  0  0  0  0  0  0  0  0
   19.4319   18.3770   26.5395 C   0  0  0  0  0  0  0  0  0  0  0  0
   20.0256   17.9626   25.7207 H   0  0  0  0  0  0  0  0  0  0  0  0
   18.4133   17.9873   26.4625 H   0  0  0  0  0  0  0  0  0  0  0  0
   20.0270   17.8788   27.8405 N   0  3  0  0  0  0  0  0  0  0  0  0
   20.9962   18.1912   27.9612 H   0  0  0  0  0  0  0  0  0  0  0  0
   20.0349   16.8540   27.8883 H   0  0  0  0  0  0  0  0  0  0  0  0
   19.4990   18.2117   28.6540 H   0  0  0  0  0  0  0  0  0  0  0  0
  1  2  1  0  0  0  0
  1  3  1  0  0  0  0
  1  4  1  0  0  0  0
  1  5  1  0  0  0  0
  5  6  1  0  0  0  0
  5  7  1  0  0  0  0
  5  8  1  0  0  0  0
  8  9  1  0  0  0  0
  8 10  1  0  0  0  0
  8 11  1  0  0  0  0
 11 12  1  0  0  0  0
 11 13  1  0  0  0  0
 11 14  1  0  0  0  0
 14 15  1  0  0  0  0
 14 16  1  0  0  0  0
 14 17  1  0  0  0  0
 17 18  1  0  0  0  0
 17 19  1  0  0  0  0
 17 20  1  0  0  0  0
 20 21  1  0  0  0  0
 20 22  1  0  0  0  0
 20 23  1  0  0  0  0
 23 24  1  0  0  0  0
 23 25  1  0  0  0  0
 23 26  1  0  0  0  0
 26 27  1  0  0  0  0
 26 28  1  0  0  0  0
 26 29  1  0  0  0  0
M  END
> <VM2 Rank>
237

> <Conf_Id>
1606

> <Probability>
0.01

> <Sum Probability>
99.33

> <Delta G>
3.723

> <G>
61.871

> <E>
24.380

> <-TS>
37.491

> <U+W>
0.235

> <U>
52.135

> <W>
-51.900

> <W(PB)>
-54.405

> <W(SA)>
2.505

> <Valence>
5.744

> <Coulomb>
45.466

> <VdW>
0.925

> <VdW6>
-9.090

> <VdW12>
10.016

> <Bond>
0.268

> <Angle>
1.306

> <Pdih>
4.170

> <Idih>
0.000

> <Tether>
0.000

$$$$
VeraChem MOL file


 29 28  0  0  0  0  0  0  0  0999 V2000     
   21.1550   19.9189   20.6117 C   0  0  0  0  0  0  0  0  0  0  0  0
   20.8804   19.6643   19.5797 H   0  0  0  0  0  0  0  0  0  0  0  0
   21.6398   20.9037   20.5983 H   0  0  0  0  0  0  0  0  0  0  0  0
   21.8928   19.1846   20.9604 H   0  0  0  0  0  0  0  0  0  0  0  0
   19.9136   19.9350   21.5283 C   0  0  0  0  0  0  0  0  0  0  0  0
   19.2116   20.7023   21.1731 H   0  0  0  0  0  0  0  0  0  0  0  0
   20.2171   20.2347   22.5385 H   0  0  0  0  0  0  0  0  0  0  0  0
   19.2062   18.5586   21.5540 C   0  0  0  0  0  0  0  0  0  0  0  0
   18.8914   18.3181   20.5291 H   0  0  0  0  0  0  0  0  0  0  0  0
   19.9125   17.7696   21.8467 H   0  0  0  0  0  0  0  0  0  0  0  0
   17.9565   18.5234   22.4719 C   0  0  0  0  0  0  0  0  0  0  0  0
   17.2022   17.8803   21.9977 H   0  0  0  0  0  0  0  0  0  0  0  0
   17.4989   19.5204   22.5318 H   0  0  0  0  0  0  0  0  0  0  0  0
   18.2128   17.9676   23.8966 C   0  0  0  0  0  0  0  0  0  0  0  0
   17.2515   17.9259   24.4273 H   0  0  0  0  0  0  0  0  0  0  0  0
   18.5673   16.9302   23.8244 H   0  0  0  0  0  0  0  0  0  0  0  0
   19.2142   18.7960   24.7343 C   0  0  0  0  0  0  0  0  0  0  0  0
   18.9086   19.8506   24.7263 H   0  0  0  0  0  0  0  0  0  0  0  0
   20.2112   18.7407   24.2779 H   0  0  0  0  0  0  0  0  0  0  0  0
   19.3022   18.2844   26.1915 C   0  0  0  0  0  0  0  0  0  0  0  0
   18.3213   18.3633   26.6788 H   0  0  0  0  0  0  0  0  0  0  0  0
   19.5654   17.2183   26.1870 H   0  0  0  0  0  0  0  0  0  0  0  0
   20.3527   19.0428   27.0253 C   0  0  0  0  0  0  0  0  0  0  0  0
   21.3297   18.9716   26.5397 H   0  0  0  0  0  0  0  0  0  0  0  0
   20.4295   18.5852   28.0153 H   0  0  0  0  0  0  0  0  0  0  0  0
   20.0308   20.5112   27.2215 N   0  3  0  0  0  0  0  0  0  0  0  0
   19.9788   21.0107   26.3283 H   0  0  0  0  0  0  0  0  0  0  0  0
   20.7420   20.9841   27.7900 H   0  0  0  0  0  0  0  0  0  0  0  0
   19.1315   20.6431   27.6960 H   0  0  0  0  0  0  0  0  0  0  0  0
  1  2  1  0  0  0  0
  1  3  1  0  0  0  0
  1  4  1  0  0  0  0
  1  5  1  0  0  0  0
  5  6  1  0  0  0  0
  5  7  1  0  0  0  0
  5  8  1  0  0  0  0
  8  9  1  0  0  0  0
  8 10  1  0  0  0  0
  8 11  1  0  0  0  0
 11 12  1  0  0  0  0
 11 13  1  0  0  0  0
 11 14  1  0  0  0  0
 14 15  1  0  0  0  0
 14 16  1  0  0  0  0
 14 17  1  0  0  0  0
 17 18  1  0  0  0  0
 17 19  1  0  0  0  0
 17 20  1  0  0  0  0
 20 21  1  0  0  0  0
 20 22  1  0  0  0  0
 20 23  1  0  0  0  0
 23 24  1  0  0  0  0
 23 25  1  0  0  0  0
 23 26  1  0  0  0  0
 26 27  1  0  0  0  0
 26 28  1  0  0  0  0
 26 29  1  0  0  0  0
M  END
> <VM2 Rank>
238

> <Conf_Id>
1289

> <Probability>
0.01

> <Sum Probability>
99.34

> <Delta G>
3.725

> <G>
61.873

> <E>
24.200

> <-TS>
37.672

> <U+W>
0.056

> <U>
52.242

> <W>
-52.186

> <W(PB)>
-54.645

> <W(SA)>
2.458

> <Valence>
5.713

> <Coulomb>
45.680

> <VdW>
0.849

> <VdW6>
-9.171

> <VdW12>
10.020

> <Bond>
0.251

> <Angle>
1.206

> <Pdih>
4.257

> <Idih>
0.000

> <Tether>
0.000

$$$$
VeraChem MOL file


 29 28  0  0  0  0  0  0  0  0999 V2000     
   21.0686   19.8132   20.2580 C   0  0  0  0  0  0  0  0  0  0  0  0
   21.4667   20.6311   20.8726 H   0  0  0  0  0  0  0  0  0  0  0  0
   21.7484   18.9558   20.3475 H   0  0  0  0  0  0  0  0  0  0  0  0
   21.0780   20.1430   19.2110 H   0  0  0  0  0  0  0  0  0  0  0  0
   19.6383   19.4349   20.6971 C   0  0  0  0  0  0  0  0  0  0  0  0
   19.2548   18.6395   20.0427 H   0  0  0  0  0  0  0  0  0  0  0  0
   18.9750   20.3013   20.5656 H   0  0  0  0  0  0  0  0  0  0  0  0
   19.5976   18.9660   22.1682 C   0  0  0  0  0  0  0  0  0  0  0  0
   20.2581   18.0971   22.2937 H   0  0  0  0  0  0  0  0  0  0  0  0
   19.9890   19.7679   22.8075 H   0  0  0  0  0  0  0  0  0  0  0  0
   18.1639   18.5967   22.6144 C   0  0  0  0  0  0  0  0  0  0  0  0
   17.7401   17.8802   21.8973 H   0  0  0  0  0  0  0  0  0  0  0  0
   17.5256   19.4898   22.5673 H   0  0  0  0  0  0  0  0  0  0  0  0
   18.0745   17.9748   24.0320 C   0  0  0  0  0  0  0  0  0  0  0  0
   17.0222   17.7150   24.2124 H   0  0  0  0  0  0  0  0  0  0  0  0
   18.6229   17.0232   24.0626 H   0  0  0  0  0  0  0  0  0  0  0  0
   18.5459   18.9056   25.1796 C   0  0  0  0  0  0  0  0  0  0  0  0
   17.8954   18.7351   26.0478 H   0  0  0  0  0  0  0  0  0  0  0  0
   18.4038   19.9573   24.8946 H   0  0  0  0  0  0  0  0  0  0  0  0
   20.0142   18.6556   25.6084 C   0  0  0  0  0  0  0  0  0  0  0  0
   20.1223   17.6305   25.9869 H   0  0  0  0  0  0  0  0  0  0  0  0
   20.6820   18.7352   24.7432 H   0  0  0  0  0  0  0  0  0  0  0  0
   20.4956   19.6501   26.6822 C   0  0  0  0  0  0  0  0  0  0  0  0
   20.3851   20.6730   26.3122 H   0  0  0  0  0  0  0  0  0  0  0  0
   21.5547   19.4750   26.8902 H   0  0  0  0  0  0  0  0  0  0  0  0
   19.7455   19.5412   27.9951 N   0  3  0  0  0  0  0  0  0  0  0  0
   18.7452   19.7304   27.8768 H   0  0  0  0  0  0  0  0  0  0  0  0
   20.0974   20.2076   28.6912 H   0  0  0  0  0  0  0  0  0  0  0  0
   19.8309   18.6056   28.4055 H   0  0  0  0  0  0  0  0  0  0  0  0
  1  2  1  0  0  0  0
  1  3  1  0  0  0  0
  1  4  1  0  0  0  0
  1  5  1  0  0  0  0
  5  6  1  0  0  0  0
  5  7  1  0  0  0  0
  5  8  1  0  0  0  0
  8  9  1  0  0  0  0
  8 10  1  0  0  0  0
  8 11  1  0  0  0  0
 11 12  1  0  0  0  0
 11 13  1  0  0  0  0
 11 14  1  0  0  0  0
 14 15  1  0  0  0  0
 14 16  1  0  0  0  0
 14 17  1  0  0  0  0
 17 18  1  0  0  0  0
 17 19  1  0  0  0  0
 17 20  1  0  0  0  0
 20 21  1  0  0  0  0
 20 22  1  0  0  0  0
 20 23  1  0  0  0  0
 23 24  1  0  0  0  0
 23 25  1  0  0  0  0
 23 26  1  0  0  0  0
 26 27  1  0  0  0  0
 26 28  1  0  0  0  0
 26 29  1  0  0  0  0
M  END
> <VM2 Rank>
239

> <Conf_Id>
2619

> <Probability>
0.01

> <Sum Probability>
99.35

> <Delta G>
3.731

> <G>
61.879

> <E>
24.187

> <-TS>
37.692

> <U+W>
0.043

> <U>
51.918

> <W>
-51.875

> <W(PB)>
-54.365

> <W(SA)>
2.490

> <Valence>
5.738

> <Coulomb>
45.289

> <VdW>
0.891

> <VdW6>
-9.145

> <VdW12>
10.036

> <Bond>
0.256

> <Angle>
1.170

> <Pdih>
4.312

> <Idih>
0.000

> <Tether>
0.000

$$$$
VeraChem MOL file


 29 28  0  0  0  0  0  0  0  0999 V2000     
   21.1534   20.1583   20.7969 C   0  0  0  0  0  0  0  0  0  0  0  0
   21.1143   19.7550   19.7766 H   0  0  0  0  0  0  0  0  0  0  0  0
   21.3792   21.2303   20.7271 H   0  0  0  0  0  0  0  0  0  0  0  0
   21.9842   19.6725   21.3251 H   0  0  0  0  0  0  0  0  0  0  0  0
   19.8179   19.9297   21.5355 C   0  0  0  0  0  0  0  0  0  0  0  0
   19.0144   20.4560   21.0016 H   0  0  0  0  0  0  0  0  0  0  0  0
   19.8766   20.3822   22.5326 H   0  0  0  0  0  0  0  0  0  0  0  0
   19.4723   18.4243   21.6358 C   0  0  0  0  0  0  0  0  0  0  0  0
   19.3832   18.0264   20.6154 H   0  0  0  0  0  0  0  0  0  0  0  0
   20.2975   17.8713   22.1052 H   0  0  0  0  0  0  0  0  0  0  0  0
   18.1460   18.1447   22.3896 C   0  0  0  0  0  0  0  0  0  0  0  0
   17.6482   17.2949   21.9023 H   0  0  0  0  0  0  0  0  0  0  0  0
   17.4576   18.9937   22.2780 H   0  0  0  0  0  0  0  0  0  0  0  0
   18.3144   17.7885   23.8893 C   0  0  0  0  0  0  0  0  0  0  0  0
   17.3235   17.5480   24.2985 H   0  0  0  0  0  0  0  0  0  0  0  0
   18.9135   16.8719   23.9808 H   0  0  0  0  0  0  0  0  0  0  0  0
   18.9547   18.9076   24.7428 C   0  0  0  0  0  0  0  0  0  0  0  0
   18.4082   19.8479   24.5868 H   0  0  0  0  0  0  0  0  0  0  0  0
   19.9876   19.0709   24.4114 H   0  0  0  0  0  0  0  0  0  0  0  0
   18.9508   18.5533   26.2486 C   0  0  0  0  0  0  0  0  0  0  0  0
   17.9204   18.3576   26.5740 H   0  0  0  0  0  0  0  0  0  0  0  0
   19.5147   17.6265   26.4187 H   0  0  0  0  0  0  0  0  0  0  0  0
   19.5327   19.6784   27.1258 C   0  0  0  0  0  0  0  0  0  0  0  0
   19.4244   19.4091   28.1800 H   0  0  0  0  0  0  0  0  0  0  0  0
   18.9789   20.6049   26.9518 H   0  0  0  0  0  0  0  0  0  0  0  0
   21.0017   19.9532   26.8707 N   0  3  0  0  0  0  0  0  0  0  0  0
   21.3607   20.6974   27.4790 H   0  0  0  0  0  0  0  0  0  0  0  0
   21.1703   20.2477   25.9038 H   0  0  0  0  0  0  0  0  0  0  0  0
   21.5788   19.1228   27.0406 H   0  0  0  0  0  0  0  0  0  0  0  0
  1  2  1  0  0  0  0
  1  3  1  0  0  0  0
  1  4  1  0  0  0  0
  1  5  1  0  0  0  0
  5  6  1  0  0  0  0
  5  7  1  0  0  0  0
  5  8  1  0  0  0  0
  8  9  1  0  0  0  0
  8 10  1  0  0  0  0
  8 11  1  0  0  0  0
 11 12  1  0  0  0  0
 11 13  1  0  0  0  0
 11 14  1  0  0  0  0
 14 15  1  0  0  0  0
 14 16  1  0  0  0  0
 14 17  1  0  0  0  0
 17 18  1  0  0  0  0
 17 19  1  0  0  0  0
 17 20  1  0  0  0  0
 20 21  1  0  0  0  0
 20 22  1  0  0  0  0
 20 23  1  0  0  0  0
 23 24  1  0  0  0  0
 23 25  1  0  0  0  0
 23 26  1  0  0  0  0
 26 27  1  0  0  0  0
 26 28  1  0  0  0  0
 26 29  1  0  0  0  0
M  END
> <VM2 Rank>
240

> <Conf_Id>
1042

> <Probability>
0.01

> <Sum Probability>
99.36

> <Delta G>
3.739

> <G>
61.887

> <E>
24.203

> <-TS>
37.684

> <U+W>
0.059

> <U>
52.464

> <W>
-52.405

> <W(PB)>
-54.873

> <W(SA)>
2.467

> <Valence>
5.708

> <Coulomb>
45.914

> <VdW>
0.841

> <VdW6>
-9.209

> <VdW12>
10.050

> <Bond>
0.252

> <Angle>
1.191

> <Pdih>
4.265

> <Idih>
0.000

> <Tether>
0.000

$$$$
VeraChem MOL file


 29 28  0  0  0  0  0  0  0  0999 V2000     
   20.3822   17.8512   19.9808 C   0  0  0  0  0  0  0  0  0  0  0  0
   19.9233   18.3414   19.1122 H   0  0  0  0  0  0  0  0  0  0  0  0
   21.4349   18.1588   20.0305 H   0  0  0  0  0  0  0  0  0  0  0  0
   20.3554   16.7674   19.8088 H   0  0  0  0  0  0  0  0  0  0  0  0
   19.6365   18.2152   21.2820 C   0  0  0  0  0  0  0  0  0  0  0  0
   20.0979   17.6748   22.1189 H   0  0  0  0  0  0  0  0  0  0  0  0
   18.5955   17.8697   21.2139 H   0  0  0  0  0  0  0  0  0  0  0  0
   19.6650   19.7389   21.5477 C   0  0  0  0  0  0  0  0  0  0  0  0
   20.7040   20.0745   21.6701 H   0  0  0  0  0  0  0  0  0  0  0  0
   19.2748   20.2619   20.6636 H   0  0  0  0  0  0  0  0  0  0  0  0
   18.8313   20.1706   22.7791 C   0  0  0  0  0  0  0  0  0  0  0  0
   17.7897   19.8452   22.6507 H   0  0  0  0  0  0  0  0  0  0  0  0
   18.8092   21.2686   22.8143 H   0  0  0  0  0  0  0  0  0  0  0  0
   19.3851   19.6335   24.1207 C   0  0  0  0  0  0  0  0  0  0  0  0
   19.3417   18.5386   24.1149 H   0  0  0  0  0  0  0  0  0  0  0  0
   20.4400   19.9234   24.2227 H   0  0  0  0  0  0  0  0  0  0  0  0
   18.5791   20.1707   25.3270 C   0  0  0  0  0  0  0  0  0  0  0  0
   17.5505   19.7870   25.2797 H   0  0  0  0  0  0  0  0  0  0  0  0
   18.5020   21.2638   25.2466 H   0  0  0  0  0  0  0  0  0  0  0  0
   19.1924   19.8326   26.7100 C   0  0  0  0  0  0  0  0  0  0  0  0
   20.1960   20.2690   26.8000 H   0  0  0  0  0  0  0  0  0  0  0  0
   18.5804   20.3236   27.4783 H   0  0  0  0  0  0  0  0  0  0  0  0
   19.2399   18.3261   27.0388 C   0  0  0  0  0  0  0  0  0  0  0  0
   18.3261   17.8400   26.6865 H   0  0  0  0  0  0  0  0  0  0  0  0
   19.2949   18.1999   28.1234 H   0  0  0  0  0  0  0  0  0  0  0  0
   20.4326   17.5991   26.4489 N   0  3  0  0  0  0  0  0  0  0  0  0
   20.4242   16.6008   26.6854 H   0  0  0  0  0  0  0  0  0  0  0  0
   21.3184   17.9811   26.7966 H   0  0  0  0  0  0  0  0  0  0  0  0
   20.4527   17.6693   25.4277 H   0  0  0  0  0  0  0  0  0  0  0  0
  1  2  1  0  0  0  0
  1  3  1  0  0  0  0
  1  4  1  0  0  0  0
  1  5  1  0  0  0  0
  5  6  1  0  0  0  0
  5  7  1  0  0  0  0
  5  8  1  0  0  0  0
  8  9  1  0  0  0  0
  8 10  1  0  0  0  0
  8 11  1  0  0  0  0
 11 12  1  0  0  0  0
 11 13  1  0  0  0  0
 11 14  1  0  0  0  0
 14 15  1  0  0  0  0
 14 16  1  0  0  0  0
 14 17  1  0  0  0  0
 17 18  1  0  0  0  0
 17 19  1  0  0  0  0
 17 20  1  0  0  0  0
 20 21  1  0  0  0  0
 20 22  1  0  0  0  0
 20 23  1  0  0  0  0
 23 24  1  0  0  0  0
 23 25  1  0  0  0  0
 23 26  1  0  0  0  0
 26 27  1  0  0  0  0
 26 28  1  0  0  0  0
 26 29  1  0  0  0  0
M  END
> <VM2 Rank>
241

> <Conf_Id>
644

> <Probability>
0.01

> <Sum Probability>
99.37

> <Delta G>
3.740

> <G>
61.888

> <E>
24.454

> <-TS>
37.434

> <U+W>
0.309

> <U>
52.481

> <W>
-52.172

> <W(PB)>
-54.661

> <W(SA)>
2.490

> <Valence>
4.726

> <Coulomb>
46.978

> <VdW>
0.777

> <VdW6>
-9.165

> <VdW12>
9.942

> <Bond>
0.244

> <Angle>
1.215

> <Pdih>
3.267

> <Idih>
0.000

> <Tether>
0.000

$$$$
VeraChem MOL file


 29 28  0  0  0  0  0  0  0  0999 V2000     
   19.9783   19.4630   19.4252 C   0  0  0  0  0  0  0  0  0  0  0  0
   19.2239   19.5410   18.6315 H   0  0  0  0  0  0  0  0  0  0  0  0
   20.6375   20.3377   19.3504 H   0  0  0  0  0  0  0  0  0  0  0  0
   20.5789   18.5645   19.2323 H   0  0  0  0  0  0  0  0  0  0  0  0
   19.3048   19.3920   20.8120 C   0  0  0  0  0  0  0  0  0  0  0  0
   18.6237   18.5314   20.8320 H   0  0  0  0  0  0  0  0  0  0  0  0
   18.6891   20.2895   20.9637 H   0  0  0  0  0  0  0  0  0  0  0  0
   20.3500   19.2776   21.9471 C   0  0  0  0  0  0  0  0  0  0  0  0
   20.9310   18.3529   21.8265 H   0  0  0  0  0  0  0  0  0  0  0  0
   21.0662   20.1055   21.8526 H   0  0  0  0  0  0  0  0  0  0  0  0
   19.7353   19.3246   23.3679 C   0  0  0  0  0  0  0  0  0  0  0  0
   19.1276   20.2333   23.4766 H   0  0  0  0  0  0  0  0  0  0  0  0
   20.5621   19.4083   24.0842 H   0  0  0  0  0  0  0  0  0  0  0  0
   18.8883   18.0759   23.7185 C   0  0  0  0  0  0  0  0  0  0  0  0
   18.1197   17.9247   22.9503 H   0  0  0  0  0  0  0  0  0  0  0  0
   19.5281   17.1832   23.6902 H   0  0  0  0  0  0  0  0  0  0  0  0
   18.1703   18.1512   25.0911 C   0  0  0  0  0  0  0  0  0  0  0  0
   17.5776   17.2329   25.2049 H   0  0  0  0  0  0  0  0  0  0  0  0
   17.4435   18.9755   25.0919 H   0  0  0  0  0  0  0  0  0  0  0  0
   19.1109   18.2721   26.3165 C   0  0  0  0  0  0  0  0  0  0  0  0
   18.6163   17.8142   27.1835 H   0  0  0  0  0  0  0  0  0  0  0  0
   20.0308   17.6975   26.1451 H   0  0  0  0  0  0  0  0  0  0  0  0
   19.4483   19.7324   26.6755 C   0  0  0  0  0  0  0  0  0  0  0  0
   18.5263   20.2771   26.8961 H   0  0  0  0  0  0  0  0  0  0  0  0
   19.9420   20.2253   25.8360 H   0  0  0  0  0  0  0  0  0  0  0  0
   20.3579   19.8493   27.8812 N   0  3  0  0  0  0  0  0  0  0  0  0
   21.2562   19.3789   27.7289 H   0  0  0  0  0  0  0  0  0  0  0  0
   19.9371   19.4326   28.7183 H   0  0  0  0  0  0  0  0  0  0  0  0
   20.5669   20.8279   28.1075 H   0  0  0  0  0  0  0  0  0  0  0  0
  1  2  1  0  0  0  0
  1  3  1  0  0  0  0
  1  4  1  0  0  0  0
  1  5  1  0  0  0  0
  5  6  1  0  0  0  0
  5  7  1  0  0  0  0
  5  8  1  0  0  0  0
  8  9  1  0  0  0  0
  8 10  1  0  0  0  0
  8 11  1  0  0  0  0
 11 12  1  0  0  0  0
 11 13  1  0  0  0  0
 11 14  1  0  0  0  0
 14 15  1  0  0  0  0
 14 16  1  0  0  0  0
 14 17  1  0  0  0  0
 17 18  1  0  0  0  0
 17 19  1  0  0  0  0
 17 20  1  0  0  0  0
 20 21  1  0  0  0  0
 20 22  1  0  0  0  0
 20 23  1  0  0  0  0
 23 24  1  0  0  0  0
 23 25  1  0  0  0  0
 23 26  1  0  0  0  0
 26 27  1  0  0  0  0
 26 28  1  0  0  0  0
 26 29  1  0  0  0  0
M  END
> <VM2 Rank>
242

> <Conf_Id>
1320

> <Probability>
0.01

> <Sum Probability>
99.38

> <Delta G>
3.740

> <G>
61.888

> <E>
24.328

> <-TS>
37.560

> <U+W>
0.183

> <U>
52.229

> <W>
-52.046

> <W(PB)>
-54.536

> <W(SA)>
2.490

> <Valence>
5.678

> <Coulomb>
45.657

> <VdW>
0.894

> <VdW6>
-9.187

> <VdW12>
10.082

> <Bond>
0.260

> <Angle>
1.481

> <Pdih>
3.936

> <Idih>
0.000

> <Tether>
0.000

$$$$
VeraChem MOL file


 29 28  0  0  0  0  0  0  0  0999 V2000     
   21.2461   19.7673   20.5871 C   0  0  0  0  0  0  0  0  0  0  0  0
   21.5890   18.7908   20.2208 H   0  0  0  0  0  0  0  0  0  0  0  0
   20.7721   20.2988   19.7516 H   0  0  0  0  0  0  0  0  0  0  0  0
   22.1298   20.3418   20.8936 H   0  0  0  0  0  0  0  0  0  0  0  0
   20.2664   19.6031   21.7682 C   0  0  0  0  0  0  0  0  0  0  0  0
   19.9616   20.5951   22.1295 H   0  0  0  0  0  0  0  0  0  0  0  0
   20.7890   19.1023   22.5937 H   0  0  0  0  0  0  0  0  0  0  0  0
   19.0178   18.7865   21.3640 C   0  0  0  0  0  0  0  0  0  0  0  0
   18.5787   19.2306   20.4600 H   0  0  0  0  0  0  0  0  0  0  0  0
   19.3227   17.7681   21.0864 H   0  0  0  0  0  0  0  0  0  0  0  0
   17.9170   18.7154   22.4538 C   0  0  0  0  0  0  0  0  0  0  0  0
   17.0724   18.1523   22.0331 H   0  0  0  0  0  0  0  0  0  0  0  0
   17.5268   19.7210   22.6626 H   0  0  0  0  0  0  0  0  0  0  0  0
   18.3515   18.0214   23.7709 C   0  0  0  0  0  0  0  0  0  0  0  0
   17.4982   17.4486   24.1598 H   0  0  0  0  0  0  0  0  0  0  0  0
   19.1421   17.2862   23.5666 H   0  0  0  0  0  0  0  0  0  0  0  0
   18.8061   19.0145   24.8684 C   0  0  0  0  0  0  0  0  0  0  0  0
   17.9775   19.6954   25.1078 H   0  0  0  0  0  0  0  0  0  0  0  0
   19.6263   19.6387   24.4970 H   0  0  0  0  0  0  0  0  0  0  0  0
   19.2523   18.2798   26.1544 C   0  0  0  0  0  0  0  0  0  0  0  0
   18.4354   17.6366   26.5080 H   0  0  0  0  0  0  0  0  0  0  0  0
   20.1000   17.6173   25.9342 H   0  0  0  0  0  0  0  0  0  0  0  0
   19.6373   19.2474   27.2900 C   0  0  0  0  0  0  0  0  0  0  0  0
   19.8599   18.6746   28.1944 H   0  0  0  0  0  0  0  0  0  0  0  0
   18.7981   19.9140   27.5062 H   0  0  0  0  0  0  0  0  0  0  0  0
   20.8495   20.1028   26.9782 N   0  3  0  0  0  0  0  0  0  0  0  0
   21.6791   19.5314   26.7870 H   0  0  0  0  0  0  0  0  0  0  0  0
   21.0871   20.7245   27.7590 H   0  0  0  0  0  0  0  0  0  0  0  0
   20.6937   20.6968   26.1579 H   0  0  0  0  0  0  0  0  0  0  0  0
  1  2  1  0  0  0  0
  1  3  1  0  0  0  0
  1  4  1  0  0  0  0
  1  5  1  0  0  0  0
  5  6  1  0  0  0  0
  5  7  1  0  0  0  0
  5  8  1  0  0  0  0
  8  9  1  0  0  0  0
  8 10  1  0  0  0  0
  8 11  1  0  0  0  0
 11 12  1  0  0  0  0
 11 13  1  0  0  0  0
 11 14  1  0  0  0  0
 14 15  1  0  0  0  0
 14 16  1  0  0  0  0
 14 17  1  0  0  0  0
 17 18  1  0  0  0  0
 17 19  1  0  0  0  0
 17 20  1  0  0  0  0
 20 21  1  0  0  0  0
 20 22  1  0  0  0  0
 20 23  1  0  0  0  0
 23 24  1  0  0  0  0
 23 25  1  0  0  0  0
 23 26  1  0  0  0  0
 26 27  1  0  0  0  0
 26 28  1  0  0  0  0
 26 29  1  0  0  0  0
M  END
> <VM2 Rank>
243

> <Conf_Id>
1206

> <Probability>
0.01

> <Sum Probability>
99.39

> <Delta G>
3.752

> <G>
61.900

> <E>
24.223

> <-TS>
37.677

> <U+W>
0.078

> <U>
52.545

> <W>
-52.467

> <W(PB)>
-54.915

> <W(SA)>
2.448

> <Valence>
5.714

> <Coulomb>
45.984

> <VdW>
0.847

> <VdW6>
-9.182

> <VdW12>
10.029

> <Bond>
0.253

> <Angle>
1.188

> <Pdih>
4.272

> <Idih>
0.000

> <Tether>
0.000

$$$$
VeraChem MOL file


 29 28  0  0  0  0  0  0  0  0999 V2000     
   20.2814   17.4687   20.5566 C   0  0  0  0  0  0  0  0  0  0  0  0
   21.3124   17.5567   20.9233 H   0  0  0  0  0  0  0  0  0  0  0  0
   20.0346   16.4007   20.4974 H   0  0  0  0  0  0  0  0  0  0  0  0
   20.2439   17.8802   19.5395 H   0  0  0  0  0  0  0  0  0  0  0  0
   19.2968   18.2047   21.4896 C   0  0  0  0  0  0  0  0  0  0  0  0
   19.3286   17.7409   22.4827 H   0  0  0  0  0  0  0  0  0  0  0  0
   18.2728   18.0689   21.1145 H   0  0  0  0  0  0  0  0  0  0  0  0
   19.6187   19.7159   21.5798 C   0  0  0  0  0  0  0  0  0  0  0  0
   20.6606   19.8684   21.8934 H   0  0  0  0  0  0  0  0  0  0  0  0
   19.5413   20.1417   20.5698 H   0  0  0  0  0  0  0  0  0  0  0  0
   18.6601   20.4969   22.5161 C   0  0  0  0  0  0  0  0  0  0  0  0
   17.6743   20.0124   22.5429 H   0  0  0  0  0  0  0  0  0  0  0  0
   18.4890   21.4902   22.0785 H   0  0  0  0  0  0  0  0  0  0  0  0
   19.1899   20.7084   23.9579 C   0  0  0  0  0  0  0  0  0  0  0  0
   20.1216   21.2898   23.9217 H   0  0  0  0  0  0  0  0  0  0  0  0
   18.4643   21.3275   24.5033 H   0  0  0  0  0  0  0  0  0  0  0  0
   19.4300   19.4011   24.7478 C   0  0  0  0  0  0  0  0  0  0  0  0
   20.2437   18.8316   24.2800 H   0  0  0  0  0  0  0  0  0  0  0  0
   18.5266   18.7787   24.7024 H   0  0  0  0  0  0  0  0  0  0  0  0
   19.8010   19.6835   26.2228 C   0  0  0  0  0  0  0  0  0  0  0  0
   20.6791   20.3422   26.2568 H   0  0  0  0  0  0  0  0  0  0  0  0
   18.9844   20.2235   26.7203 H   0  0  0  0  0  0  0  0  0  0  0  0
   20.1234   18.3995   27.0110 C   0  0  0  0  0  0  0  0  0  0  0  0
   20.4582   18.6659   28.0172 H   0  0  0  0  0  0  0  0  0  0  0  0
   20.9320   17.8561   26.5149 H   0  0  0  0  0  0  0  0  0  0  0  0
   18.9427   17.4592   27.1535 N   0  3  0  0  0  0  0  0  0  0  0  0
   18.5992   17.1410   26.2420 H   0  0  0  0  0  0  0  0  0  0  0  0
   18.1560   17.9071   27.6350 H   0  0  0  0  0  0  0  0  0  0  0  0
   19.1865   16.6211   27.6926 H   0  0  0  0  0  0  0  0  0  0  0  0
  1  2  1  0  0  0  0
  1  3  1  0  0  0  0
  1  4  1  0  0  0  0
  1  5  1  0  0  0  0
  5  6  1  0  0  0  0
  5  7  1  0  0  0  0
  5  8  1  0  0  0  0
  8  9  1  0  0  0  0
  8 10  1  0  0  0  0
  8 11  1  0  0  0  0
 11 12  1  0  0  0  0
 11 13  1  0  0  0  0
 11 14  1  0  0  0  0
 14 15  1  0  0  0  0
 14 16  1  0  0  0  0
 14 17  1  0  0  0  0
 17 18  1  0  0  0  0
 17 19  1  0  0  0  0
 17 20  1  0  0  0  0
 20 21  1  0  0  0  0
 20 22  1  0  0  0  0
 20 23  1  0  0  0  0
 23 24  1  0  0  0  0
 23 25  1  0  0  0  0
 23 26  1  0  0  0  0
 26 27  1  0  0  0  0
 26 28  1  0  0  0  0
 26 29  1  0  0  0  0
M  END
> <VM2 Rank>
244

> <Conf_Id>
702

> <Probability>
0.01

> <Sum Probability>
99.40

> <Delta G>
3.757

> <G>
61.905

> <E>
24.233

> <-TS>
37.672

> <U+W>
0.088

> <U>
52.242

> <W>
-52.154

> <W(PB)>
-54.645

> <W(SA)>
2.491

> <Valence>
5.714

> <Coulomb>
45.680

> <VdW>
0.848

> <VdW6>
-9.170

> <VdW12>
10.019

> <Bond>
0.251

> <Angle>
1.206

> <Pdih>
4.257

> <Idih>
0.000

> <Tether>
0.000

$$$$
VeraChem MOL file


 29 28  0  0  0  0  0  0  0  0999 V2000     
   21.4315   19.0420   20.5935 C   0  0  0  0  0  0  0  0  0  0  0  0
   22.1284   19.4876   21.3153 H   0  0  0  0  0  0  0  0  0  0  0  0
   21.5608   17.9521   20.6213 H   0  0  0  0  0  0  0  0  0  0  0  0
   21.7156   19.3897   19.5918 H   0  0  0  0  0  0  0  0  0  0  0  0
   19.9740   19.4357   20.9138 C   0  0  0  0  0  0  0  0  0  0  0  0
   19.3053   19.0045   20.1557 H   0  0  0  0  0  0  0  0  0  0  0  0
   19.8678   20.5275   20.8466 H   0  0  0  0  0  0  0  0  0  0  0  0
   19.5487   18.9562   22.3191 C   0  0  0  0  0  0  0  0  0  0  0  0
   19.6511   17.8641   22.3800 H   0  0  0  0  0  0  0  0  0  0  0  0
   20.2297   19.3897   23.0627 H   0  0  0  0  0  0  0  0  0  0  0  0
   18.0930   19.3605   22.6484 C   0  0  0  0  0  0  0  0  0  0  0  0
   17.4369   19.0306   21.8311 H   0  0  0  0  0  0  0  0  0  0  0  0
   18.0166   20.4562   22.6778 H   0  0  0  0  0  0  0  0  0  0  0  0
   17.5485   18.7708   23.9750 C   0  0  0  0  0  0  0  0  0  0  0  0
   16.5029   19.0937   24.0747 H   0  0  0  0  0  0  0  0  0  0  0  0
   17.5141   17.6743   23.9145 H   0  0  0  0  0  0  0  0  0  0  0  0
   18.3148   19.2172   25.2475 C   0  0  0  0  0  0  0  0  0  0  0  0
   17.5912   19.3297   26.0668 H   0  0  0  0  0  0  0  0  0  0  0  0
   18.7508   20.2123   25.0888 H   0  0  0  0  0  0  0  0  0  0  0  0
   19.3978   18.2048   25.7002 C   0  0  0  0  0  0  0  0  0  0  0  0
   18.9265   17.2291   25.8781 H   0  0  0  0  0  0  0  0  0  0  0  0
   20.1439   18.0470   24.9133 H   0  0  0  0  0  0  0  0  0  0  0  0
   20.1104   18.6408   26.9946 C   0  0  0  0  0  0  0  0  0  0  0  0
   20.7894   17.8480   27.3200 H   0  0  0  0  0  0  0  0  0  0  0  0
   19.3722   18.8035   27.7845 H   0  0  0  0  0  0  0  0  0  0  0  0
   20.9253   19.9101   26.8428 N   0  3  0  0  0  0  0  0  0  0  0  0
   20.3400   20.7056   26.5692 H   0  0  0  0  0  0  0  0  0  0  0  0
   21.6557   19.8105   26.1303 H   0  0  0  0  0  0  0  0  0  0  0  0
   21.3934   20.1683   27.7185 H   0  0  0  0  0  0  0  0  0  0  0  0
  1  2  1  0  0  0  0
  1  3  1  0  0  0  0
  1  4  1  0  0  0  0
  1  5  1  0  0  0  0
  5  6  1  0  0  0  0
  5  7  1  0  0  0  0
  5  8  1  0  0  0  0
  8  9  1  0  0  0  0
  8 10  1  0  0  0  0
  8 11  1  0  0  0  0
 11 12  1  0  0  0  0
 11 13  1  0  0  0  0
 11 14  1  0  0  0  0
 14 15  1  0  0  0  0
 14 16  1  0  0  0  0
 14 17  1  0  0  0  0
 17 18  1  0  0  0  0
 17 19  1  0  0  0  0
 17 20  1  0  0  0  0
 20 21  1  0  0  0  0
 20 22  1  0  0  0  0
 20 23  1  0  0  0  0
 23 24  1  0  0  0  0
 23 25  1  0  0  0  0
 23 26  1  0  0  0  0
 26 27  1  0  0  0  0
 26 28  1  0  0  0  0
 26 29  1  0  0  0  0
M  END
> <VM2 Rank>
245

> <Conf_Id>
1045

> <Probability>
0.01

> <Sum Probability>
99.41

> <Delta G>
3.760

> <G>
61.908

> <E>
24.245

> <-TS>
37.664

> <U+W>
0.100

> <U>
52.605

> <W>
-52.505

> <W(PB)>
-54.984

> <W(SA)>
2.479

> <Valence>
5.693

> <Coulomb>
46.124

> <VdW>
0.788

> <VdW6>
-9.248

> <VdW12>
10.037

> <Bond>
0.257

> <Angle>
1.229

> <Pdih>
4.207

> <Idih>
0.000

> <Tether>
0.000

$$$$
VeraChem MOL file


 29 28  0  0  0  0  0  0  0  0999 V2000     
   20.4485   17.5294   20.5371 C   0  0  0  0  0  0  0  0  0  0  0  0
   19.7571   17.4509   19.6880 H   0  0  0  0  0  0  0  0  0  0  0  0
   21.3367   18.0827   20.2049 H   0  0  0  0  0  0  0  0  0  0  0  0
   20.7655   16.5140   20.8081 H   0  0  0  0  0  0  0  0  0  0  0  0
   19.7767   18.2290   21.7375 C   0  0  0  0  0  0  0  0  0  0  0  0
   20.4866   18.2533   22.5748 H   0  0  0  0  0  0  0  0  0  0  0  0
   18.9084   17.6398   22.0635 H   0  0  0  0  0  0  0  0  0  0  0  0
   19.3315   19.6663   21.3837 C   0  0  0  0  0  0  0  0  0  0  0  0
   20.2155   20.2726   21.1426 H   0  0  0  0  0  0  0  0  0  0  0  0
   18.7235   19.6361   20.4690 H   0  0  0  0  0  0  0  0  0  0  0  0
   18.5081   20.3740   22.4908 C   0  0  0  0  0  0  0  0  0  0  0  0
   17.5672   19.8342   22.6650 H   0  0  0  0  0  0  0  0  0  0  0  0
   18.2157   21.3603   22.1047 H   0  0  0  0  0  0  0  0  0  0  0  0
   19.2647   20.5842   23.8282 C   0  0  0  0  0  0  0  0  0  0  0  0
   20.3448   20.6616   23.6422 H   0  0  0  0  0  0  0  0  0  0  0  0
   18.9599   21.5513   24.2515 H   0  0  0  0  0  0  0  0  0  0  0  0
   18.9736   19.4847   24.8788 C   0  0  0  0  0  0  0  0  0  0  0  0
   19.2200   18.4979   24.4714 H   0  0  0  0  0  0  0  0  0  0  0  0
   17.8979   19.4718   25.1027 H   0  0  0  0  0  0  0  0  0  0  0  0
   19.7654   19.7203   26.1866 C   0  0  0  0  0  0  0  0  0  0  0  0
   20.8441   19.7060   25.9810 H   0  0  0  0  0  0  0  0  0  0  0  0
   19.5339   20.7203   26.5769 H   0  0  0  0  0  0  0  0  0  0  0  0
   19.4361   18.6830   27.2774 C   0  0  0  0  0  0  0  0  0  0  0  0
   18.3615   18.6888   27.4787 H   0  0  0  0  0  0  0  0  0  0  0  0
   19.9576   18.9498   28.2006 H   0  0  0  0  0  0  0  0  0  0  0  0
   19.8393   17.2672   26.9148 N   0  3  0  0  0  0  0  0  0  0  0  0
   19.3548   16.9384   26.0739 H   0  0  0  0  0  0  0  0  0  0  0  0
   19.6194   16.6049   27.6669 H   0  0  0  0  0  0  0  0  0  0  0  0
   20.8460   17.1928   26.7349 H   0  0  0  0  0  0  0  0  0  0  0  0
  1  2  1  0  0  0  0
  1  3  1  0  0  0  0
  1  4  1  0  0  0  0
  1  5  1  0  0  0  0
  5  6  1  0  0  0  0
  5  7  1  0  0  0  0
  5  8  1  0  0  0  0
  8  9  1  0  0  0  0
  8 10  1  0  0  0  0
  8 11  1  0  0  0  0
 11 12  1  0  0  0  0
 11 13  1  0  0  0  0
 11 14  1  0  0  0  0
 14 15  1  0  0  0  0
 14 16  1  0  0  0  0
 14 17  1  0  0  0  0
 17 18  1  0  0  0  0
 17 19  1  0  0  0  0
 17 20  1  0  0  0  0
 20 21  1  0  0  0  0
 20 22  1  0  0  0  0
 20 23  1  0  0  0  0
 23 24  1  0  0  0  0
 23 25  1  0  0  0  0
 23 26  1  0  0  0  0
 26 27  1  0  0  0  0
 26 28  1  0  0  0  0
 26 29  1  0  0  0  0
M  END
> <VM2 Rank>
246

> <Conf_Id>
1207

> <Probability>
0.01

> <Sum Probability>
99.42

> <Delta G>
3.772

> <G>
61.920

> <E>
24.243

> <-TS>
37.677

> <U+W>
0.098

> <U>
52.544

> <W>
-52.446

> <W(PB)>
-54.904

> <W(SA)>
2.458

> <Valence>
5.714

> <Coulomb>
45.984

> <VdW>
0.847

> <VdW6>
-9.182

> <VdW12>
10.029

> <Bond>
0.253

> <Angle>
1.188

> <Pdih>
4.272

> <Idih>
0.000

> <Tether>
0.000

$$$$
VeraChem MOL file


 29 28  0  0  0  0  0  0  0  0999 V2000     
   20.1522   17.4617   21.3550 C   0  0  0  0  0  0  0  0  0  0  0  0
   21.1306   17.6397   21.8198 H   0  0  0  0  0  0  0  0  0  0  0  0
   19.4243   17.2384   22.1447 H   0  0  0  0  0  0  0  0  0  0  0  0
   20.2371   16.5667   20.7253 H   0  0  0  0  0  0  0  0  0  0  0  0
   19.7076   18.6753   20.5100 C   0  0  0  0  0  0  0  0  0  0  0  0
   18.6993   18.4928   20.1130 H   0  0  0  0  0  0  0  0  0  0  0  0
   20.3686   18.7568   19.6358 H   0  0  0  0  0  0  0  0  0  0  0  0
   19.7298   20.0261   21.2700 C   0  0  0  0  0  0  0  0  0  0  0  0
   20.7554   20.2674   21.5815 H   0  0  0  0  0  0  0  0  0  0  0  0
   19.4449   20.8113   20.5561 H   0  0  0  0  0  0  0  0  0  0  0  0
   18.7661   20.1038   22.4828 C   0  0  0  0  0  0  0  0  0  0  0  0
   17.9009   19.4469   22.3184 H   0  0  0  0  0  0  0  0  0  0  0  0
   18.3652   21.1250   22.5431 H   0  0  0  0  0  0  0  0  0  0  0  0
   19.4477   19.7724   23.8328 C   0  0  0  0  0  0  0  0  0  0  0  0
   19.9000   18.7754   23.7907 H   0  0  0  0  0  0  0  0  0  0  0  0
   20.2682   20.4816   24.0087 H   0  0  0  0  0  0  0  0  0  0  0  0
   18.4467   19.8429   25.0107 C   0  0  0  0  0  0  0  0  0  0  0  0
   17.6382   19.1154   24.8539 H   0  0  0  0  0  0  0  0  0  0  0  0
   17.9740   20.8347   25.0244 H   0  0  0  0  0  0  0  0  0  0  0  0
   19.1083   19.5894   26.3856 C   0  0  0  0  0  0  0  0  0  0  0  0
   19.9021   20.3291   26.5552 H   0  0  0  0  0  0  0  0  0  0  0  0
   18.3604   19.7441   27.1747 H   0  0  0  0  0  0  0  0  0  0  0  0
   19.6883   18.1684   26.5138 C   0  0  0  0  0  0  0  0  0  0  0  0
   20.4671   18.0167   25.7620 H   0  0  0  0  0  0  0  0  0  0  0  0
   18.8980   17.4319   26.3453 H   0  0  0  0  0  0  0  0  0  0  0  0
   20.2972   17.8980   27.8743 N   0  3  0  0  0  0  0  0  0  0  0  0
   21.0668   18.5427   28.0831 H   0  0  0  0  0  0  0  0  0  0  0  0
   20.6774   16.9473   27.9396 H   0  0  0  0  0  0  0  0  0  0  0  0
   19.6081   17.9964   28.6273 H   0  0  0  0  0  0  0  0  0  0  0  0
  1  2  1  0  0  0  0
  1  3  1  0  0  0  0
  1  4  1  0  0  0  0
  1  5  1  0  0  0  0
  5  6  1  0  0  0  0
  5  7  1  0  0  0  0
  5  8  1  0  0  0  0
  8  9  1  0  0  0  0
  8 10  1  0  0  0  0
  8 11  1  0  0  0  0
 11 12  1  0  0  0  0
 11 13  1  0  0  0  0
 11 14  1  0  0  0  0
 14 15  1  0  0  0  0
 14 16  1  0  0  0  0
 14 17  1  0  0  0  0
 17 18  1  0  0  0  0
 17 19  1  0  0  0  0
 17 20  1  0  0  0  0
 20 21  1  0  0  0  0
 20 22  1  0  0  0  0
 20 23  1  0  0  0  0
 23 24  1  0  0  0  0
 23 25  1  0  0  0  0
 23 26  1  0  0  0  0
 26 27  1  0  0  0  0
 26 28  1  0  0  0  0
 26 29  1  0  0  0  0
M  END
> <VM2 Rank>
247

> <Conf_Id>
1965

> <Probability>
0.01

> <Sum Probability>
99.43

> <Delta G>
3.780

> <G>
61.928

> <E>
24.281

> <-TS>
37.647

> <U+W>
0.136

> <U>
52.045

> <W>
-51.908

> <W(PB)>
-54.363

> <W(SA)>
2.455

> <Valence>
5.850

> <Coulomb>
45.356

> <VdW>
0.838

> <VdW6>
-9.170

> <VdW12>
10.009

> <Bond>
0.253

> <Angle>
1.262

> <Pdih>
4.334

> <Idih>
0.000

> <Tether>
0.000

$$$$
VeraChem MOL file


 29 28  0  0  0  0  0  0  0  0999 V2000     
   19.7818   19.9695   19.6010 C   0  0  0  0  0  0  0  0  0  0  0  0
   19.4733   19.0520   19.0832 H   0  0  0  0  0  0  0  0  0  0  0  0
   19.4062   20.8247   19.0243 H   0  0  0  0  0  0  0  0  0  0  0  0
   20.8787   20.0138   19.5941 H   0  0  0  0  0  0  0  0  0  0  0  0
   19.2347   20.0027   21.0437 C   0  0  0  0  0  0  0  0  0  0  0  0
   18.1360   19.9912   21.0173 H   0  0  0  0  0  0  0  0  0  0  0  0
   19.5306   20.9458   21.5241 H   0  0  0  0  0  0  0  0  0  0  0  0
   19.7488   18.8084   21.8778 C   0  0  0  0  0  0  0  0  0  0  0  0
   19.4533   17.8684   21.3915 H   0  0  0  0  0  0  0  0  0  0  0  0
   20.8473   18.8233   21.9000 H   0  0  0  0  0  0  0  0  0  0  0  0
   19.2029   18.8379   23.3231 C   0  0  0  0  0  0  0  0  0  0  0  0
   18.1048   18.8177   23.2964 H   0  0  0  0  0  0  0  0  0  0  0  0
   19.4927   19.7850   23.7909 H   0  0  0  0  0  0  0  0  0  0  0  0
   19.7213   17.6389   24.1544 C   0  0  0  0  0  0  0  0  0  0  0  0
   19.4472   16.7155   23.6254 H   0  0  0  0  0  0  0  0  0  0  0  0
   20.8192   17.6496   24.1954 H   0  0  0  0  0  0  0  0  0  0  0  0
   19.1369   17.5613   25.5891 C   0  0  0  0  0  0  0  0  0  0  0  0
   19.1295   16.5046   25.8906 H   0  0  0  0  0  0  0  0  0  0  0  0
   18.0834   17.8712   25.5910 H   0  0  0  0  0  0  0  0  0  0  0  0
   19.9403   18.3390   26.6655 C   0  0  0  0  0  0  0  0  0  0  0  0
   19.5182   18.1148   27.6542 H   0  0  0  0  0  0  0  0  0  0  0  0
   20.9723   17.9645   26.6866 H   0  0  0  0  0  0  0  0  0  0  0  0
   19.9748   19.8681   26.4825 C   0  0  0  0  0  0  0  0  0  0  0  0
   20.4632   20.1177   25.5380 H   0  0  0  0  0  0  0  0  0  0  0  0
   20.5595   20.3154   27.2909 H   0  0  0  0  0  0  0  0  0  0  0  0
   18.6026   20.5121   26.4978 N   0  3  0  0  0  0  0  0  0  0  0  0
   18.0082   20.1472   25.7472 H   0  0  0  0  0  0  0  0  0  0  0  0
   18.6571   21.5294   26.3770 H   0  0  0  0  0  0  0  0  0  0  0  0
   18.1139   20.3407   27.3827 H   0  0  0  0  0  0  0  0  0  0  0  0
  1  2  1  0  0  0  0
  1  3  1  0  0  0  0
  1  4  1  0  0  0  0
  1  5  1  0  0  0  0
  5  6  1  0  0  0  0
  5  7  1  0  0  0  0
  5  8  1  0  0  0  0
  8  9  1  0  0  0  0
  8 10  1  0  0  0  0
  8 11  1  0  0  0  0
 11 12  1  0  0  0  0
 11 13  1  0  0  0  0
 11 14  1  0  0  0  0
 14 15  1  0  0  0  0
 14 16  1  0  0  0  0
 14 17  1  0  0  0  0
 17 18  1  0  0  0  0
 17 19  1  0  0  0  0
 17 20  1  0  0  0  0
 20 21  1  0  0  0  0
 20 22  1  0  0  0  0
 20 23  1  0  0  0  0
 23 24  1  0  0  0  0
 23 25  1  0  0  0  0
 23 26  1  0  0  0  0
 26 27  1  0  0  0  0
 26 28  1  0  0  0  0
 26 29  1  0  0  0  0
M  END
> <VM2 Rank>
248

> <Conf_Id>
2523

> <Probability>
0.01

> <Sum Probability>
99.44

> <Delta G>
3.796

> <G>
61.944

> <E>
24.237

> <-TS>
37.707

> <U+W>
0.092

> <U>
52.436

> <W>
-52.344

> <W(PB)>
-54.823

> <W(SA)>
2.479

> <Valence>
5.286

> <Coulomb>
46.570

> <VdW>
0.581

> <VdW6>
-9.434

> <VdW12>
10.015

> <Bond>
0.255

> <Angle>
1.437

> <Pdih>
3.594

> <Idih>
0.000

> <Tether>
0.000

$$$$
VeraChem MOL file


 29 28  0  0  0  0  0  0  0  0999 V2000     
   20.9345   19.8481   20.0702 C   0  0  0  0  0  0  0  0  0  0  0  0
   21.6652   20.3221   20.7385 H   0  0  0  0  0  0  0  0  0  0  0  0
   21.3460   18.8847   19.7418 H   0  0  0  0  0  0  0  0  0  0  0  0
   20.8240   20.4869   19.1843 H   0  0  0  0  0  0  0  0  0  0  0  0
   19.5763   19.6587   20.7781 C   0  0  0  0  0  0  0  0  0  0  0  0
   18.8574   19.2150   20.0752 H   0  0  0  0  0  0  0  0  0  0  0  0
   19.1748   20.6407   21.0649 H   0  0  0  0  0  0  0  0  0  0  0  0
   19.7038   18.7623   22.0295 C   0  0  0  0  0  0  0  0  0  0  0  0
   20.1060   17.7829   21.7357 H   0  0  0  0  0  0  0  0  0  0  0  0
   20.4334   19.2048   22.7180 H   0  0  0  0  0  0  0  0  0  0  0  0
   18.3402   18.5653   22.7362 C   0  0  0  0  0  0  0  0  0  0  0  0
   17.6554   18.0795   22.0273 H   0  0  0  0  0  0  0  0  0  0  0  0
   17.8876   19.5371   22.9766 H   0  0  0  0  0  0  0  0  0  0  0  0
   18.4292   17.6883   24.0122 C   0  0  0  0  0  0  0  0  0  0  0  0
   17.5225   17.0699   24.0659 H   0  0  0  0  0  0  0  0  0  0  0  0
   19.2651   16.9799   23.9308 H   0  0  0  0  0  0  0  0  0  0  0  0
   18.5312   18.4820   25.3405 C   0  0  0  0  0  0  0  0  0  0  0  0
   18.5153   17.7599   26.1673 H   0  0  0  0  0  0  0  0  0  0  0  0
   17.6346   19.1055   25.4619 H   0  0  0  0  0  0  0  0  0  0  0  0
   19.7930   19.3712   25.4571 C   0  0  0  0  0  0  0  0  0  0  0  0
   20.6953   18.7745   25.2688 H   0  0  0  0  0  0  0  0  0  0  0  0
   19.7603   20.1543   24.6895 H   0  0  0  0  0  0  0  0  0  0  0  0
   19.9093   20.0617   26.8296 C   0  0  0  0  0  0  0  0  0  0  0  0
   19.0005   20.6350   27.0318 H   0  0  0  0  0  0  0  0  0  0  0  0
   20.7542   20.7556   26.8153 H   0  0  0  0  0  0  0  0  0  0  0  0
   20.1264   19.1003   27.9816 N   0  3  0  0  0  0  0  0  0  0  0  0
   19.3485   18.4399   28.0766 H   0  0  0  0  0  0  0  0  0  0  0  0
   20.2134   19.5929   28.8774 H   0  0  0  0  0  0  0  0  0  0  0  0
   20.9809   18.5470   27.8595 H   0  0  0  0  0  0  0  0  0  0  0  0
  1  2  1  0  0  0  0
  1  3  1  0  0  0  0
  1  4  1  0  0  0  0
  1  5  1  0  0  0  0
  5  6  1  0  0  0  0
  5  7  1  0  0  0  0
  5  8  1  0  0  0  0
  8  9  1  0  0  0  0
  8 10  1  0  0  0  0
  8 11  1  0  0  0  0
 11 12  1  0  0  0  0
 11 13  1  0  0  0  0
 11 14  1  0  0  0  0
 14 15  1  0  0  0  0
 14 16  1  0  0  0  0
 14 17  1  0  0  0  0
 17 18  1  0  0  0  0
 17 19  1  0  0  0  0
 17 20  1  0  0  0  0
 20 21  1  0  0  0  0
 20 22  1  0  0  0  0
 20 23  1  0  0  0  0
 23 24  1  0  0  0  0
 23 25  1  0  0  0  0
 23 26  1  0  0  0  0
 26 27  1  0  0  0  0
 26 28  1  0  0  0  0
 26 29  1  0  0  0  0
M  END
> <VM2 Rank>
249

> <Conf_Id>
1648

> <Probability>
0.01

> <Sum Probability>
99.45

> <Delta G>
3.806

> <G>
61.954

> <E>
24.286

> <-TS>
37.668

> <U+W>
0.141

> <U>
51.913

> <W>
-51.772

> <W(PB)>
-54.285

> <W(SA)>
2.513

> <Valence>
5.756

> <Coulomb>
45.246

> <VdW>
0.911

> <VdW6>
-9.117

> <VdW12>
10.028

> <Bond>
0.256

> <Angle>
1.222

> <Pdih>
4.278

> <Idih>
0.000

> <Tether>
0.000

$$$$
VeraChem MOL file


 29 28  0  0  0  0  0  0  0  0999 V2000     
   21.1041   19.1046   20.9389 C   0  0  0  0  0  0  0  0  0  0  0  0
   21.4545   18.2083   21.4668 H   0  0  0  0  0  0  0  0  0  0  0  0
   21.8223   19.3258   20.1388 H   0  0  0  0  0  0  0  0  0  0  0  0
   21.1204   19.9510   21.6364 H   0  0  0  0  0  0  0  0  0  0  0  0
   19.6922   18.8895   20.3519 C   0  0  0  0  0  0  0  0  0  0  0  0
   19.7576   18.1535   19.5384 H   0  0  0  0  0  0  0  0  0  0  0  0
   19.3437   19.8236   19.8897 H   0  0  0  0  0  0  0  0  0  0  0  0
   18.6418   18.3945   21.3787 C   0  0  0  0  0  0  0  0  0  0  0  0
   17.7007   18.2315   20.8354 H   0  0  0  0  0  0  0  0  0  0  0  0
   18.9316   17.4098   21.7703 H   0  0  0  0  0  0  0  0  0  0  0  0
   18.3615   19.3773   22.5453 C   0  0  0  0  0  0  0  0  0  0  0  0
   17.2961   19.3119   22.8060 H   0  0  0  0  0  0  0  0  0  0  0  0
   18.5304   20.4113   22.2146 H   0  0  0  0  0  0  0  0  0  0  0  0
   19.1882   19.0742   23.8189 C   0  0  0  0  0  0  0  0  0  0  0  0
   18.9629   18.0538   24.1564 H   0  0  0  0  0  0  0  0  0  0  0  0
   20.2607   19.0997   23.5932 H   0  0  0  0  0  0  0  0  0  0  0  0
   18.8812   20.0819   24.9523 C   0  0  0  0  0  0  0  0  0  0  0  0
   17.8159   20.0297   25.2170 H   0  0  0  0  0  0  0  0  0  0  0  0
   19.0608   21.1023   24.5862 H   0  0  0  0  0  0  0  0  0  0  0  0
   19.7393   19.8515   26.2183 C   0  0  0  0  0  0  0  0  0  0  0  0
   20.8042   19.9298   25.9616 H   0  0  0  0  0  0  0  0  0  0  0  0
   19.5302   20.6515   26.9409 H   0  0  0  0  0  0  0  0  0  0  0  0
   19.4655   18.4892   26.8826 C   0  0  0  0  0  0  0  0  0  0  0  0
   19.7125   17.6822   26.1881 H   0  0  0  0  0  0  0  0  0  0  0  0
   18.4056   18.4114   27.1392 H   0  0  0  0  0  0  0  0  0  0  0  0
   20.2701   18.2753   28.1482 N   0  3  0  0  0  0  0  0  0  0  0  0
   20.0637   18.9874   28.8567 H   0  0  0  0  0  0  0  0  0  0  0  0
   21.2793   18.3107   27.9697 H   0  0  0  0  0  0  0  0  0  0  0  0
   20.0736   17.3633   28.5751 H   0  0  0  0  0  0  0  0  0  0  0  0
  1  2  1  0  0  0  0
  1  3  1  0  0  0  0
  1  4  1  0  0  0  0
  1  5  1  0  0  0  0
  5  6  1  0  0  0  0
  5  7  1  0  0  0  0
  5  8  1  0  0  0  0
  8  9  1  0  0  0  0
  8 10  1  0  0  0  0
  8 11  1  0  0  0  0
 11 12  1  0  0  0  0
 11 13  1  0  0  0  0
 11 14  1  0  0  0  0
 14 15  1  0  0  0  0
 14 16  1  0  0  0  0
 14 17  1  0  0  0  0
 17 18  1  0  0  0  0
 17 19  1  0  0  0  0
 17 20  1  0  0  0  0
 20 21  1  0  0  0  0
 20 22  1  0  0  0  0
 20 23  1  0  0  0  0
 23 24  1  0  0  0  0
 23 25  1  0  0  0  0
 23 26  1  0  0  0  0
 26 27  1  0  0  0  0
 26 28  1  0  0  0  0
 26 29  1  0  0  0  0
M  END
> <VM2 Rank>
250

> <Conf_Id>
1019

> <Probability>
0.01

> <Sum Probability>
99.46

> <Delta G>
3.823

> <G>
61.971

> <E>
24.335

> <-TS>
37.636

> <U+W>
0.191

> <U>
51.875

> <W>
-51.684

> <W(PB)>
-54.171

> <W(SA)>
2.486

> <Valence>
5.853

> <Coulomb>
45.145

> <VdW>
0.877

> <VdW6>
-9.103

> <VdW12>
9.980

> <Bond>
0.252

> <Angle>
1.282

> <Pdih>
4.319

> <Idih>
0.000

> <Tether>
0.000

$$$$
VeraChem MOL file


 29 28  0  0  0  0  0  0  0  0999 V2000     
   20.5090   17.9280   20.1739 C   0  0  0  0  0  0  0  0  0  0  0  0
   20.1873   16.9753   19.7337 H   0  0  0  0  0  0  0  0  0  0  0  0
   20.7455   18.6162   19.3520 H   0  0  0  0  0  0  0  0  0  0  0  0
   21.4306   17.7432   20.7411 H   0  0  0  0  0  0  0  0  0  0  0  0
   19.4056   18.5082   21.0836 C   0  0  0  0  0  0  0  0  0  0  0  0
   19.1645   17.7781   21.8653 H   0  0  0  0  0  0  0  0  0  0  0  0
   18.4885   18.6494   20.4948 H   0  0  0  0  0  0  0  0  0  0  0  0
   19.8332   19.8585   21.7075 C   0  0  0  0  0  0  0  0  0  0  0  0
   20.7812   19.7465   22.2513 H   0  0  0  0  0  0  0  0  0  0  0  0
   20.0351   20.5632   20.8890 H   0  0  0  0  0  0  0  0  0  0  0  0
   18.7565   20.4802   22.6349 C   0  0  0  0  0  0  0  0  0  0  0  0
   17.7516   20.1772   22.3102 H   0  0  0  0  0  0  0  0  0  0  0  0
   18.7898   21.5717   22.5126 H   0  0  0  0  0  0  0  0  0  0  0  0
   18.9453   20.1751   24.1433 C   0  0  0  0  0  0  0  0  0  0  0  0
   19.9133   20.5771   24.4715 H   0  0  0  0  0  0  0  0  0  0  0  0
   18.1781   20.7265   24.7041 H   0  0  0  0  0  0  0  0  0  0  0  0
   18.8509   18.6729   24.5055 C   0  0  0  0  0  0  0  0  0  0  0  0
   19.7009   18.1306   24.0710 H   0  0  0  0  0  0  0  0  0  0  0  0
   17.9404   18.2486   24.0605 H   0  0  0  0  0  0  0  0  0  0  0  0
   18.8227   18.4206   26.0311 C   0  0  0  0  0  0  0  0  0  0  0  0
   17.9563   18.9299   26.4737 H   0  0  0  0  0  0  0  0  0  0  0  0
   18.6826   17.3466   26.2126 H   0  0  0  0  0  0  0  0  0  0  0  0
   20.1116   18.8868   26.7331 C   0  0  0  0  0  0  0  0  0  0  0  0
   20.2401   19.9633   26.5938 H   0  0  0  0  0  0  0  0  0  0  0  0
   20.9741   18.3770   26.2954 H   0  0  0  0  0  0  0  0  0  0  0  0
   20.1092   18.6077   28.2221 N   0  3  0  0  0  0  0  0  0  0  0  0
   19.3346   19.0820   28.6980 H   0  0  0  0  0  0  0  0  0  0  0  0
   20.9754   18.9255   28.6708 H   0  0  0  0  0  0  0  0  0  0  0  0
   20.0189   17.6061   28.4226 H   0  0  0  0  0  0  0  0  0  0  0  0
  1  2  1  0  0  0  0
  1  3  1  0  0  0  0
  1  4  1  0  0  0  0
  1  5  1  0  0  0  0
  5  6  1  0  0  0  0
  5  7  1  0  0  0  0
  5  8  1  0  0  0  0
  8  9  1  0  0  0  0
  8 10  1  0  0  0  0
  8 11  1  0  0  0  0
 11 12  1  0  0  0  0
 11 13  1  0  0  0  0
 11 14  1  0  0  0  0
 14 15  1  0  0  0  0
 14 16  1  0  0  0  0
 14 17  1  0  0  0  0
 17 18  1  0  0  0  0
 17 19  1  0  0  0  0
 17 20  1  0  0  0  0
 20 21  1  0  0  0  0
 20 22  1  0  0  0  0
 20 23  1  0  0  0  0
 23 24  1  0  0  0  0
 23 25  1  0  0  0  0
 23 26  1  0  0  0  0
 26 27  1  0  0  0  0
 26 28  1  0  0  0  0
 26 29  1  0  0  0  0
M  END
> <VM2 Rank>
251

> <Conf_Id>
1963

> <Probability>
0.01

> <Sum Probability>
99.46

> <Delta G>
3.826

> <G>
61.974

> <E>
24.308

> <-TS>
37.667

> <U+W>
0.163

> <U>
51.913

> <W>
-51.750

> <W(PB)>
-54.232

> <W(SA)>
2.482

> <Valence>
5.891

> <Coulomb>
45.203

> <VdW>
0.819

> <VdW6>
-9.200

> <VdW12>
10.020

> <Bond>
0.252

> <Angle>
1.265

> <Pdih>
4.374

> <Idih>
0.000

> <Tether>
0.000

$$$$
VeraChem MOL file


 29 28  0  0  0  0  0  0  0  0999 V2000     
   21.0460   19.4352   20.2075 C   0  0  0  0  0  0  0  0  0  0  0  0
   21.8689   18.9734   20.7685 H   0  0  0  0  0  0  0  0  0  0  0  0
   20.8058   18.7855   19.3557 H   0  0  0  0  0  0  0  0  0  0  0  0
   21.4050   20.3933   19.8098 H   0  0  0  0  0  0  0  0  0  0  0  0
   19.8115   19.6475   21.1090 C   0  0  0  0  0  0  0  0  0  0  0  0
   19.0200   20.1412   20.5281 H   0  0  0  0  0  0  0  0  0  0  0  0
   20.0752   20.3340   21.9223 H   0  0  0  0  0  0  0  0  0  0  0  0
   19.2807   18.3076   21.6730 C   0  0  0  0  0  0  0  0  0  0  0  0
   19.0034   17.6669   20.8245 H   0  0  0  0  0  0  0  0  0  0  0  0
   20.0784   17.7736   22.2075 H   0  0  0  0  0  0  0  0  0  0  0  0
   18.0404   18.4702   22.5900 C   0  0  0  0  0  0  0  0  0  0  0  0
   17.3781   17.6093   22.4241 H   0  0  0  0  0  0  0  0  0  0  0  0
   17.4579   19.3527   22.2917 H   0  0  0  0  0  0  0  0  0  0  0  0
   18.3581   18.5272   24.1065 C   0  0  0  0  0  0  0  0  0  0  0  0
   17.4072   18.5631   24.6557 H   0  0  0  0  0  0  0  0  0  0  0  0
   18.8495   17.5914   24.4049 H   0  0  0  0  0  0  0  0  0  0  0  0
   19.2292   19.7352   24.5293 C   0  0  0  0  0  0  0  0  0  0  0  0
   18.7981   20.6567   24.1144 H   0  0  0  0  0  0  0  0  0  0  0  0
   20.2367   19.6350   24.1046 H   0  0  0  0  0  0  0  0  0  0  0  0
   19.3454   19.8878   26.0639 C   0  0  0  0  0  0  0  0  0  0  0  0
   19.9130   20.8003   26.2898 H   0  0  0  0  0  0  0  0  0  0  0  0
   18.3459   20.0236   26.4983 H   0  0  0  0  0  0  0  0  0  0  0  0
   20.0396   18.6845   26.7285 C   0  0  0  0  0  0  0  0  0  0  0  0
   21.0363   18.5514   26.2992 H   0  0  0  0  0  0  0  0  0  0  0  0
   19.4608   17.7756   26.5447 H   0  0  0  0  0  0  0  0  0  0  0  0
   20.1931   18.8428   28.2273 N   0  3  0  0  0  0  0  0  0  0  0  0
   20.7532   19.6671   28.4687 H   0  0  0  0  0  0  0  0  0  0  0  0
   20.6572   18.0316   28.6506 H   0  0  0  0  0  0  0  0  0  0  0  0
   19.2864   18.9463   28.6950 H   0  0  0  0  0  0  0  0  0  0  0  0
  1  2  1  0  0  0  0
  1  3  1  0  0  0  0
  1  4  1  0  0  0  0
  1  5  1  0  0  0  0
  5  6  1  0  0  0  0
  5  7  1  0  0  0  0
  5  8  1  0  0  0  0
  8  9  1  0  0  0  0
  8 10  1  0  0  0  0
  8 11  1  0  0  0  0
 11 12  1  0  0  0  0
 11 13  1  0  0  0  0
 11 14  1  0  0  0  0
 14 15  1  0  0  0  0
 14 16  1  0  0  0  0
 14 17  1  0  0  0  0
 17 18  1  0  0  0  0
 17 19  1  0  0  0  0
 17 20  1  0  0  0  0
 20 21  1  0  0  0  0
 20 22  1  0  0  0  0
 20 23  1  0  0  0  0
 23 24  1  0  0  0  0
 23 25  1  0  0  0  0
 23 26  1  0  0  0  0
 26 27  1  0  0  0  0
 26 28  1  0  0  0  0
 26 29  1  0  0  0  0
M  END
> <VM2 Rank>
252

> <Conf_Id>
1296

> <Probability>
0.01

> <Sum Probability>
99.47

> <Delta G>
3.832

> <G>
61.980

> <E>
24.313

> <-TS>
37.666

> <U+W>
0.169

> <U>
51.913

> <W>
-51.744

> <W(PB)>
-54.214

> <W(SA)>
2.470

> <Valence>
5.891

> <Coulomb>
45.203

> <VdW>
0.819

> <VdW6>
-9.200

> <VdW12>
10.020

> <Bond>
0.252

> <Angle>
1.264

> <Pdih>
4.374

> <Idih>
0.000

> <Tether>
0.000

$$$$
VeraChem MOL file


 29 28  0  0  0  0  0  0  0  0999 V2000     
   20.1274   17.2772   20.7330 C   0  0  0  0  0  0  0  0  0  0  0  0
   21.0706   17.1074   21.2685 H   0  0  0  0  0  0  0  0  0  0  0  0
   19.6260   16.3075   20.6175 H   0  0  0  0  0  0  0  0  0  0  0  0
   20.3666   17.6544   19.7301 H   0  0  0  0  0  0  0  0  0  0  0  0
   19.2263   18.2689   21.4985 C   0  0  0  0  0  0  0  0  0  0  0  0
   18.9716   17.8421   22.4759 H   0  0  0  0  0  0  0  0  0  0  0  0
   18.2788   18.3903   20.9553 H   0  0  0  0  0  0  0  0  0  0  0  0
   19.9084   19.6485   21.6632 C   0  0  0  0  0  0  0  0  0  0  0  0
   20.8906   19.5365   22.1425 H   0  0  0  0  0  0  0  0  0  0  0  0
   20.1053   20.0532   20.6608 H   0  0  0  0  0  0  0  0  0  0  0  0
   19.0465   20.6732   22.4460 C   0  0  0  0  0  0  0  0  0  0  0  0
   17.9781   20.4554   22.3105 H   0  0  0  0  0  0  0  0  0  0  0  0
   19.2046   21.6648   21.9998 H   0  0  0  0  0  0  0  0  0  0  0  0
   19.3808   20.7831   23.9561 C   0  0  0  0  0  0  0  0  0  0  0  0
   20.4229   21.1105   24.0755 H   0  0  0  0  0  0  0  0  0  0  0  0
   18.7590   21.5792   24.3885 H   0  0  0  0  0  0  0  0  0  0  0  0
   19.1579   19.4784   24.7555 C   0  0  0  0  0  0  0  0  0  0  0  0
   19.8599   18.7125   24.4033 H   0  0  0  0  0  0  0  0  0  0  0  0
   18.1424   19.1020   24.5701 H   0  0  0  0  0  0  0  0  0  0  0  0
   19.3576   19.6954   26.2741 C   0  0  0  0  0  0  0  0  0  0  0  0
   20.3778   20.0498   26.4727 H   0  0  0  0  0  0  0  0  0  0  0  0
   18.6781   20.4851   26.6216 H   0  0  0  0  0  0  0  0  0  0  0  0
   19.0854   18.4220   27.0977 C   0  0  0  0  0  0  0  0  0  0  0  0
   18.0732   18.0617   26.8949 H   0  0  0  0  0  0  0  0  0  0  0  0
   19.1568   18.6571   28.1631 H   0  0  0  0  0  0  0  0  0  0  0  0
   20.0537   17.2912   26.8110 N   0  3  0  0  0  0  0  0  0  0  0  0
   21.0232   17.5626   27.0054 H   0  0  0  0  0  0  0  0  0  0  0  0
   20.0118   16.9952   25.8309 H   0  0  0  0  0  0  0  0  0  0  0  0
   19.8532   16.4643   27.3842 H   0  0  0  0  0  0  0  0  0  0  0  0
  1  2  1  0  0  0  0
  1  3  1  0  0  0  0
  1  4  1  0  0  0  0
  1  5  1  0  0  0  0
  5  6  1  0  0  0  0
  5  7  1  0  0  0  0
  5  8  1  0  0  0  0
  8  9  1  0  0  0  0
  8 10  1  0  0  0  0
  8 11  1  0  0  0  0
 11 12  1  0  0  0  0
 11 13  1  0  0  0  0
 11 14  1  0  0  0  0
 14 15  1  0  0  0  0
 14 16  1  0  0  0  0
 14 17  1  0  0  0  0
 17 18  1  0  0  0  0
 17 19  1  0  0  0  0
 17 20  1  0  0  0  0
 20 21  1  0  0  0  0
 20 22  1  0  0  0  0
 20 23  1  0  0  0  0
 23 24  1  0  0  0  0
 23 25  1  0  0  0  0
 23 26  1  0  0  0  0
 26 27  1  0  0  0  0
 26 28  1  0  0  0  0
 26 29  1  0  0  0  0
M  END
> <VM2 Rank>
253

> <Conf_Id>
2259

> <Probability>
0.01

> <Sum Probability>
99.48

> <Delta G>
3.844

> <G>
61.992

> <E>
24.307

> <-TS>
37.684

> <U+W>
0.163

> <U>
52.464

> <W>
-52.301

> <W(PB)>
-54.765

> <W(SA)>
2.464

> <Valence>
5.708

> <Coulomb>
45.915

> <VdW>
0.842

> <VdW6>
-9.210

> <VdW12>
10.052

> <Bond>
0.252

> <Angle>
1.191

> <Pdih>
4.265

> <Idih>
0.000

> <Tether>
0.000

$$$$
VeraChem MOL file


 29 28  0  0  0  0  0  0  0  0999 V2000     
   20.3305   17.5868   20.4538 C   0  0  0  0  0  0  0  0  0  0  0  0
   21.4078   17.7967   20.4774 H   0  0  0  0  0  0  0  0  0  0  0  0
   20.1968   16.5001   20.5319 H   0  0  0  0  0  0  0  0  0  0  0  0
   19.9414   17.9047   19.4777 H   0  0  0  0  0  0  0  0  0  0  0  0
   19.5998   18.3097   21.6051 C   0  0  0  0  0  0  0  0  0  0  0  0
   19.9909   17.9370   22.5609 H   0  0  0  0  0  0  0  0  0  0  0  0
   18.5301   18.0603   21.5716 H   0  0  0  0  0  0  0  0  0  0  0  0
   19.7833   19.8422   21.5235 C   0  0  0  0  0  0  0  0  0  0  0  0
   20.8469   20.0887   21.6461 H   0  0  0  0  0  0  0  0  0  0  0  0
   19.5056   20.1816   20.5160 H   0  0  0  0  0  0  0  0  0  0  0  0
   18.9467   20.6443   22.5537 C   0  0  0  0  0  0  0  0  0  0  0  0
   17.8744   20.4935   22.3683 H   0  0  0  0  0  0  0  0  0  0  0  0
   19.1311   21.7117   22.3689 H   0  0  0  0  0  0  0  0  0  0  0  0
   19.2854   20.3458   24.0375 C   0  0  0  0  0  0  0  0  0  0  0  0
   20.3347   20.0337   24.1221 H   0  0  0  0  0  0  0  0  0  0  0  0
   19.2003   21.2811   24.6078 H   0  0  0  0  0  0  0  0  0  0  0  0
   18.3406   19.3001   24.6843 C   0  0  0  0  0  0  0  0  0  0  0  0
   18.3757   18.3521   24.1345 H   0  0  0  0  0  0  0  0  0  0  0  0
   17.3050   19.6592   24.6082 H   0  0  0  0  0  0  0  0  0  0  0  0
   18.6622   19.0354   26.1736 C   0  0  0  0  0  0  0  0  0  0  0  0
   18.6070   19.9764   26.7371 H   0  0  0  0  0  0  0  0  0  0  0  0
   17.8929   18.3727   26.5918 H   0  0  0  0  0  0  0  0  0  0  0  0
   20.0457   18.3896   26.3756 C   0  0  0  0  0  0  0  0  0  0  0  0
   20.8254   19.0593   26.0039 H   0  0  0  0  0  0  0  0  0  0  0  0
   20.0997   17.4526   25.8150 H   0  0  0  0  0  0  0  0  0  0  0  0
   20.3498   18.0840   27.8279 N   0  3  0  0  0  0  0  0  0  0  0  0
   20.3403   18.9307   28.4062 H   0  0  0  0  0  0  0  0  0  0  0  0
   21.2747   17.6546   27.9414 H   0  0  0  0  0  0  0  0  0  0  0  0
   19.6672   17.4344   28.2323 H   0  0  0  0  0  0  0  0  0  0  0  0
  1  2  1  0  0  0  0
  1  3  1  0  0  0  0
  1  4  1  0  0  0  0
  1  5  1  0  0  0  0
  5  6  1  0  0  0  0
  5  7  1  0  0  0  0
  5  8  1  0  0  0  0
  8  9  1  0  0  0  0
  8 10  1  0  0  0  0
  8 11  1  0  0  0  0
 11 12  1  0  0  0  0
 11 13  1  0  0  0  0
 11 14  1  0  0  0  0
 14 15  1  0  0  0  0
 14 16  1  0  0  0  0
 14 17  1  0  0  0  0
 17 18  1  0  0  0  0
 17 19  1  0  0  0  0
 17 20  1  0  0  0  0
 20 21  1  0  0  0  0
 20 22  1  0  0  0  0
 20 23  1  0  0  0  0
 23 24  1  0  0  0  0
 23 25  1  0  0  0  0
 23 26  1  0  0  0  0
 26 27  1  0  0  0  0
 26 28  1  0  0  0  0
 26 29  1  0  0  0  0
M  END
> <VM2 Rank>
254

> <Conf_Id>
2622

> <Probability>
0.01

> <Sum Probability>
99.49

> <Delta G>
3.849

> <G>
61.997

> <E>
24.346

> <-TS>
37.651

> <U+W>
0.201

> <U>
52.223

> <W>
-52.022

> <W(PB)>
-54.494

> <W(SA)>
2.472

> <Valence>
5.910

> <Coulomb>
45.541

> <VdW>
0.772

> <VdW6>
-9.291

> <VdW12>
10.063

> <Bond>
0.258

> <Angle>
1.297

> <Pdih>
4.355

> <Idih>
0.000

> <Tether>
0.000

$$$$
VeraChem MOL file


 29 28  0  0  0  0  0  0  0  0999 V2000     
   19.9671   17.4317   20.8212 C   0  0  0  0  0  0  0  0  0  0  0  0
   20.9919   17.7576   20.6006 H   0  0  0  0  0  0  0  0  0  0  0  0
   19.9615   16.9586   21.8109 H   0  0  0  0  0  0  0  0  0  0  0  0
   19.6940   16.6627   20.0869 H   0  0  0  0  0  0  0  0  0  0  0  0
   18.9797   18.6187   20.7532 C   0  0  0  0  0  0  0  0  0  0  0  0
   17.9687   18.2734   21.0107 H   0  0  0  0  0  0  0  0  0  0  0  0
   18.9274   18.9766   19.7155 H   0  0  0  0  0  0  0  0  0  0  0  0
   19.3765   19.8033   21.6670 C   0  0  0  0  0  0  0  0  0  0  0  0
   20.3784   20.1602   21.3912 H   0  0  0  0  0  0  0  0  0  0  0  0
   18.6871   20.6369   21.4742 H   0  0  0  0  0  0  0  0  0  0  0  0
   19.3431   19.4561   23.1746 C   0  0  0  0  0  0  0  0  0  0  0  0
   20.0807   18.6713   23.3781 H   0  0  0  0  0  0  0  0  0  0  0  0
   18.3542   19.0561   23.4370 H   0  0  0  0  0  0  0  0  0  0  0  0
   19.6570   20.6889   24.0540 C   0  0  0  0  0  0  0  0  0  0  0  0
   20.6941   21.0066   23.8788 H   0  0  0  0  0  0  0  0  0  0  0  0
   19.0234   21.5272   23.7331 H   0  0  0  0  0  0  0  0  0  0  0  0
   19.4322   20.4722   25.5729 C   0  0  0  0  0  0  0  0  0  0  0  0
   18.3721   20.2660   25.7688 H   0  0  0  0  0  0  0  0  0  0  0  0
   19.6423   21.4268   26.0749 H   0  0  0  0  0  0  0  0  0  0  0  0
   20.3304   19.3849   26.2215 C   0  0  0  0  0  0  0  0  0  0  0  0
   21.3354   19.4257   25.7811 H   0  0  0  0  0  0  0  0  0  0  0  0
   20.4593   19.6194   27.2865 H   0  0  0  0  0  0  0  0  0  0  0  0
   19.7799   17.9472   26.1116 C   0  0  0  0  0  0  0  0  0  0  0  0
   20.5131   17.2493   26.5250 H   0  0  0  0  0  0  0  0  0  0  0  0
   19.6136   17.6814   25.0664 H   0  0  0  0  0  0  0  0  0  0  0  0
   18.4782   17.7350   26.8591 N   0  3  0  0  0  0  0  0  0  0  0  0
   18.5766   17.9393   27.8589 H   0  0  0  0  0  0  0  0  0  0  0  0
   18.1480   16.7668   26.7820 H   0  0  0  0  0  0  0  0  0  0  0  0
   17.7316   18.3373   26.4988 H   0  0  0  0  0  0  0  0  0  0  0  0
  1  2  1  0  0  0  0
  1  3  1  0  0  0  0
  1  4  1  0  0  0  0
  1  5  1  0  0  0  0
  5  6  1  0  0  0  0
  5  7  1  0  0  0  0
  5  8  1  0  0  0  0
  8  9  1  0  0  0  0
  8 10  1  0  0  0  0
  8 11  1  0  0  0  0
 11 12  1  0  0  0  0
 11 13  1  0  0  0  0
 11 14  1  0  0  0  0
 14 15  1  0  0  0  0
 14 16  1  0  0  0  0
 14 17  1  0  0  0  0
 17 18  1  0  0  0  0
 17 19  1  0  0  0  0
 17 20  1  0  0  0  0
 20 21  1  0  0  0  0
 20 22  1  0  0  0  0
 20 23  1  0  0  0  0
 23 24  1  0  0  0  0
 23 25  1  0  0  0  0
 23 26  1  0  0  0  0
 26 27  1  0  0  0  0
 26 28  1  0  0  0  0
 26 29  1  0  0  0  0
M  END
> <VM2 Rank>
255

> <Conf_Id>
833

> <Probability>
0.01

> <Sum Probability>
99.50

> <Delta G>
3.871

> <G>
62.019

> <E>
24.311

> <-TS>
37.708

> <U+W>
0.166

> <U>
52.635

> <W>
-52.469

> <W(PB)>
-54.906

> <W(SA)>
2.437

> <Valence>
5.624

> <Coulomb>
46.167

> <VdW>
0.844

> <VdW6>
-9.932

> <VdW12>
10.776

> <Bond>
0.284

> <Angle>
1.571

> <Pdih>
3.769

> <Idih>
0.000

> <Tether>
0.000

$$$$
VeraChem MOL file


 29 28  0  0  0  0  0  0  0  0999 V2000     
   21.0475   19.9749   21.4112 C   0  0  0  0  0  0  0  0  0  0  0  0
   21.6866   19.2005   21.8548 H   0  0  0  0  0  0  0  0  0  0  0  0
   21.6879   20.6390   20.8164 H   0  0  0  0  0  0  0  0  0  0  0  0
   20.6134   20.5765   22.2193 H   0  0  0  0  0  0  0  0  0  0  0  0
   19.9480   19.3500   20.5251 C   0  0  0  0  0  0  0  0  0  0  0  0
   20.4211   18.9039   19.6392 H   0  0  0  0  0  0  0  0  0  0  0  0
   19.2877   20.1443   20.1498 H   0  0  0  0  0  0  0  0  0  0  0  0
   19.1008   18.2605   21.2306 C   0  0  0  0  0  0  0  0  0  0  0  0
   18.3940   17.8611   20.4902 H   0  0  0  0  0  0  0  0  0  0  0  0
   19.7386   17.4132   21.5178 H   0  0  0  0  0  0  0  0  0  0  0  0
   18.2879   18.7614   22.4528 C   0  0  0  0  0  0  0  0  0  0  0  0
   17.3309   18.2220   22.4783 H   0  0  0  0  0  0  0  0  0  0  0  0
   18.0350   19.8231   22.3267 H   0  0  0  0  0  0  0  0  0  0  0  0
   19.0064   18.5336   23.8052 C   0  0  0  0  0  0  0  0  0  0  0  0
   19.1914   17.4592   23.9413 H   0  0  0  0  0  0  0  0  0  0  0  0
   19.9874   19.0211   23.7962 H   0  0  0  0  0  0  0  0  0  0  0  0
   18.1695   19.0650   24.9933 C   0  0  0  0  0  0  0  0  0  0  0  0
   17.1762   18.5955   24.9744 H   0  0  0  0  0  0  0  0  0  0  0  0
   18.0051   20.1452   24.8769 H   0  0  0  0  0  0  0  0  0  0  0  0
   18.8230   18.7886   26.3677 C   0  0  0  0  0  0  0  0  0  0  0  0
   18.1346   19.1103   27.1605 H   0  0  0  0  0  0  0  0  0  0  0  0
   18.9683   17.7077   26.4967 H   0  0  0  0  0  0  0  0  0  0  0  0
   20.1686   19.5169   26.5439 C   0  0  0  0  0  0  0  0  0  0  0  0
   20.0240   20.5930   26.4160 H   0  0  0  0  0  0  0  0  0  0  0  0
   20.8785   19.1720   25.7877 H   0  0  0  0  0  0  0  0  0  0  0  0
   20.7923   19.2872   27.9052 N   0  3  0  0  0  0  0  0  0  0  0  0
   20.9783   18.2936   28.0772 H   0  0  0  0  0  0  0  0  0  0  0  0
   20.1856   19.6165   28.6635 H   0  0  0  0  0  0  0  0  0  0  0  0
   21.6868   19.7802   28.0027 H   0  0  0  0  0  0  0  0  0  0  0  0
  1  2  1  0  0  0  0
  1  3  1  0  0  0  0
  1  4  1  0  0  0  0
  1  5  1  0  0  0  0
  5  6  1  0  0  0  0
  5  7  1  0  0  0  0
  5  8  1  0  0  0  0
  8  9  1  0  0  0  0
  8 10  1  0  0  0  0
  8 11  1  0  0  0  0
 11 12  1  0  0  0  0
 11 13  1  0  0  0  0
 11 14  1  0  0  0  0
 14 15  1  0  0  0  0
 14 16  1  0  0  0  0
 14 17  1  0  0  0  0
 17 18  1  0  0  0  0
 17 19  1  0  0  0  0
 17 20  1  0  0  0  0
 20 21  1  0  0  0  0
 20 22  1  0  0  0  0
 20 23  1  0  0  0  0
 23 24  1  0  0  0  0
 23 25  1  0  0  0  0
 23 26  1  0  0  0  0
 26 27  1  0  0  0  0
 26 28  1  0  0  0  0
 26 29  1  0  0  0  0
M  END
> <VM2 Rank>
256

> <Conf_Id>
2582

> <Probability>
0.01

> <Sum Probability>
99.51

> <Delta G>
3.891

> <G>
62.039

> <E>
24.391

> <-TS>
37.647

> <U+W>
0.247

> <U>
52.045

> <W>
-51.798

> <W(PB)>
-54.288

> <W(SA)>
2.491

> <Valence>
5.849

> <Coulomb>
45.357

> <VdW>
0.839

> <VdW6>
-9.171

> <VdW12>
10.009

> <Bond>
0.253

> <Angle>
1.262

> <Pdih>
4.334

> <Idih>
0.000

> <Tether>
0.000

$$$$
VeraChem MOL file


 29 28  0  0  0  0  0  0  0  0999 V2000     
   20.3018   17.4554   21.0390 C   0  0  0  0  0  0  0  0  0  0  0  0
   20.9212   17.1310   21.8852 H   0  0  0  0  0  0  0  0  0  0  0  0
   19.2741   17.1142   21.2142 H   0  0  0  0  0  0  0  0  0  0  0  0
   20.6693   16.9455   20.1391 H   0  0  0  0  0  0  0  0  0  0  0  0
   20.3690   18.9887   20.8568 C   0  0  0  0  0  0  0  0  0  0  0  0
   19.7189   19.2921   20.0243 H   0  0  0  0  0  0  0  0  0  0  0  0
   21.3918   19.2650   20.5649 H   0  0  0  0  0  0  0  0  0  0  0  0
   19.9881   19.7749   22.1341 C   0  0  0  0  0  0  0  0  0  0  0  0
   20.6494   19.4713   22.9541 H   0  0  0  0  0  0  0  0  0  0  0  0
   20.1911   20.8403   21.9585 H   0  0  0  0  0  0  0  0  0  0  0  0
   18.4999   19.6093   22.5372 C   0  0  0  0  0  0  0  0  0  0  0  0
   18.2542   18.5534   22.7082 H   0  0  0  0  0  0  0  0  0  0  0  0
   17.8795   19.9322   21.6899 H   0  0  0  0  0  0  0  0  0  0  0  0
   18.1038   20.4453   23.7822 C   0  0  0  0  0  0  0  0  0  0  0  0
   18.7273   21.3474   23.8510 H   0  0  0  0  0  0  0  0  0  0  0  0
   17.0763   20.8071   23.6386 H   0  0  0  0  0  0  0  0  0  0  0  0
   18.1411   19.6682   25.1235 C   0  0  0  0  0  0  0  0  0  0  0  0
   17.4246   18.8360   25.0829 H   0  0  0  0  0  0  0  0  0  0  0  0
   17.7868   20.3376   25.9198 H   0  0  0  0  0  0  0  0  0  0  0  0
   19.5356   19.1247   25.5085 C   0  0  0  0  0  0  0  0  0  0  0  0
   19.8476   18.3572   24.7892 H   0  0  0  0  0  0  0  0  0  0  0  0
   20.2742   19.9362   25.4678 H   0  0  0  0  0  0  0  0  0  0  0  0
   19.5276   18.5101   26.9190 C   0  0  0  0  0  0  0  0  0  0  0  0
   18.8034   17.6920   26.9600 H   0  0  0  0  0  0  0  0  0  0  0  0
   19.2324   19.2682   27.6495 H   0  0  0  0  0  0  0  0  0  0  0  0
   20.8772   17.9613   27.3345 N   0  3  0  0  0  0  0  0  0  0  0  0
   21.2002   17.2220   26.7016 H   0  0  0  0  0  0  0  0  0  0  0  0
   20.8498   17.5571   28.2771 H   0  0  0  0  0  0  0  0  0  0  0  0
   21.5992   18.6894   27.3427 H   0  0  0  0  0  0  0  0  0  0  0  0
  1  2  1  0  0  0  0
  1  3  1  0  0  0  0
  1  4  1  0  0  0  0
  1  5  1  0  0  0  0
  5  6  1  0  0  0  0
  5  7  1  0  0  0  0
  5  8  1  0  0  0  0
  8  9  1  0  0  0  0
  8 10  1  0  0  0  0
  8 11  1  0  0  0  0
 11 12  1  0  0  0  0
 11 13  1  0  0  0  0
 11 14  1  0  0  0  0
 14 15  1  0  0  0  0
 14 16  1  0  0  0  0
 14 17  1  0  0  0  0
 17 18  1  0  0  0  0
 17 19  1  0  0  0  0
 17 20  1  0  0  0  0
 20 21  1  0  0  0  0
 20 22  1  0  0  0  0
 20 23  1  0  0  0  0
 23 24  1  0  0  0  0
 23 25  1  0  0  0  0
 23 26  1  0  0  0  0
 26 27  1  0  0  0  0
 26 28  1  0  0  0  0
 26 29  1  0  0  0  0
M  END
> <VM2 Rank>
257

> <Conf_Id>
571

> <Probability>
0.01

> <Sum Probability>
99.51

> <Delta G>
3.899

> <G>
62.047

> <E>
24.401

> <-TS>
37.646

> <U+W>
0.257

> <U>
52.527

> <W>
-52.270

> <W(PB)>
-54.753

> <W(SA)>
2.483

> <Valence>
6.102

> <Coulomb>
45.609

> <VdW>
0.817

> <VdW6>
-9.371

> <VdW12>
10.188

> <Bond>
0.273

> <Angle>
1.408

> <Pdih>
4.421

> <Idih>
0.000

> <Tether>
0.000

$$$$
VeraChem MOL file


 29 28  0  0  0  0  0  0  0  0999 V2000     
   21.1723   19.8972   21.0939 C   0  0  0  0  0  0  0  0  0  0  0  0
   20.5895   20.8040   21.2971 H   0  0  0  0  0  0  0  0  0  0  0  0
   21.8452   19.7229   21.9435 H   0  0  0  0  0  0  0  0  0  0  0  0
   21.7922   20.0951   20.2099 H   0  0  0  0  0  0  0  0  0  0  0  0
   20.2574   18.6757   20.8499 C   0  0  0  0  0  0  0  0  0  0  0  0
   20.8790   17.8268   20.5327 H   0  0  0  0  0  0  0  0  0  0  0  0
   19.5738   18.8851   20.0153 H   0  0  0  0  0  0  0  0  0  0  0  0
   19.4471   18.2574   22.1001 C   0  0  0  0  0  0  0  0  0  0  0  0
   18.9331   17.3118   21.8794 H   0  0  0  0  0  0  0  0  0  0  0  0
   20.1396   18.0415   22.9221 H   0  0  0  0  0  0  0  0  0  0  0  0
   18.3933   19.3105   22.5305 C   0  0  0  0  0  0  0  0  0  0  0  0
   17.7205   19.4866   21.6800 H   0  0  0  0  0  0  0  0  0  0  0  0
   18.8683   20.2760   22.7468 H   0  0  0  0  0  0  0  0  0  0  0  0
   17.5404   18.8647   23.7469 C   0  0  0  0  0  0  0  0  0  0  0  0
   16.5177   19.2401   23.6036 H   0  0  0  0  0  0  0  0  0  0  0  0
   17.4521   17.7698   23.7711 H   0  0  0  0  0  0  0  0  0  0  0  0
   18.0417   19.3893   25.1173 C   0  0  0  0  0  0  0  0  0  0  0  0
   17.3328   19.0638   25.8913 H   0  0  0  0  0  0  0  0  0  0  0  0
   18.0133   20.4878   25.1198 H   0  0  0  0  0  0  0  0  0  0  0  0
   19.4601   18.9129   25.5038 C   0  0  0  0  0  0  0  0  0  0  0  0
   19.5198   17.8196   25.4205 H   0  0  0  0  0  0  0  0  0  0  0  0
   20.1972   19.3380   24.8110 H   0  0  0  0  0  0  0  0  0  0  0  0
   19.8226   19.3377   26.9374 C   0  0  0  0  0  0  0  0  0  0  0  0
   19.1043   18.9090   27.6414 H   0  0  0  0  0  0  0  0  0  0  0  0
   19.7784   20.4270   27.0209 H   0  0  0  0  0  0  0  0  0  0  0  0
   21.2091   18.8925   27.3552 N   0  3  0  0  0  0  0  0  0  0  0  0
   21.9357   19.2854   26.7477 H   0  0  0  0  0  0  0  0  0  0  0  0
   21.3079   17.8723   27.3243 H   0  0  0  0  0  0  0  0  0  0  0  0
   21.4301   19.1852   28.3134 H   0  0  0  0  0  0  0  0  0  0  0  0
  1  2  1  0  0  0  0
  1  3  1  0  0  0  0
  1  4  1  0  0  0  0
  1  5  1  0  0  0  0
  5  6  1  0  0  0  0
  5  7  1  0  0  0  0
  5  8  1  0  0  0  0
  8  9  1  0  0  0  0
  8 10  1  0  0  0  0
  8 11  1  0  0  0  0
 11 12  1  0  0  0  0
 11 13  1  0  0  0  0
 11 14  1  0  0  0  0
 14 15  1  0  0  0  0
 14 16  1  0  0  0  0
 14 17  1  0  0  0  0
 17 18  1  0  0  0  0
 17 19  1  0  0  0  0
 17 20  1  0  0  0  0
 20 21  1  0  0  0  0
 20 22  1  0  0  0  0
 20 23  1  0  0  0  0
 23 24  1  0  0  0  0
 23 25  1  0  0  0  0
 23 26  1  0  0  0  0
 26 27  1  0  0  0  0
 26 28  1  0  0  0  0
 26 29  1  0  0  0  0
M  END
> <VM2 Rank>
258

> <Conf_Id>
543

> <Probability>
0.01

> <Sum Probability>
99.52

> <Delta G>
3.903

> <G>
62.051

> <E>
24.405

> <-TS>
37.646

> <U+W>
0.260

> <U>
52.527

> <W>
-52.267

> <W(PB)>
-54.744

> <W(SA)>
2.477

> <Valence>
6.102

> <Coulomb>
45.609

> <VdW>
0.817

> <VdW6>
-9.371

> <VdW12>
10.188

> <Bond>
0.273

> <Angle>
1.407

> <Pdih>
4.421

> <Idih>
0.000

> <Tether>
0.000

$$$$
VeraChem MOL file


 29 28  0  0  0  0  0  0  0  0999 V2000     
   19.9095   19.5751   19.7894 C   0  0  0  0  0  0  0  0  0  0  0  0
   20.9458   19.4145   20.1120 H   0  0  0  0  0  0  0  0  0  0  0  0
   19.8748   19.4239   18.7028 H   0  0  0  0  0  0  0  0  0  0  0  0
   19.6440   20.6208   19.9919 H   0  0  0  0  0  0  0  0  0  0  0  0
   18.9376   18.6073   20.5016 C   0  0  0  0  0  0  0  0  0  0  0  0
   19.2400   17.5691   20.3055 H   0  0  0  0  0  0  0  0  0  0  0  0
   17.9365   18.7240   20.0634 H   0  0  0  0  0  0  0  0  0  0  0  0
   18.8433   18.8460   22.0277 C   0  0  0  0  0  0  0  0  0  0  0  0
   18.5124   19.8769   22.2102 H   0  0  0  0  0  0  0  0  0  0  0  0
   18.0612   18.1912   22.4359 H   0  0  0  0  0  0  0  0  0  0  0  0
   20.1733   18.5737   22.7747 C   0  0  0  0  0  0  0  0  0  0  0  0
   20.9365   19.2981   22.4610 H   0  0  0  0  0  0  0  0  0  0  0  0
   20.5499   17.5824   22.4874 H   0  0  0  0  0  0  0  0  0  0  0  0
   20.0317   18.6196   24.3157 C   0  0  0  0  0  0  0  0  0  0  0  0
   19.2957   17.8671   24.6251 H   0  0  0  0  0  0  0  0  0  0  0  0
   20.9929   18.3300   24.7622 H   0  0  0  0  0  0  0  0  0  0  0  0
   19.6201   20.0140   24.8503 C   0  0  0  0  0  0  0  0  0  0  0  0
   18.5868   20.2371   24.5527 H   0  0  0  0  0  0  0  0  0  0  0  0
   20.2499   20.7774   24.3731 H   0  0  0  0  0  0  0  0  0  0  0  0
   19.7499   20.1728   26.3867 C   0  0  0  0  0  0  0  0  0  0  0  0
   20.7881   20.0048   26.7026 H   0  0  0  0  0  0  0  0  0  0  0  0
   19.5239   21.2177   26.6373 H   0  0  0  0  0  0  0  0  0  0  0  0
   18.7965   19.2772   27.2046 C   0  0  0  0  0  0  0  0  0  0  0  0
   17.8122   19.2518   26.7293 H   0  0  0  0  0  0  0  0  0  0  0  0
   18.6793   19.7024   28.2051 H   0  0  0  0  0  0  0  0  0  0  0  0
   19.2822   17.8524   27.3843 N   0  3  0  0  0  0  0  0  0  0  0  0
   18.6201   17.2910   27.9311 H   0  0  0  0  0  0  0  0  0  0  0  0
   20.1812   17.8178   27.8762 H   0  0  0  0  0  0  0  0  0  0  0  0
   19.4104   17.3795   26.4852 H   0  0  0  0  0  0  0  0  0  0  0  0
  1  2  1  0  0  0  0
  1  3  1  0  0  0  0
  1  4  1  0  0  0  0
  1  5  1  0  0  0  0
  5  6  1  0  0  0  0
  5  7  1  0  0  0  0
  5  8  1  0  0  0  0
  8  9  1  0  0  0  0
  8 10  1  0  0  0  0
  8 11  1  0  0  0  0
 11 12  1  0  0  0  0
 11 13  1  0  0  0  0
 11 14  1  0  0  0  0
 14 15  1  0  0  0  0
 14 16  1  0  0  0  0
 14 17  1  0  0  0  0
 17 18  1  0  0  0  0
 17 19  1  0  0  0  0
 17 20  1  0  0  0  0
 20 21  1  0  0  0  0
 20 22  1  0  0  0  0
 20 23  1  0  0  0  0
 23 24  1  0  0  0  0
 23 25  1  0  0  0  0
 23 26  1  0  0  0  0
 26 27  1  0  0  0  0
 26 28  1  0  0  0  0
 26 29  1  0  0  0  0
M  END
> <VM2 Rank>
259

> <Conf_Id>
304

> <Probability>
0.01

> <Sum Probability>
99.53

> <Delta G>
3.907

> <G>
62.055

> <E>
24.442

> <-TS>
37.613

> <U+W>
0.297

> <U>
52.339

> <W>
-52.042

> <W(PB)>
-54.497

> <W(SA)>
2.455

> <Valence>
5.123

> <Coulomb>
46.319

> <VdW>
0.897

> <VdW6>
-9.793

> <VdW12>
10.690

> <Bond>
0.276

> <Angle>
1.342

> <Pdih>
3.505

> <Idih>
0.000

> <Tether>
0.000

$$$$
VeraChem MOL file


 29 28  0  0  0  0  0  0  0  0999 V2000     
   19.3192   18.7568   19.5081 C   0  0  0  0  0  0  0  0  0  0  0  0
   20.3209   19.0779   19.1940 H   0  0  0  0  0  0  0  0  0  0  0  0
   19.2336   17.6774   19.3273 H   0  0  0  0  0  0  0  0  0  0  0  0
   18.5861   19.2647   18.8680 H   0  0  0  0  0  0  0  0  0  0  0  0
   19.0703   19.0923   20.9938 C   0  0  0  0  0  0  0  0  0  0  0  0
   18.0515   18.7870   21.2705 H   0  0  0  0  0  0  0  0  0  0  0  0
   19.1242   20.1810   21.1277 H   0  0  0  0  0  0  0  0  0  0  0  0
   20.0946   18.3903   21.9161 C   0  0  0  0  0  0  0  0  0  0  0  0
   20.0752   17.3101   21.7159 H   0  0  0  0  0  0  0  0  0  0  0  0
   21.1096   18.7311   21.6692 H   0  0  0  0  0  0  0  0  0  0  0  0
   19.8234   18.6160   23.4236 C   0  0  0  0  0  0  0  0  0  0  0  0
   20.5338   18.0086   24.0008 H   0  0  0  0  0  0  0  0  0  0  0  0
   18.8189   18.2437   23.6611 H   0  0  0  0  0  0  0  0  0  0  0  0
   19.9501   20.0978   23.8546 C   0  0  0  0  0  0  0  0  0  0  0  0
   20.8673   20.5173   23.4189 H   0  0  0  0  0  0  0  0  0  0  0  0
   19.1180   20.6788   23.4351 H   0  0  0  0  0  0  0  0  0  0  0  0
   20.0016   20.3202   25.3884 C   0  0  0  0  0  0  0  0  0  0  0  0
   20.1615   21.3939   25.5584 H   0  0  0  0  0  0  0  0  0  0  0  0
   20.8844   19.8230   25.8106 H   0  0  0  0  0  0  0  0  0  0  0  0
   18.7180   19.9040   26.1557 C   0  0  0  0  0  0  0  0  0  0  0  0
   18.6579   20.4834   27.0866 H   0  0  0  0  0  0  0  0  0  0  0  0
   17.8318   20.1831   25.5704 H   0  0  0  0  0  0  0  0  0  0  0  0
   18.6403   18.4062   26.5194 C   0  0  0  0  0  0  0  0  0  0  0  0
   18.7073   17.7919   25.6202 H   0  0  0  0  0  0  0  0  0  0  0  0
   17.6778   18.2021   26.9962 H   0  0  0  0  0  0  0  0  0  0  0  0
   19.7266   17.9543   27.4753 N   0  3  0  0  0  0  0  0  0  0  0  0
   19.6370   16.9600   27.7113 H   0  0  0  0  0  0  0  0  0  0  0  0
   19.6970   18.4756   28.3577 H   0  0  0  0  0  0  0  0  0  0  0  0
   20.6612   18.0862   27.0767 H   0  0  0  0  0  0  0  0  0  0  0  0
  1  2  1  0  0  0  0
  1  3  1  0  0  0  0
  1  4  1  0  0  0  0
  1  5  1  0  0  0  0
  5  6  1  0  0  0  0
  5  7  1  0  0  0  0
  5  8  1  0  0  0  0
  8  9  1  0  0  0  0
  8 10  1  0  0  0  0
  8 11  1  0  0  0  0
 11 12  1  0  0  0  0
 11 13  1  0  0  0  0
 11 14  1  0  0  0  0
 14 15  1  0  0  0  0
 14 16  1  0  0  0  0
 14 17  1  0  0  0  0
 17 18  1  0  0  0  0
 17 19  1  0  0  0  0
 17 20  1  0  0  0  0
 20 21  1  0  0  0  0
 20 22  1  0  0  0  0
 20 23  1  0  0  0  0
 23 24  1  0  0  0  0
 23 25  1  0  0  0  0
 23 26  1  0  0  0  0
 26 27  1  0  0  0  0
 26 28  1  0  0  0  0
 26 29  1  0  0  0  0
M  END
> <VM2 Rank>
260

> <Conf_Id>
2149

> <Probability>
0.01

> <Sum Probability>
99.54

> <Delta G>
3.908

> <G>
62.056

> <E>
24.353

> <-TS>
37.702

> <U+W>
0.209

> <U>
52.451

> <W>
-52.243

> <W(PB)>
-54.688

> <W(SA)>
2.445

> <Valence>
5.609

> <Coulomb>
46.006

> <VdW>
0.837

> <VdW6>
-9.912

> <VdW12>
10.749

> <Bond>
0.284

> <Angle>
1.564

> <Pdih>
3.761

> <Idih>
0.000

> <Tether>
0.000

$$$$
VeraChem MOL file


 29 28  0  0  0  0  0  0  0  0999 V2000     
   19.5458   18.5546   19.7667 C   0  0  0  0  0  0  0  0  0  0  0  0
   20.4458   18.0114   20.0806 H   0  0  0  0  0  0  0  0  0  0  0  0
   18.6765   17.9049   19.9314 H   0  0  0  0  0  0  0  0  0  0  0  0
   19.6296   18.7366   18.6875 H   0  0  0  0  0  0  0  0  0  0  0  0
   19.3941   19.8897   20.5302 C   0  0  0  0  0  0  0  0  0  0  0  0
   18.5507   20.4492   20.1021 H   0  0  0  0  0  0  0  0  0  0  0  0
   20.2872   20.5100   20.3710 H   0  0  0  0  0  0  0  0  0  0  0  0
   19.1489   19.7041   22.0470 C   0  0  0  0  0  0  0  0  0  0  0  0
   18.9508   20.6890   22.4918 H   0  0  0  0  0  0  0  0  0  0  0  0
   18.2386   19.1078   22.1932 H   0  0  0  0  0  0  0  0  0  0  0  0
   20.3412   19.0450   22.7852 C   0  0  0  0  0  0  0  0  0  0  0  0
   21.2634   19.5859   22.5321 H   0  0  0  0  0  0  0  0  0  0  0  0
   20.4795   18.0145   22.4322 H   0  0  0  0  0  0  0  0  0  0  0  0
   20.1808   19.0378   24.3250 C   0  0  0  0  0  0  0  0  0  0  0  0
   21.1025   18.6371   24.7690 H   0  0  0  0  0  0  0  0  0  0  0  0
   20.0813   20.0730   24.6743 H   0  0  0  0  0  0  0  0  0  0  0  0
   18.9735   18.1970   24.8097 C   0  0  0  0  0  0  0  0  0  0  0  0
   18.9862   17.2270   24.2938 H   0  0  0  0  0  0  0  0  0  0  0  0
   18.0358   18.6887   24.5182 H   0  0  0  0  0  0  0  0  0  0  0  0
   18.9521   17.9313   26.3366 C   0  0  0  0  0  0  0  0  0  0  0  0
   18.1135   17.2549   26.5488 H   0  0  0  0  0  0  0  0  0  0  0  0
   19.8586   17.3932   26.6444 H   0  0  0  0  0  0  0  0  0  0  0  0
   18.7669   19.1944   27.2027 C   0  0  0  0  0  0  0  0  0  0  0  0
   18.3935   18.8995   28.1871 H   0  0  0  0  0  0  0  0  0  0  0  0
   18.0266   19.8544   26.7427 H   0  0  0  0  0  0  0  0  0  0  0  0
   20.0407   19.9840   27.4318 N   0  3  0  0  0  0  0  0  0  0  0  0
   20.7526   19.4237   27.9119 H   0  0  0  0  0  0  0  0  0  0  0  0
   19.8740   20.8152   28.0098 H   0  0  0  0  0  0  0  0  0  0  0  0
   20.4513   20.3049   26.5505 H   0  0  0  0  0  0  0  0  0  0  0  0
  1  2  1  0  0  0  0
  1  3  1  0  0  0  0
  1  4  1  0  0  0  0
  1  5  1  0  0  0  0
  5  6  1  0  0  0  0
  5  7  1  0  0  0  0
  5  8  1  0  0  0  0
  8  9  1  0  0  0  0
  8 10  1  0  0  0  0
  8 11  1  0  0  0  0
 11 12  1  0  0  0  0
 11 13  1  0  0  0  0
 11 14  1  0  0  0  0
 14 15  1  0  0  0  0
 14 16  1  0  0  0  0
 14 17  1  0  0  0  0
 17 18  1  0  0  0  0
 17 19  1  0  0  0  0
 17 20  1  0  0  0  0
 20 21  1  0  0  0  0
 20 22  1  0  0  0  0
 20 23  1  0  0  0  0
 23 24  1  0  0  0  0
 23 25  1  0  0  0  0
 23 26  1  0  0  0  0
 26 27  1  0  0  0  0
 26 28  1  0  0  0  0
 26 29  1  0  0  0  0
M  END
> <VM2 Rank>
261

> <Conf_Id>
335

> <Probability>
0.01

> <Sum Probability>
99.54

> <Delta G>
3.924

> <G>
62.072

> <E>
24.460

> <-TS>
37.612

> <U+W>
0.315

> <U>
52.339

> <W>
-52.024

> <W(PB)>
-54.480

> <W(SA)>
2.456

> <Valence>
5.123

> <Coulomb>
46.319

> <VdW>
0.897

> <VdW6>
-9.793

> <VdW12>
10.690

> <Bond>
0.276

> <Angle>
1.343

> <Pdih>
3.505

> <Idih>
0.000

> <Tether>
0.000

$$$$
VeraChem MOL file


 29 28  0  0  0  0  0  0  0  0999 V2000     
   19.5621   17.8108   20.2595 C   0  0  0  0  0  0  0  0  0  0  0  0
   18.5898   18.2915   20.0946 H   0  0  0  0  0  0  0  0  0  0  0  0
   19.9421   17.4897   19.2810 H   0  0  0  0  0  0  0  0  0  0  0  0
   19.4029   16.9122   20.8696 H   0  0  0  0  0  0  0  0  0  0  0  0
   20.5621   18.7735   20.9389 C   0  0  0  0  0  0  0  0  0  0  0  0
   20.6853   19.6743   20.3216 H   0  0  0  0  0  0  0  0  0  0  0  0
   21.5486   18.2906   20.9784 H   0  0  0  0  0  0  0  0  0  0  0  0
   20.1470   19.1752   22.3746 C   0  0  0  0  0  0  0  0  0  0  0  0
   20.0561   18.2679   22.9857 H   0  0  0  0  0  0  0  0  0  0  0  0
   20.9531   19.7770   22.8161 H   0  0  0  0  0  0  0  0  0  0  0  0
   18.8250   19.9790   22.4280 C   0  0  0  0  0  0  0  0  0  0  0  0
   17.9872   19.3355   22.1285 H   0  0  0  0  0  0  0  0  0  0  0  0
   18.8701   20.7892   21.6873 H   0  0  0  0  0  0  0  0  0  0  0  0
   18.5127   20.6031   23.8126 C   0  0  0  0  0  0  0  0  0  0  0  0
   19.2927   21.3268   24.0864 H   0  0  0  0  0  0  0  0  0  0  0  0
   17.5893   21.1896   23.7086 H   0  0  0  0  0  0  0  0  0  0  0  0
   18.3043   19.5755   24.9556 C   0  0  0  0  0  0  0  0  0  0  0  0
   17.9125   18.6327   24.5492 H   0  0  0  0  0  0  0  0  0  0  0  0
   17.5275   19.9604   25.6310 H   0  0  0  0  0  0  0  0  0  0  0  0
   19.5799   19.3138   25.7917 C   0  0  0  0  0  0  0  0  0  0  0  0
   20.3917   18.9459   25.1544 H   0  0  0  0  0  0  0  0  0  0  0  0
   19.9268   20.2562   26.2359 H   0  0  0  0  0  0  0  0  0  0  0  0
   19.3145   18.2923   26.9113 C   0  0  0  0  0  0  0  0  0  0  0  0
   18.9850   17.3454   26.4751 H   0  0  0  0  0  0  0  0  0  0  0  0
   18.5228   18.6630   27.5679 H   0  0  0  0  0  0  0  0  0  0  0  0
   20.5363   18.0147   27.7630 N   0  3  0  0  0  0  0  0  0  0  0  0
   20.8809   18.8633   28.2242 H   0  0  0  0  0  0  0  0  0  0  0  0
   21.3111   17.6363   27.2080 H   0  0  0  0  0  0  0  0  0  0  0  0
   20.3374   17.3323   28.5029 H   0  0  0  0  0  0  0  0  0  0  0  0
  1  2  1  0  0  0  0
  1  3  1  0  0  0  0
  1  4  1  0  0  0  0
  1  5  1  0  0  0  0
  5  6  1  0  0  0  0
  5  7  1  0  0  0  0
  5  8  1  0  0  0  0
  8  9  1  0  0  0  0
  8 10  1  0  0  0  0
  8 11  1  0  0  0  0
 11 12  1  0  0  0  0
 11 13  1  0  0  0  0
 11 14  1  0  0  0  0
 14 15  1  0  0  0  0
 14 16  1  0  0  0  0
 14 17  1  0  0  0  0
 17 18  1  0  0  0  0
 17 19  1  0  0  0  0
 17 20  1  0  0  0  0
 20 21  1  0  0  0  0
 20 22  1  0  0  0  0
 20 23  1  0  0  0  0
 23 24  1  0  0  0  0
 23 25  1  0  0  0  0
 23 26  1  0  0  0  0
 26 27  1  0  0  0  0
 26 28  1  0  0  0  0
 26 29  1  0  0  0  0
M  END
> <VM2 Rank>
262

> <Conf_Id>
1312

> <Probability>
0.01

> <Sum Probability>
99.55

> <Delta G>
3.935

> <G>
62.083

> <E>
24.396

> <-TS>
37.688

> <U+W>
0.251

> <U>
52.336

> <W>
-52.085

> <W(PB)>
-54.562

> <W(SA)>
2.476

> <Valence>
6.070

> <Coulomb>
45.396

> <VdW>
0.870

> <VdW6>
-9.253

> <VdW12>
10.123

> <Bond>
0.266

> <Angle>
1.373

> <Pdih>
4.431

> <Idih>
0.000

> <Tether>
0.000

$$$$
VeraChem MOL file


 29 28  0  0  0  0  0  0  0  0999 V2000     
   21.0434   19.5197   20.4249 C   0  0  0  0  0  0  0  0  0  0  0  0
   20.5669   19.3066   19.4592 H   0  0  0  0  0  0  0  0  0  0  0  0
   21.0022   20.6035   20.5949 H   0  0  0  0  0  0  0  0  0  0  0  0
   22.0996   19.2299   20.3507 H   0  0  0  0  0  0  0  0  0  0  0  0
   20.3471   18.7527   21.5688 C   0  0  0  0  0  0  0  0  0  0  0  0
   20.8753   18.9596   22.5090 H   0  0  0  0  0  0  0  0  0  0  0  0
   20.4299   17.6721   21.3869 H   0  0  0  0  0  0  0  0  0  0  0  0
   18.8572   19.1481   21.6960 C   0  0  0  0  0  0  0  0  0  0  0  0
   18.7756   20.2199   21.9203 H   0  0  0  0  0  0  0  0  0  0  0  0
   18.3664   19.0058   20.7233 H   0  0  0  0  0  0  0  0  0  0  0  0
   18.0835   18.3234   22.7571 C   0  0  0  0  0  0  0  0  0  0  0  0
   18.0795   17.2673   22.4542 H   0  0  0  0  0  0  0  0  0  0  0  0
   17.0316   18.6407   22.7516 H   0  0  0  0  0  0  0  0  0  0  0  0
   18.6316   18.4257   24.2037 C   0  0  0  0  0  0  0  0  0  0  0  0
   18.0011   17.8063   24.8563 H   0  0  0  0  0  0  0  0  0  0  0  0
   19.6378   17.9923   24.2389 H   0  0  0  0  0  0  0  0  0  0  0  0
   18.6570   19.8755   24.7479 C   0  0  0  0  0  0  0  0  0  0  0  0
   17.6876   20.3492   24.5405 H   0  0  0  0  0  0  0  0  0  0  0  0
   19.4096   20.4636   24.2058 H   0  0  0  0  0  0  0  0  0  0  0  0
   18.9317   19.9822   26.2695 C   0  0  0  0  0  0  0  0  0  0  0  0
   18.8347   21.0379   26.5557 H   0  0  0  0  0  0  0  0  0  0  0  0
   18.1606   19.4441   26.8368 H   0  0  0  0  0  0  0  0  0  0  0  0
   20.3346   19.5063   26.7000 C   0  0  0  0  0  0  0  0  0  0  0  0
   20.5821   19.9553   27.6657 H   0  0  0  0  0  0  0  0  0  0  0  0
   21.0789   19.8377   25.9710 H   0  0  0  0  0  0  0  0  0  0  0  0
   20.4579   18.0044   26.8670 N   0  3  0  0  0  0  0  0  0  0  0  0
   19.8162   17.6493   27.5836 H   0  0  0  0  0  0  0  0  0  0  0  0
   21.4048   17.7300   27.1510 H   0  0  0  0  0  0  0  0  0  0  0  0
   20.2458   17.5075   25.9974 H   0  0  0  0  0  0  0  0  0  0  0  0
  1  2  1  0  0  0  0
  1  3  1  0  0  0  0
  1  4  1  0  0  0  0
  1  5  1  0  0  0  0
  5  6  1  0  0  0  0
  5  7  1  0  0  0  0
  5  8  1  0  0  0  0
  8  9  1  0  0  0  0
  8 10  1  0  0  0  0
  8 11  1  0  0  0  0
 11 12  1  0  0  0  0
 11 13  1  0  0  0  0
 11 14  1  0  0  0  0
 14 15  1  0  0  0  0
 14 16  1  0  0  0  0
 14 17  1  0  0  0  0
 17 18  1  0  0  0  0
 17 19  1  0  0  0  0
 17 20  1  0  0  0  0
 20 21  1  0  0  0  0
 20 22  1  0  0  0  0
 20 23  1  0  0  0  0
 23 24  1  0  0  0  0
 23 25  1  0  0  0  0
 23 26  1  0  0  0  0
 26 27  1  0  0  0  0
 26 28  1  0  0  0  0
 26 29  1  0  0  0  0
M  END
> <VM2 Rank>
263

> <Conf_Id>
206

> <Probability>
0.01

> <Sum Probability>
99.56

> <Delta G>
3.943

> <G>
62.091

> <E>
24.284

> <-TS>
37.807

> <U+W>
0.140

> <U>
52.645

> <W>
-52.505

> <W(PB)>
-54.938

> <W(SA)>
2.433

> <Valence>
5.097

> <Coulomb>
46.891

> <VdW>
0.656

> <VdW6>
-10.250

> <VdW12>
10.906

> <Bond>
0.285

> <Angle>
1.535

> <Pdih>
3.276

> <Idih>
0.000

> <Tether>
0.000

$$$$
VeraChem MOL file


 29 28  0  0  0  0  0  0  0  0999 V2000     
   19.6091   19.5724   19.5263 C   0  0  0  0  0  0  0  0  0  0  0  0
   18.7290   19.6676   18.8772 H   0  0  0  0  0  0  0  0  0  0  0  0
   20.2270   20.4695   19.3897 H   0  0  0  0  0  0  0  0  0  0  0  0
   20.1872   18.7036   19.1855 H   0  0  0  0  0  0  0  0  0  0  0  0
   19.1835   19.4108   21.0010 C   0  0  0  0  0  0  0  0  0  0  0  0
   18.5359   18.5284   21.0909 H   0  0  0  0  0  0  0  0  0  0  0  0
   18.5827   20.2796   21.3041 H   0  0  0  0  0  0  0  0  0  0  0  0
   20.4080   19.2709   21.9356 C   0  0  0  0  0  0  0  0  0  0  0  0
   20.9831   18.3759   21.6610 H   0  0  0  0  0  0  0  0  0  0  0  0
   21.0779   20.1276   21.7786 H   0  0  0  0  0  0  0  0  0  0  0  0
   20.0342   19.2076   23.4367 C   0  0  0  0  0  0  0  0  0  0  0  0
   19.4871   20.1208   23.7030 H   0  0  0  0  0  0  0  0  0  0  0  0
   20.9604   19.2066   24.0274 H   0  0  0  0  0  0  0  0  0  0  0  0
   19.1907   17.9630   23.8070 C   0  0  0  0  0  0  0  0  0  0  0  0
   18.1846   18.0550   23.3765 H   0  0  0  0  0  0  0  0  0  0  0  0
   19.6432   17.0762   23.3421 H   0  0  0  0  0  0  0  0  0  0  0  0
   19.0687   17.6976   25.3298 C   0  0  0  0  0  0  0  0  0  0  0  0
   20.0611   17.5087   25.7590 H   0  0  0  0  0  0  0  0  0  0  0  0
   18.5124   16.7583   25.4551 H   0  0  0  0  0  0  0  0  0  0  0  0
   18.3252   18.7999   26.1310 C   0  0  0  0  0  0  0  0  0  0  0  0
   17.4702   19.1664   25.5476 H   0  0  0  0  0  0  0  0  0  0  0  0
   17.8997   18.3522   27.0390 H   0  0  0  0  0  0  0  0  0  0  0  0
   19.2054   19.9946   26.5548 C   0  0  0  0  0  0  0  0  0  0  0  0
   18.5812   20.7416   27.0526 H   0  0  0  0  0  0  0  0  0  0  0  0
   19.6580   20.4636   25.6798 H   0  0  0  0  0  0  0  0  0  0  0  0
   20.3193   19.6211   27.5128 N   0  3  0  0  0  0  0  0  0  0  0  0
   19.9547   19.2013   28.3742 H   0  0  0  0  0  0  0  0  0  0  0  0
   20.8743   20.4385   27.7891 H   0  0  0  0  0  0  0  0  0  0  0  0
   20.9664   18.9445   27.0963 H   0  0  0  0  0  0  0  0  0  0  0  0
  1  2  1  0  0  0  0
  1  3  1  0  0  0  0
  1  4  1  0  0  0  0
  1  5  1  0  0  0  0
  5  6  1  0  0  0  0
  5  7  1  0  0  0  0
  5  8  1  0  0  0  0
  8  9  1  0  0  0  0
  8 10  1  0  0  0  0
  8 11  1  0  0  0  0
 11 12  1  0  0  0  0
 11 13  1  0  0  0  0
 11 14  1  0  0  0  0
 14 15  1  0  0  0  0
 14 16  1  0  0  0  0
 14 17  1  0  0  0  0
 17 18  1  0  0  0  0
 17 19  1  0  0  0  0
 17 20  1  0  0  0  0
 20 21  1  0  0  0  0
 20 22  1  0  0  0  0
 20 23  1  0  0  0  0
 23 24  1  0  0  0  0
 23 25  1  0  0  0  0
 23 26  1  0  0  0  0
 26 27  1  0  0  0  0
 26 28  1  0  0  0  0
 26 29  1  0  0  0  0
M  END
> <VM2 Rank>
264

> <Conf_Id>
1831

> <Probability>
0.01

> <Sum Probability>
99.57

> <Delta G>
3.943

> <G>
62.091

> <E>
24.390

> <-TS>
37.702

> <U+W>
0.245

> <U>
52.451

> <W>
-52.206

> <W(PB)>
-54.694

> <W(SA)>
2.488

> <Valence>
5.609

> <Coulomb>
46.005

> <VdW>
0.837

> <VdW6>
-9.912

> <VdW12>
10.748

> <Bond>
0.283

> <Angle>
1.564

> <Pdih>
3.761

> <Idih>
0.000

> <Tether>
0.000

$$$$
VeraChem MOL file


 29 28  0  0  0  0  0  0  0  0999 V2000     
   21.2805   18.6277   20.4299 C   0  0  0  0  0  0  0  0  0  0  0  0
   21.9310   19.4241   20.8145 H   0  0  0  0  0  0  0  0  0  0  0  0
   21.6165   17.6746   20.8586 H   0  0  0  0  0  0  0  0  0  0  0  0
   21.4187   18.5755   19.3421 H   0  0  0  0  0  0  0  0  0  0  0  0
   19.8023   18.9020   20.7787 C   0  0  0  0  0  0  0  0  0  0  0  0
   19.1740   18.1080   20.3514 H   0  0  0  0  0  0  0  0  0  0  0  0
   19.4855   19.8442   20.3099 H   0  0  0  0  0  0  0  0  0  0  0  0
   19.5805   18.9792   22.3053 C   0  0  0  0  0  0  0  0  0  0  0  0
   19.8936   18.0337   22.7692 H   0  0  0  0  0  0  0  0  0  0  0  0
   20.2190   19.7716   22.7165 H   0  0  0  0  0  0  0  0  0  0  0  0
   18.1028   19.2667   22.6578 C   0  0  0  0  0  0  0  0  0  0  0  0
   17.4631   18.5469   22.1288 H   0  0  0  0  0  0  0  0  0  0  0  0
   17.8235   20.2595   22.2788 H   0  0  0  0  0  0  0  0  0  0  0  0
   17.7775   19.1819   24.1714 C   0  0  0  0  0  0  0  0  0  0  0  0
   16.6986   19.3566   24.2850 H   0  0  0  0  0  0  0  0  0  0  0  0
   17.9478   18.1594   24.5320 H   0  0  0  0  0  0  0  0  0  0  0  0
   18.5263   20.2152   25.0568 C   0  0  0  0  0  0  0  0  0  0  0  0
   17.8556   20.5364   25.8658 H   0  0  0  0  0  0  0  0  0  0  0  0
   18.7364   21.1206   24.4710 H   0  0  0  0  0  0  0  0  0  0  0  0
   19.8362   19.6920   25.6989 C   0  0  0  0  0  0  0  0  0  0  0  0
   20.5268   19.3283   24.9300 H   0  0  0  0  0  0  0  0  0  0  0  0
   20.3413   20.5290   26.1990 H   0  0  0  0  0  0  0  0  0  0  0  0
   19.5844   18.5769   26.7313 C   0  0  0  0  0  0  0  0  0  0  0  0
   19.1178   17.7170   26.2446 H   0  0  0  0  0  0  0  0  0  0  0  0
   18.9076   18.9417   27.5087 H   0  0  0  0  0  0  0  0  0  0  0  0
   20.8534   18.0963   27.4049 N   0  3  0  0  0  0  0  0  0  0  0  0
   21.5236   17.7147   26.7291 H   0  0  0  0  0  0  0  0  0  0  0  0
   20.6642   17.3557   28.0893 H   0  0  0  0  0  0  0  0  0  0  0  0
   21.3287   18.8530   27.9077 H   0  0  0  0  0  0  0  0  0  0  0  0
  1  2  1  0  0  0  0
  1  3  1  0  0  0  0
  1  4  1  0  0  0  0
  1  5  1  0  0  0  0
  5  6  1  0  0  0  0
  5  7  1  0  0  0  0
  5  8  1  0  0  0  0
  8  9  1  0  0  0  0
  8 10  1  0  0  0  0
  8 11  1  0  0  0  0
 11 12  1  0  0  0  0
 11 13  1  0  0  0  0
 11 14  1  0  0  0  0
 14 15  1  0  0  0  0
 14 16  1  0  0  0  0
 14 17  1  0  0  0  0
 17 18  1  0  0  0  0
 17 19  1  0  0  0  0
 17 20  1  0  0  0  0
 20 21  1  0  0  0  0
 20 22  1  0  0  0  0
 20 23  1  0  0  0  0
 23 24  1  0  0  0  0
 23 25  1  0  0  0  0
 23 26  1  0  0  0  0
 26 27  1  0  0  0  0
 26 28  1  0  0  0  0
 26 29  1  0  0  0  0
M  END
> <VM2 Rank>
265

> <Conf_Id>
998

> <Probability>
0.01

> <Sum Probability>
99.57

> <Delta G>
3.956

> <G>
62.104

> <E>
24.480

> <-TS>
37.624

> <U+W>
0.335

> <U>
52.594

> <W>
-52.259

> <W(PB)>
-54.742

> <W(SA)>
2.483

> <Valence>
6.024

> <Coulomb>
45.774

> <VdW>
0.796

> <VdW6>
-9.191

> <VdW12>
9.987

> <Bond>
0.266

> <Angle>
1.394

> <Pdih>
4.365

> <Idih>
0.000

> <Tether>
0.000

$$$$
VeraChem MOL file


 29 28  0  0  0  0  0  0  0  0999 V2000     
   20.3863   20.1204   20.3112 C   0  0  0  0  0  0  0  0  0  0  0  0
   19.3318   20.3707   20.1413 H   0  0  0  0  0  0  0  0  0  0  0  0
   20.8233   20.8916   20.9587 H   0  0  0  0  0  0  0  0  0  0  0  0
   20.8975   20.1671   19.3410 H   0  0  0  0  0  0  0  0  0  0  0  0
   20.5415   18.7161   20.9375 C   0  0  0  0  0  0  0  0  0  0  0  0
   21.6101   18.4634   20.9820 H   0  0  0  0  0  0  0  0  0  0  0  0
   20.0753   17.9662   20.2832 H   0  0  0  0  0  0  0  0  0  0  0  0
   19.9457   18.6111   22.3619 C   0  0  0  0  0  0  0  0  0  0  0  0
   20.1827   17.6181   22.7677 H   0  0  0  0  0  0  0  0  0  0  0  0
   20.4409   19.3460   23.0097 H   0  0  0  0  0  0  0  0  0  0  0  0
   18.4128   18.8241   22.4022 C   0  0  0  0  0  0  0  0  0  0  0  0
   17.9455   18.1985   21.6294 H   0  0  0  0  0  0  0  0  0  0  0  0
   18.1757   19.8638   22.1405 H   0  0  0  0  0  0  0  0  0  0  0  0
   17.7566   18.4840   23.7652 C   0  0  0  0  0  0  0  0  0  0  0  0
   16.6721   18.6188   23.6512 H   0  0  0  0  0  0  0  0  0  0  0  0
   17.8988   17.4199   23.9990 H   0  0  0  0  0  0  0  0  0  0  0  0
   18.2292   19.3652   24.9509 C   0  0  0  0  0  0  0  0  0  0  0  0
   17.3748   19.5320   25.6216 H   0  0  0  0  0  0  0  0  0  0  0  0
   18.5279   20.3584   24.5879 H   0  0  0  0  0  0  0  0  0  0  0  0
   19.3708   18.7275   25.7785 C   0  0  0  0  0  0  0  0  0  0  0  0
   19.0371   17.7613   26.1798 H   0  0  0  0  0  0  0  0  0  0  0  0
   20.2412   18.5241   25.1448 H   0  0  0  0  0  0  0  0  0  0  0  0
   19.7956   19.6408   26.9416 C   0  0  0  0  0  0  0  0  0  0  0  0
   18.9387   19.8285   27.5942 H   0  0  0  0  0  0  0  0  0  0  0  0
   20.1453   20.5992   26.5482 H   0  0  0  0  0  0  0  0  0  0  0  0
   20.9054   19.0489   27.7860 N   0  3  0  0  0  0  0  0  0  0  0  0
   21.7526   18.8739   27.2355 H   0  0  0  0  0  0  0  0  0  0  0  0
   20.6292   18.1561   28.2080 H   0  0  0  0  0  0  0  0  0  0  0  0
   21.1724   19.6730   28.5554 H   0  0  0  0  0  0  0  0  0  0  0  0
  1  2  1  0  0  0  0
  1  3  1  0  0  0  0
  1  4  1  0  0  0  0
  1  5  1  0  0  0  0
  5  6  1  0  0  0  0
  5  7  1  0  0  0  0
  5  8  1  0  0  0  0
  8  9  1  0  0  0  0
  8 10  1  0  0  0  0
  8 11  1  0  0  0  0
 11 12  1  0  0  0  0
 11 13  1  0  0  0  0
 11 14  1  0  0  0  0
 14 15  1  0  0  0  0
 14 16  1  0  0  0  0
 14 17  1  0  0  0  0
 17 18  1  0  0  0  0
 17 19  1  0  0  0  0
 17 20  1  0  0  0  0
 20 21  1  0  0  0  0
 20 22  1  0  0  0  0
 20 23  1  0  0  0  0
 23 24  1  0  0  0  0
 23 25  1  0  0  0  0
 23 26  1  0  0  0  0
 26 27  1  0  0  0  0
 26 28  1  0  0  0  0
 26 29  1  0  0  0  0
M  END
> <VM2 Rank>
266

> <Conf_Id>
559

> <Probability>
0.01

> <Sum Probability>
99.58

> <Delta G>
3.966

> <G>
62.114

> <E>
24.426

> <-TS>
37.688

> <U+W>
0.281

> <U>
52.336

> <W>
-52.055

> <W(PB)>
-54.553

> <W(SA)>
2.498

> <Valence>
6.070

> <Coulomb>
45.396

> <VdW>
0.870

> <VdW6>
-9.252

> <VdW12>
10.122

> <Bond>
0.266

> <Angle>
1.373

> <Pdih>
4.431

> <Idih>
0.000

> <Tether>
0.000

$$$$
VeraChem MOL file


 29 28  0  0  0  0  0  0  0  0999 V2000     
   21.0775   18.5402   21.0922 C   0  0  0  0  0  0  0  0  0  0  0  0
   22.0249   18.5984   20.5409 H   0  0  0  0  0  0  0  0  0  0  0  0
   21.3155   18.6142   22.1604 H   0  0  0  0  0  0  0  0  0  0  0  0
   20.6359   17.5541   20.8986 H   0  0  0  0  0  0  0  0  0  0  0  0
   20.1260   19.6733   20.6506 C   0  0  0  0  0  0  0  0  0  0  0  0
   20.0550   19.6664   19.5540 H   0  0  0  0  0  0  0  0  0  0  0  0
   20.5656   20.6436   20.9208 H   0  0  0  0  0  0  0  0  0  0  0  0
   18.6945   19.5703   21.2362 C   0  0  0  0  0  0  0  0  0  0  0  0
   18.1066   20.3991   20.8180 H   0  0  0  0  0  0  0  0  0  0  0  0
   18.2065   18.6527   20.8801 H   0  0  0  0  0  0  0  0  0  0  0  0
   18.6187   19.6570   22.7830 C   0  0  0  0  0  0  0  0  0  0  0  0
   17.6980   20.1909   23.0557 H   0  0  0  0  0  0  0  0  0  0  0  0
   19.4486   20.2697   23.1574 H   0  0  0  0  0  0  0  0  0  0  0  0
   18.5947   18.2699   23.4760 C   0  0  0  0  0  0  0  0  0  0  0  0
   17.7556   17.6872   23.0717 H   0  0  0  0  0  0  0  0  0  0  0  0
   19.5011   17.7014   23.2371 H   0  0  0  0  0  0  0  0  0  0  0  0
   18.4341   18.3517   25.0137 C   0  0  0  0  0  0  0  0  0  0  0  0
   18.2855   17.3347   25.4026 H   0  0  0  0  0  0  0  0  0  0  0  0
   17.5221   18.9126   25.2609 H   0  0  0  0  0  0  0  0  0  0  0  0
   19.6494   18.9881   25.7281 C   0  0  0  0  0  0  0  0  0  0  0  0
   20.5669   18.4577   25.4404 H   0  0  0  0  0  0  0  0  0  0  0  0
   19.7679   20.0332   25.4160 H   0  0  0  0  0  0  0  0  0  0  0  0
   19.4885   18.9379   27.2576 C   0  0  0  0  0  0  0  0  0  0  0  0
   19.3887   17.8991   27.5835 H   0  0  0  0  0  0  0  0  0  0  0  0
   18.5847   19.4791   27.5506 H   0  0  0  0  0  0  0  0  0  0  0  0
   20.6604   19.5494   27.9977 N   0  3  0  0  0  0  0  0  0  0  0  0
   21.5399   19.0668   27.7855 H   0  0  0  0  0  0  0  0  0  0  0  0
   20.5332   19.5053   29.0149 H   0  0  0  0  0  0  0  0  0  0  0  0
   20.7916   20.5372   27.7557 H   0  0  0  0  0  0  0  0  0  0  0  0
  1  2  1  0  0  0  0
  1  3  1  0  0  0  0
  1  4  1  0  0  0  0
  1  5  1  0  0  0  0
  5  6  1  0  0  0  0
  5  7  1  0  0  0  0
  5  8  1  0  0  0  0
  8  9  1  0  0  0  0
  8 10  1  0  0  0  0
  8 11  1  0  0  0  0
 11 12  1  0  0  0  0
 11 13  1  0  0  0  0
 11 14  1  0  0  0  0
 14 15  1  0  0  0  0
 14 16  1  0  0  0  0
 14 17  1  0  0  0  0
 17 18  1  0  0  0  0
 17 19  1  0  0  0  0
 17 20  1  0  0  0  0
 20 21  1  0  0  0  0
 20 22  1  0  0  0  0
 20 23  1  0  0  0  0
 23 24  1  0  0  0  0
 23 25  1  0  0  0  0
 23 26  1  0  0  0  0
 26 27  1  0  0  0  0
 26 28  1  0  0  0  0
 26 29  1  0  0  0  0
M  END
> <VM2 Rank>
267

> <Conf_Id>
2636

> <Probability>
0.01

> <Sum Probability>
99.59

> <Delta G>
3.970

> <G>
62.118

> <E>
24.520

> <-TS>
37.598

> <U+W>
0.376

> <U>
52.143

> <W>
-51.768

> <W(PB)>
-54.231

> <W(SA)>
2.463

> <Valence>
6.080

> <Coulomb>
45.180

> <VdW>
0.883

> <VdW6>
-9.250

> <VdW12>
10.134

> <Bond>
0.274

> <Angle>
1.425

> <Pdih>
4.380

> <Idih>
0.000

> <Tether>
0.000

$$$$
VeraChem MOL file


 29 28  0  0  0  0  0  0  0  0999 V2000     
   20.4476   17.8541   20.3873 C   0  0  0  0  0  0  0  0  0  0  0  0
   19.7265   17.0362   20.5146 H   0  0  0  0  0  0  0  0  0  0  0  0
   20.2278   18.3592   19.4377 H   0  0  0  0  0  0  0  0  0  0  0  0
   21.4492   17.4116   20.3094 H   0  0  0  0  0  0  0  0  0  0  0  0
   20.3791   18.8424   21.5706 C   0  0  0  0  0  0  0  0  0  0  0  0
   21.1305   19.6319   21.4306 H   0  0  0  0  0  0  0  0  0  0  0  0
   20.6432   18.3103   22.4942 H   0  0  0  0  0  0  0  0  0  0  0  0
   18.9744   19.4761   21.7033 C   0  0  0  0  0  0  0  0  0  0  0  0
   18.6987   19.9357   20.7442 H   0  0  0  0  0  0  0  0  0  0  0  0
   18.2289   18.6909   21.8860 H   0  0  0  0  0  0  0  0  0  0  0  0
   18.8837   20.5612   22.8073 C   0  0  0  0  0  0  0  0  0  0  0  0
   17.8691   20.9830   22.8043 H   0  0  0  0  0  0  0  0  0  0  0  0
   19.5542   21.3917   22.5468 H   0  0  0  0  0  0  0  0  0  0  0  0
   19.2223   20.0772   24.2407 C   0  0  0  0  0  0  0  0  0  0  0  0
   20.2747   19.7730   24.2787 H   0  0  0  0  0  0  0  0  0  0  0  0
   19.1179   20.9293   24.9265 H   0  0  0  0  0  0  0  0  0  0  0  0
   18.3155   18.9193   24.7264 C   0  0  0  0  0  0  0  0  0  0  0  0
   18.5328   18.0096   24.1507 H   0  0  0  0  0  0  0  0  0  0  0  0
   17.2685   19.1758   24.5140 H   0  0  0  0  0  0  0  0  0  0  0  0
   18.4386   18.6024   26.2385 C   0  0  0  0  0  0  0  0  0  0  0  0
   18.1746   19.4840   26.8376 H   0  0  0  0  0  0  0  0  0  0  0  0
   17.6908   17.8365   26.4837 H   0  0  0  0  0  0  0  0  0  0  0  0
   19.8193   18.0646   26.6679 C   0  0  0  0  0  0  0  0  0  0  0  0
   20.1959   17.3662   25.9158 H   0  0  0  0  0  0  0  0  0  0  0  0
   19.7125   17.5224   27.6113 H   0  0  0  0  0  0  0  0  0  0  0  0
   20.8634   19.1406   26.8930 N   0  3  0  0  0  0  0  0  0  0  0  0
   21.0265   19.6937   26.0469 H   0  0  0  0  0  0  0  0  0  0  0  0
   21.7659   18.7418   27.1742 H   0  0  0  0  0  0  0  0  0  0  0  0
   20.5815   19.7930   27.6321 H   0  0  0  0  0  0  0  0  0  0  0  0
  1  2  1  0  0  0  0
  1  3  1  0  0  0  0
  1  4  1  0  0  0  0
  1  5  1  0  0  0  0
  5  6  1  0  0  0  0
  5  7  1  0  0  0  0
  5  8  1  0  0  0  0
  8  9  1  0  0  0  0
  8 10  1  0  0  0  0
  8 11  1  0  0  0  0
 11 12  1  0  0  0  0
 11 13  1  0  0  0  0
 11 14  1  0  0  0  0
 14 15  1  0  0  0  0
 14 16  1  0  0  0  0
 14 17  1  0  0  0  0
 17 18  1  0  0  0  0
 17 19  1  0  0  0  0
 17 20  1  0  0  0  0
 20 21  1  0  0  0  0
 20 22  1  0  0  0  0
 20 23  1  0  0  0  0
 23 24  1  0  0  0  0
 23 25  1  0  0  0  0
 23 26  1  0  0  0  0
 26 27  1  0  0  0  0
 26 28  1  0  0  0  0
 26 29  1  0  0  0  0
M  END
> <VM2 Rank>
268

> <Conf_Id>
528

> <Probability>
0.01

> <Sum Probability>
99.59

> <Delta G>
3.972

> <G>
62.120

> <E>
24.311

> <-TS>
37.808

> <U+W>
0.167

> <U>
52.644

> <W>
-52.477

> <W(PB)>
-54.890

> <W(SA)>
2.412

> <Valence>
5.097

> <Coulomb>
46.891

> <VdW>
0.657

> <VdW6>
-10.250

> <VdW12>
10.907

> <Bond>
0.285

> <Angle>
1.535

> <Pdih>
3.277

> <Idih>
0.000

> <Tether>
0.000

$$$$
VeraChem MOL file


 29 28  0  0  0  0  0  0  0  0999 V2000     
   20.9304   20.1368   20.8818 C   0  0  0  0  0  0  0  0  0  0  0  0
   21.5220   19.2460   20.6342 H   0  0  0  0  0  0  0  0  0  0  0  0
   21.2149   20.9338   20.1826 H   0  0  0  0  0  0  0  0  0  0  0  0
   21.2107   20.4674   21.8896 H   0  0  0  0  0  0  0  0  0  0  0  0
   19.4162   19.8441   20.7806 C   0  0  0  0  0  0  0  0  0  0  0  0
   19.1645   19.6411   19.7302 H   0  0  0  0  0  0  0  0  0  0  0  0
   18.8469   20.7399   21.0656 H   0  0  0  0  0  0  0  0  0  0  0  0
   18.9625   18.6401   21.6410 C   0  0  0  0  0  0  0  0  0  0  0  0
   17.9044   18.4378   21.4250 H   0  0  0  0  0  0  0  0  0  0  0  0
   19.5176   17.7419   21.3374 H   0  0  0  0  0  0  0  0  0  0  0  0
   19.1345   18.8704   23.1615 C   0  0  0  0  0  0  0  0  0  0  0  0
   18.6172   19.7945   23.4533 H   0  0  0  0  0  0  0  0  0  0  0  0
   20.1992   19.0038   23.3856 H   0  0  0  0  0  0  0  0  0  0  0  0
   18.5863   17.6831   23.9869 C   0  0  0  0  0  0  0  0  0  0  0  0
   17.5701   17.4473   23.6420 H   0  0  0  0  0  0  0  0  0  0  0  0
   19.1918   16.7887   23.7848 H   0  0  0  0  0  0  0  0  0  0  0  0
   18.5275   17.9329   25.5162 C   0  0  0  0  0  0  0  0  0  0  0  0
   18.0798   17.0415   25.9770 H   0  0  0  0  0  0  0  0  0  0  0  0
   17.8336   18.7548   25.7349 H   0  0  0  0  0  0  0  0  0  0  0  0
   19.9014   18.1810   26.1947 C   0  0  0  0  0  0  0  0  0  0  0  0
   19.8379   17.8760   27.2478 H   0  0  0  0  0  0  0  0  0  0  0  0
   20.6606   17.5316   25.7391 H   0  0  0  0  0  0  0  0  0  0  0  0
   20.3852   19.6460   26.1496 C   0  0  0  0  0  0  0  0  0  0  0  0
   20.4394   19.9980   25.1181 H   0  0  0  0  0  0  0  0  0  0  0  0
   21.3884   19.7064   26.5802 H   0  0  0  0  0  0  0  0  0  0  0  0
   19.4999   20.6035   26.9227 N   0  3  0  0  0  0  0  0  0  0  0  0
   18.5460   20.6235   26.5491 H   0  0  0  0  0  0  0  0  0  0  0  0
   19.8573   21.5645   26.8887 H   0  0  0  0  0  0  0  0  0  0  0  0
   19.4326   20.3437   27.9122 H   0  0  0  0  0  0  0  0  0  0  0  0
  1  2  1  0  0  0  0
  1  3  1  0  0  0  0
  1  4  1  0  0  0  0
  1  5  1  0  0  0  0
  5  6  1  0  0  0  0
  5  7  1  0  0  0  0
  5  8  1  0  0  0  0
  8  9  1  0  0  0  0
  8 10  1  0  0  0  0
  8 11  1  0  0  0  0
 11 12  1  0  0  0  0
 11 13  1  0  0  0  0
 11 14  1  0  0  0  0
 14 15  1  0  0  0  0
 14 16  1  0  0  0  0
 14 17  1  0  0  0  0
 17 18  1  0  0  0  0
 17 19  1  0  0  0  0
 17 20  1  0  0  0  0
 20 21  1  0  0  0  0
 20 22  1  0  0  0  0
 20 23  1  0  0  0  0
 23 24  1  0  0  0  0
 23 25  1  0  0  0  0
 23 26  1  0  0  0  0
 26 27  1  0  0  0  0
 26 28  1  0  0  0  0
 26 29  1  0  0  0  0
M  END
> <VM2 Rank>
269

> <Conf_Id>
113

> <Probability>
0.01

> <Sum Probability>
99.60

> <Delta G>
3.983

> <G>
62.131

> <E>
24.424

> <-TS>
37.707

> <U+W>
0.279

> <U>
52.636

> <W>
-52.357

> <W(PB)>
-54.801

> <W(SA)>
2.445

> <Valence>
5.624

> <Coulomb>
46.167

> <VdW>
0.845

> <VdW6>
-9.932

> <VdW12>
10.777

> <Bond>
0.284

> <Angle>
1.571

> <Pdih>
3.768

> <Idih>
0.000

> <Tether>
0.000

$$$$
VeraChem MOL file


 29 28  0  0  0  0  0  0  0  0999 V2000     
   20.7881   19.3598   20.2865 C   0  0  0  0  0  0  0  0  0  0  0  0
   21.1208   19.9740   21.1302 H   0  0  0  0  0  0  0  0  0  0  0  0
   21.6812   18.9218   19.8225 H   0  0  0  0  0  0  0  0  0  0  0  0
   20.3211   20.0242   19.5479 H   0  0  0  0  0  0  0  0  0  0  0  0
   19.8075   18.2477   20.7262 C   0  0  0  0  0  0  0  0  0  0  0  0
   20.3032   17.5536   21.4190 H   0  0  0  0  0  0  0  0  0  0  0  0
   19.5491   17.6549   19.8376 H   0  0  0  0  0  0  0  0  0  0  0  0
   18.4978   18.7912   21.3533 C   0  0  0  0  0  0  0  0  0  0  0  0
   18.2420   19.7659   20.9154 H   0  0  0  0  0  0  0  0  0  0  0  0
   17.6786   18.1159   21.0700 H   0  0  0  0  0  0  0  0  0  0  0  0
   18.5076   18.8863   22.9008 C   0  0  0  0  0  0  0  0  0  0  0  0
   18.6700   17.8842   23.3189 H   0  0  0  0  0  0  0  0  0  0  0  0
   17.5081   19.2001   23.2321 H   0  0  0  0  0  0  0  0  0  0  0  0
   19.5583   19.8698   23.4713 C   0  0  0  0  0  0  0  0  0  0  0  0
   20.5683   19.4763   23.2977 H   0  0  0  0  0  0  0  0  0  0  0  0
   19.4916   20.8222   22.9278 H   0  0  0  0  0  0  0  0  0  0  0  0
   19.3802   20.1521   24.9831 C   0  0  0  0  0  0  0  0  0  0  0  0
   18.3814   20.5728   25.1644 H   0  0  0  0  0  0  0  0  0  0  0  0
   20.0998   20.9276   25.2806 H   0  0  0  0  0  0  0  0  0  0  0  0
   19.5894   18.9041   25.8724 C   0  0  0  0  0  0  0  0  0  0  0  0
   18.8299   18.1458   25.6436 H   0  0  0  0  0  0  0  0  0  0  0  0
   20.5692   18.4571   25.6578 H   0  0  0  0  0  0  0  0  0  0  0  0
   19.5067   19.2614   27.3668 C   0  0  0  0  0  0  0  0  0  0  0  0
   18.5266   19.6922   27.5886 H   0  0  0  0  0  0  0  0  0  0  0  0
   20.2720   20.0031   27.6109 H   0  0  0  0  0  0  0  0  0  0  0  0
   19.7084   18.0655   28.2747 N   0  3  0  0  0  0  0  0  0  0  0  0
   19.0015   17.3404   28.1138 H   0  0  0  0  0  0  0  0  0  0  0  0
   19.6499   18.3255   29.2655 H   0  0  0  0  0  0  0  0  0  0  0  0
   20.6259   17.6297   28.1339 H   0  0  0  0  0  0  0  0  0  0  0  0
  1  2  1  0  0  0  0
  1  3  1  0  0  0  0
  1  4  1  0  0  0  0
  1  5  1  0  0  0  0
  5  6  1  0  0  0  0
  5  7  1  0  0  0  0
  5  8  1  0  0  0  0
  8  9  1  0  0  0  0
  8 10  1  0  0  0  0
  8 11  1  0  0  0  0
 11 12  1  0  0  0  0
 11 13  1  0  0  0  0
 11 14  1  0  0  0  0
 14 15  1  0  0  0  0
 14 16  1  0  0  0  0
 14 17  1  0  0  0  0
 17 18  1  0  0  0  0
 17 19  1  0  0  0  0
 17 20  1  0  0  0  0
 20 21  1  0  0  0  0
 20 22  1  0  0  0  0
 20 23  1  0  0  0  0
 23 24  1  0  0  0  0
 23 25  1  0  0  0  0
 23 26  1  0  0  0  0
 26 27  1  0  0  0  0
 26 28  1  0  0  0  0
 26 29  1  0  0  0  0
M  END
> <VM2 Rank>
270

> <Conf_Id>
1954

> <Probability>
0.01

> <Sum Probability>
99.61

> <Delta G>
4.006

> <G>
62.154

> <E>
24.509

> <-TS>
37.645

> <U+W>
0.365

> <U>
51.963

> <W>
-51.598

> <W(PB)>
-54.096

> <W(SA)>
2.497

> <Valence>
6.066

> <Coulomb>
44.963

> <VdW>
0.934

> <VdW6>
-9.161

> <VdW12>
10.095

> <Bond>
0.266

> <Angle>
1.416

> <Pdih>
4.384

> <Idih>
0.000

> <Tether>
0.000

$$$$
VeraChem MOL file


 29 28  0  0  0  0  0  0  0  0999 V2000     
   20.3552   18.1460   20.2592 C   0  0  0  0  0  0  0  0  0  0  0  0
   21.3305   17.9384   19.8004 H   0  0  0  0  0  0  0  0  0  0  0  0
   20.2125   17.4269   21.0731 H   0  0  0  0  0  0  0  0  0  0  0  0
   19.5838   17.9567   19.5015 H   0  0  0  0  0  0  0  0  0  0  0  0
   20.2928   19.6090   20.7565 C   0  0  0  0  0  0  0  0  0  0  0  0
   20.4801   20.2663   19.8959 H   0  0  0  0  0  0  0  0  0  0  0  0
   21.1060   19.8050   21.4692 H   0  0  0  0  0  0  0  0  0  0  0  0
   18.9259   19.9919   21.3802 C   0  0  0  0  0  0  0  0  0  0  0  0
   18.7225   21.0437   21.1355 H   0  0  0  0  0  0  0  0  0  0  0  0
   18.1175   19.4171   20.9077 H   0  0  0  0  0  0  0  0  0  0  0  0
   18.8515   19.8508   22.9224 C   0  0  0  0  0  0  0  0  0  0  0  0
   17.8744   20.2269   23.2552 H   0  0  0  0  0  0  0  0  0  0  0  0
   19.6052   20.5068   23.3775 H   0  0  0  0  0  0  0  0  0  0  0  0
   19.0355   18.4029   23.4385 C   0  0  0  0  0  0  0  0  0  0  0  0
   18.3892   17.7297   22.8587 H   0  0  0  0  0  0  0  0  0  0  0  0
   20.0690   18.0755   23.2664 H   0  0  0  0  0  0  0  0  0  0  0  0
   18.6976   18.2370   24.9403 C   0  0  0  0  0  0  0  0  0  0  0  0
   18.7606   17.1703   25.1966 H   0  0  0  0  0  0  0  0  0  0  0  0
   17.6553   18.5358   25.1188 H   0  0  0  0  0  0  0  0  0  0  0  0
   19.6360   19.0353   25.8754 C   0  0  0  0  0  0  0  0  0  0  0  0
   20.6807   18.7703   25.6648 H   0  0  0  0  0  0  0  0  0  0  0  0
   19.5302   20.1112   25.6876 H   0  0  0  0  0  0  0  0  0  0  0  0
   19.3250   18.7516   27.3554 C   0  0  0  0  0  0  0  0  0  0  0  0
   19.4456   17.6842   27.5590 H   0  0  0  0  0  0  0  0  0  0  0  0
   18.2903   19.0291   27.5739 H   0  0  0  0  0  0  0  0  0  0  0  0
   20.2245   19.5135   28.3071 N   0  3  0  0  0  0  0  0  0  0  0  0
   21.2127   19.2763   28.1707 H   0  0  0  0  0  0  0  0  0  0  0  0
   20.0008   19.3099   29.2875 H   0  0  0  0  0  0  0  0  0  0  0  0
   20.1374   20.5279   28.1853 H   0  0  0  0  0  0  0  0  0  0  0  0
  1  2  1  0  0  0  0
  1  3  1  0  0  0  0
  1  4  1  0  0  0  0
  1  5  1  0  0  0  0
  5  6  1  0  0  0  0
  5  7  1  0  0  0  0
  5  8  1  0  0  0  0
  8  9  1  0  0  0  0
  8 10  1  0  0  0  0
  8 11  1  0  0  0  0
 11 12  1  0  0  0  0
 11 13  1  0  0  0  0
 11 14  1  0  0  0  0
 14 15  1  0  0  0  0
 14 16  1  0  0  0  0
 14 17  1  0  0  0  0
 17 18  1  0  0  0  0
 17 19  1  0  0  0  0
 17 20  1  0  0  0  0
 20 21  1  0  0  0  0
 20 22  1  0  0  0  0
 20 23  1  0  0  0  0
 23 24  1  0  0  0  0
 23 25  1  0  0  0  0
 23 26  1  0  0  0  0
 26 27  1  0  0  0  0
 26 28  1  0  0  0  0
 26 29  1  0  0  0  0
M  END
> <VM2 Rank>
271

> <Conf_Id>
2324

> <Probability>
0.01

> <Sum Probability>
99.61

> <Delta G>
4.015

> <G>
62.163

> <E>
24.518

> <-TS>
37.645

> <U+W>
0.373

> <U>
51.963

> <W>
-51.590

> <W(PB)>
-54.078

> <W(SA)>
2.488

> <Valence>
6.067

> <Coulomb>
44.963

> <VdW>
0.933

> <VdW6>
-9.161

> <VdW12>
10.094

> <Bond>
0.266

> <Angle>
1.416

> <Pdih>
4.384

> <Idih>
0.000

> <Tether>
0.000

$$$$
VeraChem MOL file


 29 28  0  0  0  0  0  0  0  0999 V2000     
   21.2064   18.6725   21.1920 C   0  0  0  0  0  0  0  0  0  0  0  0
   21.2796   18.2429   22.1989 H   0  0  0  0  0  0  0  0  0  0  0  0
   21.6424   17.9486   20.4915 H   0  0  0  0  0  0  0  0  0  0  0  0
   21.8193   19.5825   21.1602 H   0  0  0  0  0  0  0  0  0  0  0  0
   19.7398   18.9774   20.8120 C   0  0  0  0  0  0  0  0  0  0  0  0
   19.1427   18.0576   20.8723 H   0  0  0  0  0  0  0  0  0  0  0  0
   19.7050   19.2903   19.7592 H   0  0  0  0  0  0  0  0  0  0  0  0
   19.0972   20.0902   21.6787 C   0  0  0  0  0  0  0  0  0  0  0  0
   19.6444   21.0288   21.5154 H   0  0  0  0  0  0  0  0  0  0  0  0
   18.0748   20.2722   21.3201 H   0  0  0  0  0  0  0  0  0  0  0  0
   19.0533   19.7976   23.2005 C   0  0  0  0  0  0  0  0  0  0  0  0
   18.5895   20.6558   23.7057 H   0  0  0  0  0  0  0  0  0  0  0  0
   20.0783   19.7271   23.5839 H   0  0  0  0  0  0  0  0  0  0  0  0
   18.2665   18.5122   23.5554 C   0  0  0  0  0  0  0  0  0  0  0  0
   17.3096   18.5206   23.0155 H   0  0  0  0  0  0  0  0  0  0  0  0
   18.8145   17.6315   23.1950 H   0  0  0  0  0  0  0  0  0  0  0  0
   17.9679   18.3388   25.0670 C   0  0  0  0  0  0  0  0  0  0  0  0
   17.3599   17.4308   25.1820 H   0  0  0  0  0  0  0  0  0  0  0  0
   17.3390   19.1653   25.4259 H   0  0  0  0  0  0  0  0  0  0  0  0
   19.2216   18.1955   25.9662 C   0  0  0  0  0  0  0  0  0  0  0  0
   18.9469   17.6170   26.8583 H   0  0  0  0  0  0  0  0  0  0  0  0
   19.9949   17.6149   25.4458 H   0  0  0  0  0  0  0  0  0  0  0  0
   19.7909   19.5498   26.4315 C   0  0  0  0  0  0  0  0  0  0  0  0
   19.0241   20.0981   26.9852 H   0  0  0  0  0  0  0  0  0  0  0  0
   20.0868   20.1527   25.5712 H   0  0  0  0  0  0  0  0  0  0  0  0
   21.0005   19.4040   27.3317 N   0  3  0  0  0  0  0  0  0  0  0  0
   20.7821   18.8721   28.1808 H   0  0  0  0  0  0  0  0  0  0  0  0
   21.3621   20.3150   27.6348 H   0  0  0  0  0  0  0  0  0  0  0  0
   21.7707   18.9179   26.8608 H   0  0  0  0  0  0  0  0  0  0  0  0
  1  2  1  0  0  0  0
  1  3  1  0  0  0  0
  1  4  1  0  0  0  0
  1  5  1  0  0  0  0
  5  6  1  0  0  0  0
  5  7  1  0  0  0  0
  5  8  1  0  0  0  0
  8  9  1  0  0  0  0
  8 10  1  0  0  0  0
  8 11  1  0  0  0  0
 11 12  1  0  0  0  0
 11 13  1  0  0  0  0
 11 14  1  0  0  0  0
 14 15  1  0  0  0  0
 14 16  1  0  0  0  0
 14 17  1  0  0  0  0
 17 18  1  0  0  0  0
 17 19  1  0  0  0  0
 17 20  1  0  0  0  0
 20 21  1  0  0  0  0
 20 22  1  0  0  0  0
 20 23  1  0  0  0  0
 23 24  1  0  0  0  0
 23 25  1  0  0  0  0
 23 26  1  0  0  0  0
 26 27  1  0  0  0  0
 26 28  1  0  0  0  0
 26 29  1  0  0  0  0
M  END
> <VM2 Rank>
272

> <Conf_Id>
976

> <Probability>
0.01

> <Sum Probability>
99.62

> <Delta G>
4.029

> <G>
62.177

> <E>
24.218

> <-TS>
37.959

> <U+W>
0.074

> <U>
52.537

> <W>
-52.463

> <W(PB)>
-54.907

> <W(SA)>
2.444

> <Valence>
5.863

> <Coulomb>
45.962

> <VdW>
0.712

> <VdW6>
-10.331

> <VdW12>
11.043

> <Bond>
0.291

> <Angle>
1.697

> <Pdih>
3.875

> <Idih>
0.000

> <Tether>
0.000

$$$$
VeraChem MOL file


 29 28  0  0  0  0  0  0  0  0999 V2000     
   21.4499   18.6423   20.7923 C   0  0  0  0  0  0  0  0  0  0  0  0
   21.8289   19.0243   19.8355 H   0  0  0  0  0  0  0  0  0  0  0  0
   22.1993   18.8626   21.5638 H   0  0  0  0  0  0  0  0  0  0  0  0
   21.3574   17.5517   20.7069 H   0  0  0  0  0  0  0  0  0  0  0  0
   20.0917   19.2887   21.1375 C   0  0  0  0  0  0  0  0  0  0  0  0
   19.3737   19.0808   20.3317 H   0  0  0  0  0  0  0  0  0  0  0  0
   20.2090   20.3805   21.1840 H   0  0  0  0  0  0  0  0  0  0  0  0
   19.5353   18.7668   22.4804 C   0  0  0  0  0  0  0  0  0  0  0  0
   19.4183   17.6757   22.4257 H   0  0  0  0  0  0  0  0  0  0  0  0
   20.2677   18.9653   23.2703 H   0  0  0  0  0  0  0  0  0  0  0  0
   18.1725   19.4145   22.8273 C   0  0  0  0  0  0  0  0  0  0  0  0
   17.4749   19.1983   22.0063 H   0  0  0  0  0  0  0  0  0  0  0  0
   18.2668   20.5085   22.8640 H   0  0  0  0  0  0  0  0  0  0  0  0
   17.5467   18.8889   24.1459 C   0  0  0  0  0  0  0  0  0  0  0  0
   16.4554   18.8781   24.0185 H   0  0  0  0  0  0  0  0  0  0  0  0
   17.8285   17.8409   24.3143 H   0  0  0  0  0  0  0  0  0  0  0  0
   17.8522   19.7490   25.4020 C   0  0  0  0  0  0  0  0  0  0  0  0
   17.2761   19.3478   26.2473 H   0  0  0  0  0  0  0  0  0  0  0  0
   17.4736   20.7675   25.2395 H   0  0  0  0  0  0  0  0  0  0  0  0
   19.3412   19.8288   25.8145 C   0  0  0  0  0  0  0  0  0  0  0  0
   19.9186   20.3425   25.0361 H   0  0  0  0  0  0  0  0  0  0  0  0
   19.4244   20.4509   26.7155 H   0  0  0  0  0  0  0  0  0  0  0  0
   19.9509   18.4448   26.1054 C   0  0  0  0  0  0  0  0  0  0  0  0
   19.8914   17.8189   25.2114 H   0  0  0  0  0  0  0  0  0  0  0  0
   19.3881   17.9562   26.9053 H   0  0  0  0  0  0  0  0  0  0  0  0
   21.4035   18.5143   26.5297 N   0  3  0  0  0  0  0  0  0  0  0  0
   21.9928   18.9428   25.8086 H   0  0  0  0  0  0  0  0  0  0  0  0
   21.7899   17.5828   26.7183 H   0  0  0  0  0  0  0  0  0  0  0  0
   21.5241   19.0660   27.3856 H   0  0  0  0  0  0  0  0  0  0  0  0
  1  2  1  0  0  0  0
  1  3  1  0  0  0  0
  1  4  1  0  0  0  0
  1  5  1  0  0  0  0
  5  6  1  0  0  0  0
  5  7  1  0  0  0  0
  5  8  1  0  0  0  0
  8  9  1  0  0  0  0
  8 10  1  0  0  0  0
  8 11  1  0  0  0  0
 11 12  1  0  0  0  0
 11 13  1  0  0  0  0
 11 14  1  0  0  0  0
 14 15  1  0  0  0  0
 14 16  1  0  0  0  0
 14 17  1  0  0  0  0
 17 18  1  0  0  0  0
 17 19  1  0  0  0  0
 17 20  1  0  0  0  0
 20 21  1  0  0  0  0
 20 22  1  0  0  0  0
 20 23  1  0  0  0  0
 23 24  1  0  0  0  0
 23 25  1  0  0  0  0
 23 26  1  0  0  0  0
 26 27  1  0  0  0  0
 26 28  1  0  0  0  0
 26 29  1  0  0  0  0
M  END
> <VM2 Rank>
273

> <Conf_Id>
2307

> <Probability>
0.01

> <Sum Probability>
99.63

> <Delta G>
4.049

> <G>
62.197

> <E>
24.263

> <-TS>
37.933

> <U+W>
0.119

> <U>
52.874

> <W>
-52.755

> <W(PB)>
-55.191

> <W(SA)>
2.436

> <Valence>
5.909

> <Coulomb>
46.598

> <VdW>
0.368

> <VdW6>
-9.909

> <VdW12>
10.277

> <Bond>
0.262

> <Angle>
1.571

> <Pdih>
4.076

> <Idih>
0.000

> <Tether>
0.000

$$$$
VeraChem MOL file


 29 28  0  0  0  0  0  0  0  0999 V2000     
   20.4372   18.6615   19.7942 C   0  0  0  0  0  0  0  0  0  0  0  0
   21.1735   19.4084   20.1154 H   0  0  0  0  0  0  0  0  0  0  0  0
   20.8313   17.6648   20.0316 H   0  0  0  0  0  0  0  0  0  0  0  0
   20.3478   18.7357   18.7027 H   0  0  0  0  0  0  0  0  0  0  0  0
   19.0640   18.8906   20.4655 C   0  0  0  0  0  0  0  0  0  0  0  0
   18.3336   18.2026   20.0171 H   0  0  0  0  0  0  0  0  0  0  0  0
   18.7073   19.9057   20.2420 H   0  0  0  0  0  0  0  0  0  0  0  0
   19.0797   18.6663   21.9969 C   0  0  0  0  0  0  0  0  0  0  0  0
   18.0444   18.7179   22.3577 H   0  0  0  0  0  0  0  0  0  0  0  0
   19.4342   17.6496   22.2149 H   0  0  0  0  0  0  0  0  0  0  0  0
   19.9463   19.6984   22.7624 C   0  0  0  0  0  0  0  0  0  0  0  0
   19.5920   20.7150   22.5434 H   0  0  0  0  0  0  0  0  0  0  0  0
   20.9811   19.6474   22.4002 H   0  0  0  0  0  0  0  0  0  0  0  0
   19.9637   19.4735   24.2944 C   0  0  0  0  0  0  0  0  0  0  0  0
   20.3327   18.4606   24.4981 H   0  0  0  0  0  0  0  0  0  0  0  0
   20.6856   20.1726   24.7387 H   0  0  0  0  0  0  0  0  0  0  0  0
   18.5813   19.6783   24.9630 C   0  0  0  0  0  0  0  0  0  0  0  0
   17.8997   18.8696   24.6679 H   0  0  0  0  0  0  0  0  0  0  0  0
   18.1377   20.6095   24.5843 H   0  0  0  0  0  0  0  0  0  0  0  0
   18.6268   19.7602   26.5102 C   0  0  0  0  0  0  0  0  0  0  0  0
   19.2640   20.5950   26.8311 H   0  0  0  0  0  0  0  0  0  0  0  0
   17.6154   19.9996   26.8645 H   0  0  0  0  0  0  0  0  0  0  0  0
   19.0716   18.4572   27.2063 C   0  0  0  0  0  0  0  0  0  0  0  0
   18.6149   17.5968   26.7099 H   0  0  0  0  0  0  0  0  0  0  0  0
   18.7273   18.4724   28.2439 H   0  0  0  0  0  0  0  0  0  0  0  0
   20.5733   18.2520   27.2421 N   0  3  0  0  0  0  0  0  0  0  0  0
   20.9736   18.2182   26.3003 H   0  0  0  0  0  0  0  0  0  0  0  0
   20.8262   17.3753   27.7113 H   0  0  0  0  0  0  0  0  0  0  0  0
   21.0471   19.0087   27.7463 H   0  0  0  0  0  0  0  0  0  0  0  0
  1  2  1  0  0  0  0
  1  3  1  0  0  0  0
  1  4  1  0  0  0  0
  1  5  1  0  0  0  0
  5  6  1  0  0  0  0
  5  7  1  0  0  0  0
  5  8  1  0  0  0  0
  8  9  1  0  0  0  0
  8 10  1  0  0  0  0
  8 11  1  0  0  0  0
 11 12  1  0  0  0  0
 11 13  1  0  0  0  0
 11 14  1  0  0  0  0
 14 15  1  0  0  0  0
 14 16  1  0  0  0  0
 14 17  1  0  0  0  0
 17 18  1  0  0  0  0
 17 19  1  0  0  0  0
 17 20  1  0  0  0  0
 20 21  1  0  0  0  0
 20 22  1  0  0  0  0
 20 23  1  0  0  0  0
 23 24  1  0  0  0  0
 23 25  1  0  0  0  0
 23 26  1  0  0  0  0
 26 27  1  0  0  0  0
 26 28  1  0  0  0  0
 26 29  1  0  0  0  0
M  END
> <VM2 Rank>
274

> <Conf_Id>
513

> <Probability>
0.01

> <Sum Probability>
99.63

> <Delta G>
4.051

> <G>
62.199

> <E>
24.645

> <-TS>
37.554

> <U+W>
0.501

> <U>
52.537

> <W>
-52.036

> <W(PB)>
-54.494

> <W(SA)>
2.458

> <Valence>
5.216

> <Coulomb>
46.351

> <VdW>
0.970

> <VdW6>
-9.713

> <VdW12>
10.682

> <Bond>
0.284

> <Angle>
1.429

> <Pdih>
3.503

> <Idih>
0.000

> <Tether>
0.000

$$$$
VeraChem MOL file


 29 28  0  0  0  0  0  0  0  0999 V2000     
   21.3147   18.2628   20.7840 C   0  0  0  0  0  0  0  0  0  0  0  0
   21.3803   17.7651   19.8078 H   0  0  0  0  0  0  0  0  0  0  0  0
   21.9335   19.1687   20.7428 H   0  0  0  0  0  0  0  0  0  0  0  0
   21.7453   17.5884   21.5357 H   0  0  0  0  0  0  0  0  0  0  0  0
   19.8489   18.6074   21.1225 C   0  0  0  0  0  0  0  0  0  0  0  0
   19.2491   17.6865   21.1244 H   0  0  0  0  0  0  0  0  0  0  0  0
   19.4353   19.2537   20.3357 H   0  0  0  0  0  0  0  0  0  0  0  0
   19.7289   19.3102   22.4925 C   0  0  0  0  0  0  0  0  0  0  0  0
   20.1597   18.6625   23.2637 H   0  0  0  0  0  0  0  0  0  0  0  0
   20.3287   20.2307   22.4825 H   0  0  0  0  0  0  0  0  0  0  0  0
   18.2588   19.6567   22.8328 C   0  0  0  0  0  0  0  0  0  0  0  0
   17.6398   18.7491   22.8249 H   0  0  0  0  0  0  0  0  0  0  0  0
   17.8666   20.2974   22.0308 H   0  0  0  0  0  0  0  0  0  0  0  0
   18.0877   20.4069   24.1798 C   0  0  0  0  0  0  0  0  0  0  0  0
   18.9663   21.0330   24.3855 H   0  0  0  0  0  0  0  0  0  0  0  0
   17.2510   21.1103   24.0683 H   0  0  0  0  0  0  0  0  0  0  0  0
   17.7629   19.4986   25.3964 C   0  0  0  0  0  0  0  0  0  0  0  0
   16.8279   18.9564   25.1992 H   0  0  0  0  0  0  0  0  0  0  0  0
   17.5585   20.1398   26.2650 H   0  0  0  0  0  0  0  0  0  0  0  0
   18.8600   18.4790   25.7843 C   0  0  0  0  0  0  0  0  0  0  0  0
   18.5184   17.9093   26.6586 H   0  0  0  0  0  0  0  0  0  0  0  0
   18.9934   17.7473   24.9781 H   0  0  0  0  0  0  0  0  0  0  0  0
   20.2033   19.1527   26.1212 C   0  0  0  0  0  0  0  0  0  0  0  0
   20.0651   19.8548   26.9478 H   0  0  0  0  0  0  0  0  0  0  0  0
   20.5655   19.7103   25.2537 H   0  0  0  0  0  0  0  0  0  0  0  0
   21.2786   18.1637   26.5215 N   0  3  0  0  0  0  0  0  0  0  0  0
   21.0112   17.6264   27.3529 H   0  0  0  0  0  0  0  0  0  0  0  0
   22.1642   18.6326   26.7416 H   0  0  0  0  0  0  0  0  0  0  0  0
   21.4743   17.4883   25.7755 H   0  0  0  0  0  0  0  0  0  0  0  0
  1  2  1  0  0  0  0
  1  3  1  0  0  0  0
  1  4  1  0  0  0  0
  1  5  1  0  0  0  0
  5  6  1  0  0  0  0
  5  7  1  0  0  0  0
  5  8  1  0  0  0  0
  8  9  1  0  0  0  0
  8 10  1  0  0  0  0
  8 11  1  0  0  0  0
 11 12  1  0  0  0  0
 11 13  1  0  0  0  0
 11 14  1  0  0  0  0
 14 15  1  0  0  0  0
 14 16  1  0  0  0  0
 14 17  1  0  0  0  0
 17 18  1  0  0  0  0
 17 19  1  0  0  0  0
 17 20  1  0  0  0  0
 20 21  1  0  0  0  0
 20 22  1  0  0  0  0
 20 23  1  0  0  0  0
 23 24  1  0  0  0  0
 23 25  1  0  0  0  0
 23 26  1  0  0  0  0
 26 27  1  0  0  0  0
 26 28  1  0  0  0  0
 26 29  1  0  0  0  0
M  END
> <VM2 Rank>
275

> <Conf_Id>
1035

> <Probability>
0.01

> <Sum Probability>
99.64

> <Delta G>
4.062

> <G>
62.210

> <E>
24.276

> <-TS>
37.934

> <U+W>
0.132

> <U>
52.875

> <W>
-52.743

> <W(PB)>
-55.189

> <W(SA)>
2.446

> <Valence>
5.909

> <Coulomb>
46.598

> <VdW>
0.368

> <VdW6>
-9.910

> <VdW12>
10.278

> <Bond>
0.262

> <Angle>
1.570

> <Pdih>
4.076

> <Idih>
0.000

> <Tether>
0.000

$$$$
VeraChem MOL file


 29 28  0  0  0  0  0  0  0  0999 V2000     
   21.0691   18.1517   21.0227 C   0  0  0  0  0  0  0  0  0  0  0  0
   21.8124   18.4338   21.7797 H   0  0  0  0  0  0  0  0  0  0  0  0
   20.5408   17.2575   21.3756 H   0  0  0  0  0  0  0  0  0  0  0  0
   21.6095   17.8757   20.1080 H   0  0  0  0  0  0  0  0  0  0  0  0
   20.0920   19.3160   20.7425 C   0  0  0  0  0  0  0  0  0  0  0  0
   19.3407   19.0004   20.0052 H   0  0  0  0  0  0  0  0  0  0  0  0
   20.6500   20.1415   20.2790 H   0  0  0  0  0  0  0  0  0  0  0  0
   19.3887   19.8456   22.0152 C   0  0  0  0  0  0  0  0  0  0  0  0
   20.1476   20.1680   22.7375 H   0  0  0  0  0  0  0  0  0  0  0  0
   18.8209   20.7473   21.7474 H   0  0  0  0  0  0  0  0  0  0  0  0
   18.4212   18.8171   22.6559 C   0  0  0  0  0  0  0  0  0  0  0  0
   18.9525   17.8969   22.9308 H   0  0  0  0  0  0  0  0  0  0  0  0
   17.6821   18.5260   21.8968 H   0  0  0  0  0  0  0  0  0  0  0  0
   17.6634   19.3708   23.8908 C   0  0  0  0  0  0  0  0  0  0  0  0
   17.5276   20.4573   23.8010 H   0  0  0  0  0  0  0  0  0  0  0  0
   16.6502   18.9456   23.8888 H   0  0  0  0  0  0  0  0  0  0  0  0
   18.3109   19.0249   25.2565 C   0  0  0  0  0  0  0  0  0  0  0  0
   18.3362   17.9334   25.3754 H   0  0  0  0  0  0  0  0  0  0  0  0
   17.6578   19.4058   26.0539 H   0  0  0  0  0  0  0  0  0  0  0  0
   19.7324   19.6047   25.4526 C   0  0  0  0  0  0  0  0  0  0  0  0
   20.4357   19.1251   24.7603 H   0  0  0  0  0  0  0  0  0  0  0  0
   19.7259   20.6764   25.2138 H   0  0  0  0  0  0  0  0  0  0  0  0
   20.2493   19.4281   26.8931 C   0  0  0  0  0  0  0  0  0  0  0  0
   19.5563   19.9019   27.5935 H   0  0  0  0  0  0  0  0  0  0  0  0
   21.2225   19.9166   26.9925 H   0  0  0  0  0  0  0  0  0  0  0  0
   20.4170   17.9790   27.3058 N   0  3  0  0  0  0  0  0  0  0  0  0
   21.0780   17.4844   26.6978 H   0  0  0  0  0  0  0  0  0  0  0  0
   19.5288   17.4693   27.2669 H   0  0  0  0  0  0  0  0  0  0  0  0
   20.7706   17.8949   28.2652 H   0  0  0  0  0  0  0  0  0  0  0  0
  1  2  1  0  0  0  0
  1  3  1  0  0  0  0
  1  4  1  0  0  0  0
  1  5  1  0  0  0  0
  5  6  1  0  0  0  0
  5  7  1  0  0  0  0
  5  8  1  0  0  0  0
  8  9  1  0  0  0  0
  8 10  1  0  0  0  0
  8 11  1  0  0  0  0
 11 12  1  0  0  0  0
 11 13  1  0  0  0  0
 11 14  1  0  0  0  0
 14 15  1  0  0  0  0
 14 16  1  0  0  0  0
 14 17  1  0  0  0  0
 17 18  1  0  0  0  0
 17 19  1  0  0  0  0
 17 20  1  0  0  0  0
 20 21  1  0  0  0  0
 20 22  1  0  0  0  0
 20 23  1  0  0  0  0
 23 24  1  0  0  0  0
 23 25  1  0  0  0  0
 23 26  1  0  0  0  0
 26 27  1  0  0  0  0
 26 28  1  0  0  0  0
 26 29  1  0  0  0  0
M  END
> <VM2 Rank>
276

> <Conf_Id>
1056

> <Probability>
0.01

> <Sum Probability>
99.64

> <Delta G>
4.063

> <G>
62.211

> <E>
24.463

> <-TS>
37.748

> <U+W>
0.318

> <U>
52.709

> <W>
-52.390

> <W(PB)>
-54.817

> <W(SA)>
2.427

> <Valence>
6.186

> <Coulomb>
45.601

> <VdW>
0.922

> <VdW6>
-9.883

> <VdW12>
10.805

> <Bond>
0.292

> <Angle>
1.417

> <Pdih>
4.477

> <Idih>
0.000

> <Tether>
0.000

$$$$
VeraChem MOL file


 29 28  0  0  0  0  0  0  0  0999 V2000     
   19.3568   20.2000   20.2867 C   0  0  0  0  0  0  0  0  0  0  0  0
   20.4205   20.4693   20.3173 H   0  0  0  0  0  0  0  0  0  0  0  0
   18.9286   20.6262   19.3703 H   0  0  0  0  0  0  0  0  0  0  0  0
   18.8511   20.6748   21.1367 H   0  0  0  0  0  0  0  0  0  0  0  0
   19.1696   18.6674   20.3078 C   0  0  0  0  0  0  0  0  0  0  0  0
   19.5542   18.2524   19.3656 H   0  0  0  0  0  0  0  0  0  0  0  0
   18.0964   18.4318   20.3283 H   0  0  0  0  0  0  0  0  0  0  0  0
   19.8800   17.9538   21.4863 C   0  0  0  0  0  0  0  0  0  0  0  0
   19.7194   16.8738   21.3636 H   0  0  0  0  0  0  0  0  0  0  0  0
   20.9667   18.1012   21.4179 H   0  0  0  0  0  0  0  0  0  0  0  0
   19.3685   18.3621   22.8923 C   0  0  0  0  0  0  0  0  0  0  0  0
   19.3821   17.4697   23.5315 H   0  0  0  0  0  0  0  0  0  0  0  0
   18.3185   18.6799   22.8326 H   0  0  0  0  0  0  0  0  0  0  0  0
   20.2303   19.4632   23.5620 C   0  0  0  0  0  0  0  0  0  0  0  0
   21.2450   19.0796   23.7357 H   0  0  0  0  0  0  0  0  0  0  0  0
   20.3425   20.3150   22.8809 H   0  0  0  0  0  0  0  0  0  0  0  0
   19.6399   19.9829   24.8958 C   0  0  0  0  0  0  0  0  0  0  0  0
   18.6342   20.3891   24.7191 H   0  0  0  0  0  0  0  0  0  0  0  0
   20.2550   20.8240   25.2448 H   0  0  0  0  0  0  0  0  0  0  0  0
   19.5803   18.9094   26.0076 C   0  0  0  0  0  0  0  0  0  0  0  0
   18.9027   18.0980   25.7136 H   0  0  0  0  0  0  0  0  0  0  0  0
   20.5754   18.4669   26.1482 H   0  0  0  0  0  0  0  0  0  0  0  0
   19.0949   19.5091   27.3389 C   0  0  0  0  0  0  0  0  0  0  0  0
   18.0972   19.9368   27.2080 H   0  0  0  0  0  0  0  0  0  0  0  0
   19.7733   20.3072   27.6524 H   0  0  0  0  0  0  0  0  0  0  0  0
   19.0237   18.4899   28.4576 N   0  3  0  0  0  0  0  0  0  0  0  0
   18.3788   17.7241   28.2361 H   0  0  0  0  0  0  0  0  0  0  0  0
   18.6987   18.9101   29.3354 H   0  0  0  0  0  0  0  0  0  0  0  0
   19.9388   18.0686   28.6489 H   0  0  0  0  0  0  0  0  0  0  0  0
  1  2  1  0  0  0  0
  1  3  1  0  0  0  0
  1  4  1  0  0  0  0
  1  5  1  0  0  0  0
  5  6  1  0  0  0  0
  5  7  1  0  0  0  0
  5  8  1  0  0  0  0
  8  9  1  0  0  0  0
  8 10  1  0  0  0  0
  8 11  1  0  0  0  0
 11 12  1  0  0  0  0
 11 13  1  0  0  0  0
 11 14  1  0  0  0  0
 14 15  1  0  0  0  0
 14 16  1  0  0  0  0
 14 17  1  0  0  0  0
 17 18  1  0  0  0  0
 17 19  1  0  0  0  0
 17 20  1  0  0  0  0
 20 21  1  0  0  0  0
 20 22  1  0  0  0  0
 20 23  1  0  0  0  0
 23 24  1  0  0  0  0
 23 25  1  0  0  0  0
 23 26  1  0  0  0  0
 26 27  1  0  0  0  0
 26 28  1  0  0  0  0
 26 29  1  0  0  0  0
M  END
> <VM2 Rank>
277

> <Conf_Id>
1288

> <Probability>
0.01

> <Sum Probability>
99.65

> <Delta G>
4.092

> <G>
62.240

> <E>
24.559

> <-TS>
37.681

> <U+W>
0.415

> <U>
51.971

> <W>
-51.557

> <W(PB)>
-54.039

> <W(SA)>
2.482

> <Valence>
6.137

> <Coulomb>
44.875

> <VdW>
0.960

> <VdW6>
-9.150

> <VdW12>
10.110

> <Bond>
0.271

> <Angle>
1.364

> <Pdih>
4.502

> <Idih>
0.000

> <Tether>
0.000

$$$$
VeraChem MOL file


 29 28  0  0  0  0  0  0  0  0999 V2000     
   19.5303   18.4261   19.8284 C   0  0  0  0  0  0  0  0  0  0  0  0
   18.5360   18.8853   19.8917 H   0  0  0  0  0  0  0  0  0  0  0  0
   20.2304   19.1733   19.4327 H   0  0  0  0  0  0  0  0  0  0  0  0
   19.4690   17.6054   19.1020 H   0  0  0  0  0  0  0  0  0  0  0  0
   19.9998   17.8979   21.2028 C   0  0  0  0  0  0  0  0  0  0  0  0
   20.9382   17.3423   21.0669 H   0  0  0  0  0  0  0  0  0  0  0  0
   19.2680   17.1754   21.5903 H   0  0  0  0  0  0  0  0  0  0  0  0
   20.2318   19.0171   22.2461 C   0  0  0  0  0  0  0  0  0  0  0  0
   20.6695   18.5656   23.1442 H   0  0  0  0  0  0  0  0  0  0  0  0
   20.9837   19.7213   21.8642 H   0  0  0  0  0  0  0  0  0  0  0  0
   18.9401   19.7908   22.6159 C   0  0  0  0  0  0  0  0  0  0  0  0
   18.1328   19.0907   22.8708 H   0  0  0  0  0  0  0  0  0  0  0  0
   18.5978   20.3406   21.7293 H   0  0  0  0  0  0  0  0  0  0  0  0
   19.1440   20.8107   23.7664 C   0  0  0  0  0  0  0  0  0  0  0  0
   20.1824   21.1696   23.7784 H   0  0  0  0  0  0  0  0  0  0  0  0
   18.5281   21.6953   23.5528 H   0  0  0  0  0  0  0  0  0  0  0  0
   18.7418   20.2908   25.1708 C   0  0  0  0  0  0  0  0  0  0  0  0
   17.6733   20.0344   25.1724 H   0  0  0  0  0  0  0  0  0  0  0  0
   18.8594   21.1133   25.8901 H   0  0  0  0  0  0  0  0  0  0  0  0
   19.5615   19.0758   25.6608 C   0  0  0  0  0  0  0  0  0  0  0  0
   19.3643   18.2091   25.0174 H   0  0  0  0  0  0  0  0  0  0  0  0
   20.6341   19.3006   25.5929 H   0  0  0  0  0  0  0  0  0  0  0  0
   19.2068   18.7093   27.1124 C   0  0  0  0  0  0  0  0  0  0  0  0
   18.1421   18.4705   27.1822 H   0  0  0  0  0  0  0  0  0  0  0  0
   19.4126   19.5599   27.7678 H   0  0  0  0  0  0  0  0  0  0  0  0
   19.9880   17.5196   27.6315 N   0  3  0  0  0  0  0  0  0  0  0  0
   19.8164   16.6769   27.0731 H   0  0  0  0  0  0  0  0  0  0  0  0
   19.7368   17.2926   28.6000 H   0  0  0  0  0  0  0  0  0  0  0  0
   20.9988   17.6911   27.6174 H   0  0  0  0  0  0  0  0  0  0  0  0
  1  2  1  0  0  0  0
  1  3  1  0  0  0  0
  1  4  1  0  0  0  0
  1  5  1  0  0  0  0
  5  6  1  0  0  0  0
  5  7  1  0  0  0  0
  5  8  1  0  0  0  0
  8  9  1  0  0  0  0
  8 10  1  0  0  0  0
  8 11  1  0  0  0  0
 11 12  1  0  0  0  0
 11 13  1  0  0  0  0
 11 14  1  0  0  0  0
 14 15  1  0  0  0  0
 14 16  1  0  0  0  0
 14 17  1  0  0  0  0
 17 18  1  0  0  0  0
 17 19  1  0  0  0  0
 17 20  1  0  0  0  0
 20 21  1  0  0  0  0
 20 22  1  0  0  0  0
 20 23  1  0  0  0  0
 23 24  1  0  0  0  0
 23 25  1  0  0  0  0
 23 26  1  0  0  0  0
 26 27  1  0  0  0  0
 26 28  1  0  0  0  0
 26 29  1  0  0  0  0
M  END
> <VM2 Rank>
278

> <Conf_Id>
730

> <Probability>
0.01

> <Sum Probability>
99.65

> <Delta G>
4.093

> <G>
62.241

> <E>
24.526

> <-TS>
37.715

> <U+W>
0.382

> <U>
52.467

> <W>
-52.085

> <W(PB)>
-54.581

> <W(SA)>
2.496

> <Valence>
6.151

> <Coulomb>
45.416

> <VdW>
0.901

> <VdW6>
-9.247

> <VdW12>
10.148

> <Bond>
0.270

> <Angle>
1.359

> <Pdih>
4.521

> <Idih>
0.000

> <Tether>
0.000

$$$$
VeraChem MOL file


 29 28  0  0  0  0  0  0  0  0999 V2000     
   20.5321   18.9280   19.8001 C   0  0  0  0  0  0  0  0  0  0  0  0
   21.4640   19.4408   20.0713 H   0  0  0  0  0  0  0  0  0  0  0  0
   20.6258   17.8718   20.0809 H   0  0  0  0  0  0  0  0  0  0  0  0
   20.4313   18.9704   18.7079 H   0  0  0  0  0  0  0  0  0  0  0  0
   19.3139   19.5922   20.4812 C   0  0  0  0  0  0  0  0  0  0  0  0
   18.3990   19.0409   20.2227 H   0  0  0  0  0  0  0  0  0  0  0  0
   19.1891   20.6040   20.0708 H   0  0  0  0  0  0  0  0  0  0  0  0
   19.4462   19.6950   22.0200 C   0  0  0  0  0  0  0  0  0  0  0  0
   20.3604   20.2493   22.2730 H   0  0  0  0  0  0  0  0  0  0  0  0
   18.6063   20.2951   22.3930 H   0  0  0  0  0  0  0  0  0  0  0  0
   19.4547   18.3182   22.7316 C   0  0  0  0  0  0  0  0  0  0  0  0
   20.2940   17.7182   22.3571 H   0  0  0  0  0  0  0  0  0  0  0  0
   18.5409   17.7639   22.4775 H   0  0  0  0  0  0  0  0  0  0  0  0
   19.5887   18.4205   24.2709 C   0  0  0  0  0  0  0  0  0  0  0  0
   19.7002   17.4056   24.6768 H   0  0  0  0  0  0  0  0  0  0  0  0
   20.5118   18.9634   24.5094 H   0  0  0  0  0  0  0  0  0  0  0  0
   18.3785   19.1088   24.9503 C   0  0  0  0  0  0  0  0  0  0  0  0
   17.4518   18.6832   24.5413 H   0  0  0  0  0  0  0  0  0  0  0  0
   18.3654   20.1772   24.6972 H   0  0  0  0  0  0  0  0  0  0  0  0
   18.3403   18.9553   26.4923 C   0  0  0  0  0  0  0  0  0  0  0  0
   17.4001   19.3948   26.8511 H   0  0  0  0  0  0  0  0  0  0  0  0
   18.3022   17.8938   26.7708 H   0  0  0  0  0  0  0  0  0  0  0  0
   19.4983   19.6555   27.2331 C   0  0  0  0  0  0  0  0  0  0  0  0
   19.2072   19.8200   28.2741 H   0  0  0  0  0  0  0  0  0  0  0  0
   19.6947   20.6299   26.7777 H   0  0  0  0  0  0  0  0  0  0  0  0
   20.7914   18.8644   27.2557 N   0  3  0  0  0  0  0  0  0  0  0  0
   20.6736   17.9592   27.7226 H   0  0  0  0  0  0  0  0  0  0  0  0
   21.5345   19.3648   27.7556 H   0  0  0  0  0  0  0  0  0  0  0  0
   21.1362   18.6751   26.3103 H   0  0  0  0  0  0  0  0  0  0  0  0
  1  2  1  0  0  0  0
  1  3  1  0  0  0  0
  1  4  1  0  0  0  0
  1  5  1  0  0  0  0
  5  6  1  0  0  0  0
  5  7  1  0  0  0  0
  5  8  1  0  0  0  0
  8  9  1  0  0  0  0
  8 10  1  0  0  0  0
  8 11  1  0  0  0  0
 11 12  1  0  0  0  0
 11 13  1  0  0  0  0
 11 14  1  0  0  0  0
 14 15  1  0  0  0  0
 14 16  1  0  0  0  0
 14 17  1  0  0  0  0
 17 18  1  0  0  0  0
 17 19  1  0  0  0  0
 17 20  1  0  0  0  0
 20 21  1  0  0  0  0
 20 22  1  0  0  0  0
 20 23  1  0  0  0  0
 23 24  1  0  0  0  0
 23 25  1  0  0  0  0
 23 26  1  0  0  0  0
 26 27  1  0  0  0  0
 26 28  1  0  0  0  0
 26 29  1  0  0  0  0
M  END
> <VM2 Rank>
279

> <Conf_Id>
594

> <Probability>
0.01

> <Sum Probability>
99.66

> <Delta G>
4.093

> <G>
62.241

> <E>
24.688

> <-TS>
37.553

> <U+W>
0.544

> <U>
52.537

> <W>
-51.993

> <W(PB)>
-54.470

> <W(SA)>
2.477

> <Valence>
5.216

> <Coulomb>
46.351

> <VdW>
0.970

> <VdW6>
-9.713

> <VdW12>
10.683

> <Bond>
0.284

> <Angle>
1.430

> <Pdih>
3.502

> <Idih>
0.000

> <Tether>
0.000

$$$$
VeraChem MOL file


 29 28  0  0  0  0  0  0  0  0999 V2000     
   18.2933   17.9622   21.1813 C   0  0  0  0  0  0  0  0  0  0  0  0
   17.9359   18.3784   20.2305 H   0  0  0  0  0  0  0  0  0  0  0  0
   18.0134   16.9013   21.2094 H   0  0  0  0  0  0  0  0  0  0  0  0
   17.7607   18.4676   21.9957 H   0  0  0  0  0  0  0  0  0  0  0  0
   19.8251   18.1219   21.3130 C   0  0  0  0  0  0  0  0  0  0  0  0
   20.3068   17.5359   20.5180 H   0  0  0  0  0  0  0  0  0  0  0  0
   20.1750   17.6842   22.2565 H   0  0  0  0  0  0  0  0  0  0  0  0
   20.3006   19.5905   21.1951 C   0  0  0  0  0  0  0  0  0  0  0  0
   21.3990   19.6081   21.2103 H   0  0  0  0  0  0  0  0  0  0  0  0
   20.0117   19.9726   20.2063 H   0  0  0  0  0  0  0  0  0  0  0  0
   19.7686   20.5693   22.2766 C   0  0  0  0  0  0  0  0  0  0  0  0
   18.6735   20.6369   22.2357 H   0  0  0  0  0  0  0  0  0  0  0  0
   20.1298   21.5721   22.0100 H   0  0  0  0  0  0  0  0  0  0  0  0
   20.2437   20.2650   23.7218 C   0  0  0  0  0  0  0  0  0  0  0  0
   21.2285   19.7784   23.7005 H   0  0  0  0  0  0  0  0  0  0  0  0
   20.3896   21.2209   24.2437 H   0  0  0  0  0  0  0  0  0  0  0  0
   19.2417   19.4182   24.5439 C   0  0  0  0  0  0  0  0  0  0  0  0
   19.0714   18.4493   24.0610 H   0  0  0  0  0  0  0  0  0  0  0  0
   18.2697   19.9299   24.5746 H   0  0  0  0  0  0  0  0  0  0  0  0
   19.7405   19.1813   25.9861 C   0  0  0  0  0  0  0  0  0  0  0  0
   20.7109   18.6677   25.9616 H   0  0  0  0  0  0  0  0  0  0  0  0
   19.8985   20.1460   26.4867 H   0  0  0  0  0  0  0  0  0  0  0  0
   18.7379   18.3422   26.7974 C   0  0  0  0  0  0  0  0  0  0  0  0
   18.5901   17.3739   26.3117 H   0  0  0  0  0  0  0  0  0  0  0  0
   17.7745   18.8576   26.8383 H   0  0  0  0  0  0  0  0  0  0  0  0
   19.1926   18.0873   28.2198 N   0  3  0  0  0  0  0  0  0  0  0  0
   19.3242   18.9607   28.7409 H   0  0  0  0  0  0  0  0  0  0  0  0
   20.0831   17.5799   28.2510 H   0  0  0  0  0  0  0  0  0  0  0  0
   18.5107   17.5269   28.7431 H   0  0  0  0  0  0  0  0  0  0  0  0
  1  2  1  0  0  0  0
  1  3  1  0  0  0  0
  1  4  1  0  0  0  0
  1  5  1  0  0  0  0
  5  6  1  0  0  0  0
  5  7  1  0  0  0  0
  5  8  1  0  0  0  0
  8  9  1  0  0  0  0
  8 10  1  0  0  0  0
  8 11  1  0  0  0  0
 11 12  1  0  0  0  0
 11 13  1  0  0  0  0
 11 14  1  0  0  0  0
 14 15  1  0  0  0  0
 14 16  1  0  0  0  0
 14 17  1  0  0  0  0
 17 18  1  0  0  0  0
 17 19  1  0  0  0  0
 17 20  1  0  0  0  0
 20 21  1  0  0  0  0
 20 22  1  0  0  0  0
 20 23  1  0  0  0  0
 23 24  1  0  0  0  0
 23 25  1  0  0  0  0
 23 26  1  0  0  0  0
 26 27  1  0  0  0  0
 26 28  1  0  0  0  0
 26 29  1  0  0  0  0
M  END
> <VM2 Rank>
280

> <Conf_Id>
1940

> <Probability>
0.01

> <Sum Probability>
99.67

> <Delta G>
4.117

> <G>
62.265

> <E>
24.264

> <-TS>
38.001

> <U+W>
0.120

> <U>
51.870

> <W>
-51.751

> <W(PB)>
-54.197

> <W(SA)>
2.446

> <Valence>
6.196

> <Coulomb>
45.072

> <VdW>
0.602

> <VdW6>
-9.621

> <VdW12>
10.223

> <Bond>
0.275

> <Angle>
1.753

> <Pdih>
4.168

> <Idih>
0.000

> <Tether>
0.000

$$$$
VeraChem MOL file


 29 28  0  0  0  0  0  0  0  0999 V2000     
   19.9778   19.6814   19.8561 C   0  0  0  0  0  0  0  0  0  0  0  0
   20.0541   18.6762   19.4217 H   0  0  0  0  0  0  0  0  0  0  0  0
   18.9161   19.9515   19.9149 H   0  0  0  0  0  0  0  0  0  0  0  0
   20.4591   20.3840   19.1635 H   0  0  0  0  0  0  0  0  0  0  0  0
   20.6558   19.7399   21.2437 C   0  0  0  0  0  0  0  0  0  0  0  0
   20.5394   20.7464   21.6694 H   0  0  0  0  0  0  0  0  0  0  0  0
   21.7360   19.5827   21.1169 H   0  0  0  0  0  0  0  0  0  0  0  0
   20.1137   18.6859   22.2388 C   0  0  0  0  0  0  0  0  0  0  0  0
   20.2569   17.6807   21.8191 H   0  0  0  0  0  0  0  0  0  0  0  0
   20.7254   18.7236   23.1478 H   0  0  0  0  0  0  0  0  0  0  0  0
   18.6187   18.8885   22.5957 C   0  0  0  0  0  0  0  0  0  0  0  0
   18.0185   18.7142   21.6929 H   0  0  0  0  0  0  0  0  0  0  0  0
   18.4317   19.9304   22.8894 H   0  0  0  0  0  0  0  0  0  0  0  0
   18.1159   17.9247   23.7019 C   0  0  0  0  0  0  0  0  0  0  0  0
   17.0827   17.6376   23.4621 H   0  0  0  0  0  0  0  0  0  0  0  0
   18.6936   16.9902   23.6851 H   0  0  0  0  0  0  0  0  0  0  0  0
   18.1129   18.5255   25.1314 C   0  0  0  0  0  0  0  0  0  0  0  0
   17.6740   17.7861   25.8158 H   0  0  0  0  0  0  0  0  0  0  0  0
   17.4470   19.3993   25.1581 H   0  0  0  0  0  0  0  0  0  0  0  0
   19.5090   18.9285   25.6576 C   0  0  0  0  0  0  0  0  0  0  0  0
   20.1990   18.0794   25.5655 H   0  0  0  0  0  0  0  0  0  0  0  0
   19.9130   19.7496   25.0520 H   0  0  0  0  0  0  0  0  0  0  0  0
   19.4452   19.3785   27.1275 C   0  0  0  0  0  0  0  0  0  0  0  0
   19.0579   18.5640   27.7456 H   0  0  0  0  0  0  0  0  0  0  0  0
   18.7701   20.2334   27.2219 H   0  0  0  0  0  0  0  0  0  0  0  0
   20.7951   19.7850   27.6823 N   0  3  0  0  0  0  0  0  0  0  0  0
   20.7302   20.0809   28.6626 H   0  0  0  0  0  0  0  0  0  0  0  0
   21.2026   20.5679   27.1603 H   0  0  0  0  0  0  0  0  0  0  0  0
   21.4702   19.0140   27.6472 H   0  0  0  0  0  0  0  0  0  0  0  0
  1  2  1  0  0  0  0
  1  3  1  0  0  0  0
  1  4  1  0  0  0  0
  1  5  1  0  0  0  0
  5  6  1  0  0  0  0
  5  7  1  0  0  0  0
  5  8  1  0  0  0  0
  8  9  1  0  0  0  0
  8 10  1  0  0  0  0
  8 11  1  0  0  0  0
 11 12  1  0  0  0  0
 11 13  1  0  0  0  0
 11 14  1  0  0  0  0
 14 15  1  0  0  0  0
 14 16  1  0  0  0  0
 14 17  1  0  0  0  0
 17 18  1  0  0  0  0
 17 19  1  0  0  0  0
 17 20  1  0  0  0  0
 20 21  1  0  0  0  0
 20 22  1  0  0  0  0
 20 23  1  0  0  0  0
 23 24  1  0  0  0  0
 23 25  1  0  0  0  0
 23 26  1  0  0  0  0
 26 27  1  0  0  0  0
 26 28  1  0  0  0  0
 26 29  1  0  0  0  0
M  END
> <VM2 Rank>
281

> <Conf_Id>
1450

> <Probability>
0.01

> <Sum Probability>
99.67

> <Delta G>
4.126

> <G>
62.274

> <E>
24.559

> <-TS>
37.715

> <U+W>
0.415

> <U>
52.467

> <W>
-52.052

> <W(PB)>
-54.538

> <W(SA)>
2.486

> <Valence>
6.151

> <Coulomb>
45.416

> <VdW>
0.901

> <VdW6>
-9.247

> <VdW12>
10.147

> <Bond>
0.270

> <Angle>
1.360

> <Pdih>
4.521

> <Idih>
0.000

> <Tether>
0.000

$$$$
VeraChem MOL file


 29 28  0  0  0  0  0  0  0  0999 V2000     
   20.3845   19.2257   19.8650 C   0  0  0  0  0  0  0  0  0  0  0  0
   21.2754   18.6228   20.0838 H   0  0  0  0  0  0  0  0  0  0  0  0
   19.5577   18.5449   19.6283 H   0  0  0  0  0  0  0  0  0  0  0  0
   20.5924   19.8163   18.9634 H   0  0  0  0  0  0  0  0  0  0  0  0
   20.0371   20.1545   21.0506 C   0  0  0  0  0  0  0  0  0  0  0  0
   19.1236   20.7214   20.8225 H   0  0  0  0  0  0  0  0  0  0  0  0
   20.8396   20.8971   21.1618 H   0  0  0  0  0  0  0  0  0  0  0  0
   19.8675   19.4051   22.3943 C   0  0  0  0  0  0  0  0  0  0  0  0
   20.7773   18.8288   22.6110 H   0  0  0  0  0  0  0  0  0  0  0  0
   19.7725   20.1572   23.1878 H   0  0  0  0  0  0  0  0  0  0  0  0
   18.6322   18.4717   22.4294 C   0  0  0  0  0  0  0  0  0  0  0  0
   18.6852   17.7617   21.5945 H   0  0  0  0  0  0  0  0  0  0  0  0
   17.7221   19.0659   22.2689 H   0  0  0  0  0  0  0  0  0  0  0  0
   18.4873   17.6523   23.7379 C   0  0  0  0  0  0  0  0  0  0  0  0
   17.6067   17.0047   23.6259 H   0  0  0  0  0  0  0  0  0  0  0  0
   19.3417   16.9709   23.8521 H   0  0  0  0  0  0  0  0  0  0  0  0
   18.3007   18.5029   25.0214 C   0  0  0  0  0  0  0  0  0  0  0  0
   17.5900   17.9864   25.6816 H   0  0  0  0  0  0  0  0  0  0  0  0
   17.8364   19.4671   24.7722 H   0  0  0  0  0  0  0  0  0  0  0  0
   19.6148   18.7228   25.8086 C   0  0  0  0  0  0  0  0  0  0  0  0
   20.0273   17.7511   26.1111 H   0  0  0  0  0  0  0  0  0  0  0  0
   20.3692   19.2032   25.1752 H   0  0  0  0  0  0  0  0  0  0  0  0
   19.3795   19.5862   27.0602 C   0  0  0  0  0  0  0  0  0  0  0  0
   18.6468   19.1004   27.7102 H   0  0  0  0  0  0  0  0  0  0  0  0
   18.9845   20.5621   26.7652 H   0  0  0  0  0  0  0  0  0  0  0  0
   20.6405   19.8167   27.8676 N   0  3  0  0  0  0  0  0  0  0  0  0
   21.3624   20.2969   27.3201 H   0  0  0  0  0  0  0  0  0  0  0  0
   21.0480   18.9360   28.1988 H   0  0  0  0  0  0  0  0  0  0  0  0
   20.4612   20.3935   28.6970 H   0  0  0  0  0  0  0  0  0  0  0  0
  1  2  1  0  0  0  0
  1  3  1  0  0  0  0
  1  4  1  0  0  0  0
  1  5  1  0  0  0  0
  5  6  1  0  0  0  0
  5  7  1  0  0  0  0
  5  8  1  0  0  0  0
  8  9  1  0  0  0  0
  8 10  1  0  0  0  0
  8 11  1  0  0  0  0
 11 12  1  0  0  0  0
 11 13  1  0  0  0  0
 11 14  1  0  0  0  0
 14 15  1  0  0  0  0
 14 16  1  0  0  0  0
 14 17  1  0  0  0  0
 17 18  1  0  0  0  0
 17 19  1  0  0  0  0
 17 20  1  0  0  0  0
 20 21  1  0  0  0  0
 20 22  1  0  0  0  0
 20 23  1  0  0  0  0
 23 24  1  0  0  0  0
 23 25  1  0  0  0  0
 23 26  1  0  0  0  0
 26 27  1  0  0  0  0
 26 28  1  0  0  0  0
 26 29  1  0  0  0  0
M  END
> <VM2 Rank>
282

> <Conf_Id>
1440

> <Probability>
0.01

> <Sum Probability>
99.68

> <Delta G>
4.134

> <G>
62.282

> <E>
24.650

> <-TS>
37.633

> <U+W>
0.505

> <U>
52.577

> <W>
-52.072

> <W(PB)>
-54.550

> <W(SA)>
2.478

> <Valence>
6.244

> <Coulomb>
45.374

> <VdW>
0.959

> <VdW6>
-9.152

> <VdW12>
10.111

> <Bond>
0.274

> <Angle>
1.455

> <Pdih>
4.516

> <Idih>
0.000

> <Tether>
0.000

$$$$
VeraChem MOL file


 29 28  0  0  0  0  0  0  0  0999 V2000     
   21.0277   19.1955   20.4406 C   0  0  0  0  0  0  0  0  0  0  0  0
   21.8500   19.5676   21.0656 H   0  0  0  0  0  0  0  0  0  0  0  0
   21.2804   18.1789   20.1123 H   0  0  0  0  0  0  0  0  0  0  0  0
   20.9674   19.8323   19.5485 H   0  0  0  0  0  0  0  0  0  0  0  0
   19.6922   19.2133   21.2138 C   0  0  0  0  0  0  0  0  0  0  0  0
   18.8844   18.8652   20.5551 H   0  0  0  0  0  0  0  0  0  0  0  0
   19.4541   20.2490   21.4905 H   0  0  0  0  0  0  0  0  0  0  0  0
   19.7540   18.3253   22.4784 C   0  0  0  0  0  0  0  0  0  0  0  0
   20.0603   17.3112   22.1870 H   0  0  0  0  0  0  0  0  0  0  0  0
   20.5386   18.6964   23.1495 H   0  0  0  0  0  0  0  0  0  0  0  0
   18.4025   18.2291   23.2329 C   0  0  0  0  0  0  0  0  0  0  0  0
   18.4996   17.5259   24.0692 H   0  0  0  0  0  0  0  0  0  0  0  0
   17.6589   17.7768   22.5623 H   0  0  0  0  0  0  0  0  0  0  0  0
   17.8358   19.5763   23.7533 C   0  0  0  0  0  0  0  0  0  0  0  0
   17.5647   20.2036   22.8939 H   0  0  0  0  0  0  0  0  0  0  0  0
   16.8898   19.3791   24.2759 H   0  0  0  0  0  0  0  0  0  0  0  0
   18.7630   20.3967   24.6904 C   0  0  0  0  0  0  0  0  0  0  0  0
   18.2600   21.3530   24.8896 H   0  0  0  0  0  0  0  0  0  0  0  0
   19.6983   20.6611   24.1793 H   0  0  0  0  0  0  0  0  0  0  0  0
   19.0652   19.7302   26.0566 C   0  0  0  0  0  0  0  0  0  0  0  0
   19.3117   20.5184   26.7804 H   0  0  0  0  0  0  0  0  0  0  0  0
   18.1654   19.2299   26.4383 H   0  0  0  0  0  0  0  0  0  0  0  0
   20.2446   18.7406   26.0092 C   0  0  0  0  0  0  0  0  0  0  0  0
   21.1415   19.2565   25.6562 H   0  0  0  0  0  0  0  0  0  0  0  0
   20.0256   17.9243   25.3189 H   0  0  0  0  0  0  0  0  0  0  0  0
   20.5590   18.1309   27.3598 N   0  3  0  0  0  0  0  0  0  0  0  0
   20.8063   18.8453   28.0526 H   0  0  0  0  0  0  0  0  0  0  0  0
   21.3486   17.4779   27.3089 H   0  0  0  0  0  0  0  0  0  0  0  0
   19.7619   17.6079   27.7372 H   0  0  0  0  0  0  0  0  0  0  0  0
  1  2  1  0  0  0  0
  1  3  1  0  0  0  0
  1  4  1  0  0  0  0
  1  5  1  0  0  0  0
  5  6  1  0  0  0  0
  5  7  1  0  0  0  0
  5  8  1  0  0  0  0
  8  9  1  0  0  0  0
  8 10  1  0  0  0  0
  8 11  1  0  0  0  0
 11 12  1  0  0  0  0
 11 13  1  0  0  0  0
 11 14  1  0  0  0  0
 14 15  1  0  0  0  0
 14 16  1  0  0  0  0
 14 17  1  0  0  0  0
 17 18  1  0  0  0  0
 17 19  1  0  0  0  0
 17 20  1  0  0  0  0
 20 21  1  0  0  0  0
 20 22  1  0  0  0  0
 20 23  1  0  0  0  0
 23 24  1  0  0  0  0
 23 25  1  0  0  0  0
 23 26  1  0  0  0  0
 26 27  1  0  0  0  0
 26 28  1  0  0  0  0
 26 29  1  0  0  0  0
M  END
> <VM2 Rank>
283

> <Conf_Id>
1184

> <Probability>
0.01

> <Sum Probability>
99.68

> <Delta G>
4.138

> <G>
62.286

> <E>
24.024

> <-TS>
38.263

> <U+W>
-0.121

> <U>
52.441

> <W>
-52.562

> <W(PB)>
-54.978

> <W(SA)>
2.416

> <Valence>
5.943

> <Coulomb>
46.128

> <VdW>
0.370

> <VdW6>
-10.817

> <VdW12>
11.188

> <Bond>
0.305

> <Angle>
2.098

> <Pdih>
3.540

> <Idih>
0.000

> <Tether>
0.000

$$$$
VeraChem MOL file


 29 28  0  0  0  0  0  0  0  0999 V2000     
   21.3262   18.8728   21.0385 C   0  0  0  0  0  0  0  0  0  0  0  0
   21.4781   19.8847   21.4337 H   0  0  0  0  0  0  0  0  0  0  0  0
   21.7127   18.1546   21.7732 H   0  0  0  0  0  0  0  0  0  0  0  0
   21.9321   18.7804   20.1279 H   0  0  0  0  0  0  0  0  0  0  0  0
   19.8370   18.6016   20.7265 C   0  0  0  0  0  0  0  0  0  0  0  0
   19.7533   17.6284   20.2229 H   0  0  0  0  0  0  0  0  0  0  0  0
   19.4653   19.3502   20.0129 H   0  0  0  0  0  0  0  0  0  0  0  0
   18.9396   18.5868   21.9871 C   0  0  0  0  0  0  0  0  0  0  0  0
   17.9332   18.2593   21.6920 H   0  0  0  0  0  0  0  0  0  0  0  0
   19.3130   17.8287   22.6852 H   0  0  0  0  0  0  0  0  0  0  0  0
   18.8324   19.9691   22.6816 C   0  0  0  0  0  0  0  0  0  0  0  0
   18.4551   20.6919   21.9451 H   0  0  0  0  0  0  0  0  0  0  0  0
   19.8221   20.3335   22.9852 H   0  0  0  0  0  0  0  0  0  0  0  0
   17.8779   19.9716   23.9042 C   0  0  0  0  0  0  0  0  0  0  0  0
   17.3627   20.9417   23.9334 H   0  0  0  0  0  0  0  0  0  0  0  0
   17.0863   19.2210   23.7733 H   0  0  0  0  0  0  0  0  0  0  0  0
   18.5787   19.7752   25.2733 C   0  0  0  0  0  0  0  0  0  0  0  0
   17.8208   19.8624   26.0641 H   0  0  0  0  0  0  0  0  0  0  0  0
   19.2874   20.5984   25.4349 H   0  0  0  0  0  0  0  0  0  0  0  0
   19.3094   18.4194   25.4262 C   0  0  0  0  0  0  0  0  0  0  0  0
   18.6295   17.6043   25.1452 H   0  0  0  0  0  0  0  0  0  0  0  0
   20.1672   18.3726   24.7436 H   0  0  0  0  0  0  0  0  0  0  0  0
   19.8009   18.1718   26.8651 C   0  0  0  0  0  0  0  0  0  0  0  0
   20.2437   17.1742   26.9313 H   0  0  0  0  0  0  0  0  0  0  0  0
   18.9546   18.2161   27.5559 H   0  0  0  0  0  0  0  0  0  0  0  0
   20.8419   19.1697   27.3326 N   0  3  0  0  0  0  0  0  0  0  0  0
   21.6752   19.1581   26.7354 H   0  0  0  0  0  0  0  0  0  0  0  0
   21.1552   18.9730   28.2895 H   0  0  0  0  0  0  0  0  0  0  0  0
   20.4774   20.1276   27.3265 H   0  0  0  0  0  0  0  0  0  0  0  0
  1  2  1  0  0  0  0
  1  3  1  0  0  0  0
  1  4  1  0  0  0  0
  1  5  1  0  0  0  0
  5  6  1  0  0  0  0
  5  7  1  0  0  0  0
  5  8  1  0  0  0  0
  8  9  1  0  0  0  0
  8 10  1  0  0  0  0
  8 11  1  0  0  0  0
 11 12  1  0  0  0  0
 11 13  1  0  0  0  0
 11 14  1  0  0  0  0
 14 15  1  0  0  0  0
 14 16  1  0  0  0  0
 14 17  1  0  0  0  0
 17 18  1  0  0  0  0
 17 19  1  0  0  0  0
 17 20  1  0  0  0  0
 20 21  1  0  0  0  0
 20 22  1  0  0  0  0
 20 23  1  0  0  0  0
 23 24  1  0  0  0  0
 23 25  1  0  0  0  0
 23 26  1  0  0  0  0
 26 27  1  0  0  0  0
 26 28  1  0  0  0  0
 26 29  1  0  0  0  0
M  END
> <VM2 Rank>
284

> <Conf_Id>
1004

> <Probability>
0.01

> <Sum Probability>
99.69

> <Delta G>
4.140

> <G>
62.288

> <E>
24.540

> <-TS>
37.748

> <U+W>
0.395

> <U>
52.708

> <W>
-52.313

> <W(PB)>
-54.738

> <W(SA)>
2.425

> <Valence>
6.186

> <Coulomb>
45.601

> <VdW>
0.922

> <VdW6>
-9.883

> <VdW12>
10.805

> <Bond>
0.292

> <Angle>
1.417

> <Pdih>
4.476

> <Idih>
0.000

> <Tether>
0.000

$$$$
VeraChem MOL file


 29 28  0  0  0  0  0  0  0  0999 V2000     
   18.6865   20.1617   20.3017 C   0  0  0  0  0  0  0  0  0  0  0  0
   19.3865   20.9156   20.6814 H   0  0  0  0  0  0  0  0  0  0  0  0
   19.0678   19.7940   19.3402 H   0  0  0  0  0  0  0  0  0  0  0  0
   17.7300   20.6656   20.1114 H   0  0  0  0  0  0  0  0  0  0  0  0
   18.4951   19.0003   21.3040 C   0  0  0  0  0  0  0  0  0  0  0  0
   17.7175   18.3289   20.9138 H   0  0  0  0  0  0  0  0  0  0  0  0
   18.1086   19.3947   22.2513 H   0  0  0  0  0  0  0  0  0  0  0  0
   19.7871   18.1749   21.5361 C   0  0  0  0  0  0  0  0  0  0  0  0
   19.5367   17.2367   22.0499 H   0  0  0  0  0  0  0  0  0  0  0  0
   20.1830   17.8754   20.5559 H   0  0  0  0  0  0  0  0  0  0  0  0
   20.9049   18.9131   22.3222 C   0  0  0  0  0  0  0  0  0  0  0  0
   20.8600   19.9948   22.1455 H   0  0  0  0  0  0  0  0  0  0  0  0
   21.8742   18.5900   21.9182 H   0  0  0  0  0  0  0  0  0  0  0  0
   20.9196   18.6302   23.8466 C   0  0  0  0  0  0  0  0  0  0  0  0
   21.0754   17.5560   24.0173 H   0  0  0  0  0  0  0  0  0  0  0  0
   21.7913   19.1383   24.2816 H   0  0  0  0  0  0  0  0  0  0  0  0
   19.6452   19.0904   24.5916 C   0  0  0  0  0  0  0  0  0  0  0  0
   18.7849   18.4988   24.2525 H   0  0  0  0  0  0  0  0  0  0  0  0
   19.4346   20.1410   24.3478 H   0  0  0  0  0  0  0  0  0  0  0  0
   19.7867   18.9351   26.1217 C   0  0  0  0  0  0  0  0  0  0  0  0
   19.9990   17.8862   26.3686 H   0  0  0  0  0  0  0  0  0  0  0  0
   20.6391   19.5293   26.4772 H   0  0  0  0  0  0  0  0  0  0  0  0
   18.5098   19.3849   26.8529 C   0  0  0  0  0  0  0  0  0  0  0  0
   17.6608   18.7848   26.5145 H   0  0  0  0  0  0  0  0  0  0  0  0
   18.3037   20.4337   26.6227 H   0  0  0  0  0  0  0  0  0  0  0  0
   18.6091   19.2473   28.3583 N   0  3  0  0  0  0  0  0  0  0  0  0
   17.7484   19.5522   28.8263 H   0  0  0  0  0  0  0  0  0  0  0  0
   19.3744   19.8108   28.7435 H   0  0  0  0  0  0  0  0  0  0  0  0
   18.7761   18.2764   28.6428 H   0  0  0  0  0  0  0  0  0  0  0  0
  1  2  1  0  0  0  0
  1  3  1  0  0  0  0
  1  4  1  0  0  0  0
  1  5  1  0  0  0  0
  5  6  1  0  0  0  0
  5  7  1  0  0  0  0
  5  8  1  0  0  0  0
  8  9  1  0  0  0  0
  8 10  1  0  0  0  0
  8 11  1  0  0  0  0
 11 12  1  0  0  0  0
 11 13  1  0  0  0  0
 11 14  1  0  0  0  0
 14 15  1  0  0  0  0
 14 16  1  0  0  0  0
 14 17  1  0  0  0  0
 17 18  1  0  0  0  0
 17 19  1  0  0  0  0
 17 20  1  0  0  0  0
 20 21  1  0  0  0  0
 20 22  1  0  0  0  0
 20 23  1  0  0  0  0
 23 24  1  0  0  0  0
 23 25  1  0  0  0  0
 23 26  1  0  0  0  0
 26 27  1  0  0  0  0
 26 28  1  0  0  0  0
 26 29  1  0  0  0  0
M  END
> <VM2 Rank>
285

> <Conf_Id>
328

> <Probability>
0.01

> <Sum Probability>
99.69

> <Delta G>
4.144

> <G>
62.292

> <E>
24.685

> <-TS>
37.607

> <U+W>
0.540

> <U>
52.136

> <W>
-51.596

> <W(PB)>
-54.073

> <W(SA)>
2.477

> <Valence>
6.312

> <Coulomb>
44.908

> <VdW>
0.916

> <VdW6>
-9.106

> <VdW12>
10.023

> <Bond>
0.279

> <Angle>
1.475

> <Pdih>
4.558

> <Idih>
0.000

> <Tether>
0.000

$$$$
VeraChem MOL file


 29 28  0  0  0  0  0  0  0  0999 V2000     
   21.0716   18.9887   20.8131 C   0  0  0  0  0  0  0  0  0  0  0  0
   21.7540   18.9854   19.9533 H   0  0  0  0  0  0  0  0  0  0  0  0
   21.5418   19.5746   21.6135 H   0  0  0  0  0  0  0  0  0  0  0  0
   20.9683   17.9510   21.1531 H   0  0  0  0  0  0  0  0  0  0  0  0
   19.7048   19.5864   20.4147 C   0  0  0  0  0  0  0  0  0  0  0  0
   19.2298   18.9415   19.6622 H   0  0  0  0  0  0  0  0  0  0  0  0
   19.8739   20.5543   19.9225 H   0  0  0  0  0  0  0  0  0  0  0  0
   18.7336   19.8027   21.6031 C   0  0  0  0  0  0  0  0  0  0  0  0
   19.1629   20.5278   22.3051 H   0  0  0  0  0  0  0  0  0  0  0  0
   17.8277   20.2801   21.2048 H   0  0  0  0  0  0  0  0  0  0  0  0
   18.3076   18.5012   22.3361 C   0  0  0  0  0  0  0  0  0  0  0  0
   18.3236   17.6625   21.6266 H   0  0  0  0  0  0  0  0  0  0  0  0
   17.2595   18.5982   22.6510 H   0  0  0  0  0  0  0  0  0  0  0  0
   19.1585   18.1405   23.5818 C   0  0  0  0  0  0  0  0  0  0  0  0
   18.9077   17.1148   23.8853 H   0  0  0  0  0  0  0  0  0  0  0  0
   20.2253   18.1314   23.3290 H   0  0  0  0  0  0  0  0  0  0  0  0
   18.9171   19.0856   24.7839 C   0  0  0  0  0  0  0  0  0  0  0  0
   17.8462   19.1004   25.0302 H   0  0  0  0  0  0  0  0  0  0  0  0
   19.1957   20.1140   24.5205 H   0  0  0  0  0  0  0  0  0  0  0  0
   19.7227   18.6479   26.0269 C   0  0  0  0  0  0  0  0  0  0  0  0
   19.4423   17.6241   26.3084 H   0  0  0  0  0  0  0  0  0  0  0  0
   20.7943   18.6346   25.7868 H   0  0  0  0  0  0  0  0  0  0  0  0
   19.4769   19.5910   27.2177 C   0  0  0  0  0  0  0  0  0  0  0  0
   18.4133   19.5950   27.4707 H   0  0  0  0  0  0  0  0  0  0  0  0
   19.7707   20.6090   26.9480 H   0  0  0  0  0  0  0  0  0  0  0  0
   20.2511   19.1940   28.4579 N   0  3  0  0  0  0  0  0  0  0  0  0
   20.0000   18.2534   28.7799 H   0  0  0  0  0  0  0  0  0  0  0  0
   20.0733   19.8348   29.2392 H   0  0  0  0  0  0  0  0  0  0  0  0
   21.2633   19.1969   28.2935 H   0  0  0  0  0  0  0  0  0  0  0  0
  1  2  1  0  0  0  0
  1  3  1  0  0  0  0
  1  4  1  0  0  0  0
  1  5  1  0  0  0  0
  5  6  1  0  0  0  0
  5  7  1  0  0  0  0
  5  8  1  0  0  0  0
  8  9  1  0  0  0  0
  8 10  1  0  0  0  0
  8 11  1  0  0  0  0
 11 12  1  0  0  0  0
 11 13  1  0  0  0  0
 11 14  1  0  0  0  0
 14 15  1  0  0  0  0
 14 16  1  0  0  0  0
 14 17  1  0  0  0  0
 17 18  1  0  0  0  0
 17 19  1  0  0  0  0
 17 20  1  0  0  0  0
 20 21  1  0  0  0  0
 20 22  1  0  0  0  0
 20 23  1  0  0  0  0
 23 24  1  0  0  0  0
 23 25  1  0  0  0  0
 23 26  1  0  0  0  0
 26 27  1  0  0  0  0
 26 28  1  0  0  0  0
 26 29  1  0  0  0  0
M  END
> <VM2 Rank>
286

> <Conf_Id>
2287

> <Probability>
0.01

> <Sum Probability>
99.70

> <Delta G>
4.148

> <G>
62.296

> <E>
24.720

> <-TS>
37.576

> <U+W>
0.576

> <U>
52.076

> <W>
-51.500

> <W(PB)>
-53.968

> <W(SA)>
2.468

> <Valence>
6.296

> <Coulomb>
44.840

> <VdW>
0.940

> <VdW6>
-9.057

> <VdW12>
9.997

> <Bond>
0.283

> <Angle>
1.462

> <Pdih>
4.550

> <Idih>
0.000

> <Tether>
0.000

$$$$
VeraChem MOL file


 29 28  0  0  0  0  0  0  0  0999 V2000     
   20.6425   18.1153   20.4165 C   0  0  0  0  0  0  0  0  0  0  0  0
   21.0353   17.2827   21.0146 H   0  0  0  0  0  0  0  0  0  0  0  0
   20.2057   17.6961   19.5008 H   0  0  0  0  0  0  0  0  0  0  0  0
   21.4858   18.7550   20.1252 H   0  0  0  0  0  0  0  0  0  0  0  0
   19.5860   18.9155   21.2072 C   0  0  0  0  0  0  0  0  0  0  0  0
   18.7428   18.2539   21.4460 H   0  0  0  0  0  0  0  0  0  0  0  0
   19.1898   19.7217   20.5742 H   0  0  0  0  0  0  0  0  0  0  0  0
   20.1777   19.5134   22.5049 C   0  0  0  0  0  0  0  0  0  0  0  0
   20.5412   18.7036   23.1497 H   0  0  0  0  0  0  0  0  0  0  0  0
   21.0602   20.1159   22.2496 H   0  0  0  0  0  0  0  0  0  0  0  0
   19.1809   20.4126   23.2816 C   0  0  0  0  0  0  0  0  0  0  0  0
   18.9005   21.2593   22.6401 H   0  0  0  0  0  0  0  0  0  0  0  0
   19.6891   20.8621   24.1437 H   0  0  0  0  0  0  0  0  0  0  0  0
   17.8828   19.7080   23.7563 C   0  0  0  0  0  0  0  0  0  0  0  0
   17.2674   20.4381   24.2996 H   0  0  0  0  0  0  0  0  0  0  0  0
   17.2882   19.4282   22.8765 H   0  0  0  0  0  0  0  0  0  0  0  0
   18.0689   18.4498   24.6469 C   0  0  0  0  0  0  0  0  0  0  0  0
   18.6335   17.6742   24.1125 H   0  0  0  0  0  0  0  0  0  0  0  0
   17.0718   18.0201   24.8150 H   0  0  0  0  0  0  0  0  0  0  0  0
   18.7051   18.7202   26.0340 C   0  0  0  0  0  0  0  0  0  0  0  0
   18.3191   19.6611   26.4480 H   0  0  0  0  0  0  0  0  0  0  0  0
   18.3874   17.9257   26.7223 H   0  0  0  0  0  0  0  0  0  0  0  0
   20.2450   18.7420   26.0093 C   0  0  0  0  0  0  0  0  0  0  0  0
   20.6014   19.5396   25.3552 H   0  0  0  0  0  0  0  0  0  0  0  0
   20.6186   17.7898   25.6233 H   0  0  0  0  0  0  0  0  0  0  0  0
   20.8550   18.9611   27.3784 N   0  3  0  0  0  0  0  0  0  0  0  0
   20.5629   19.8547   27.7877 H   0  0  0  0  0  0  0  0  0  0  0  0
   21.8802   18.9692   27.3424 H   0  0  0  0  0  0  0  0  0  0  0  0
   20.5851   18.2244   28.0386 H   0  0  0  0  0  0  0  0  0  0  0  0
  1  2  1  0  0  0  0
  1  3  1  0  0  0  0
  1  4  1  0  0  0  0
  1  5  1  0  0  0  0
  5  6  1  0  0  0  0
  5  7  1  0  0  0  0
  5  8  1  0  0  0  0
  8  9  1  0  0  0  0
  8 10  1  0  0  0  0
  8 11  1  0  0  0  0
 11 12  1  0  0  0  0
 11 13  1  0  0  0  0
 11 14  1  0  0  0  0
 14 15  1  0  0  0  0
 14 16  1  0  0  0  0
 14 17  1  0  0  0  0
 17 18  1  0  0  0  0
 17 19  1  0  0  0  0
 17 20  1  0  0  0  0
 20 21  1  0  0  0  0
 20 22  1  0  0  0  0
 20 23  1  0  0  0  0
 23 24  1  0  0  0  0
 23 25  1  0  0  0  0
 23 26  1  0  0  0  0
 26 27  1  0  0  0  0
 26 28  1  0  0  0  0
 26 29  1  0  0  0  0
M  END
> <VM2 Rank>
287

> <Conf_Id>
963

> <Probability>
0.00

> <Sum Probability>
99.70

> <Delta G>
4.175

> <G>
62.323

> <E>
24.060

> <-TS>
38.263

> <U+W>
-0.084

> <U>
52.441

> <W>
-52.525

> <W(PB)>
-54.955

> <W(SA)>
2.430

> <Valence>
5.943

> <Coulomb>
46.128

> <VdW>
0.370

> <VdW6>
-10.817

> <VdW12>
11.187

> <Bond>
0.305

> <Angle>
2.098

> <Pdih>
3.540

> <Idih>
0.000

> <Tether>
0.000

$$$$
VeraChem MOL file


 29 28  0  0  0  0  0  0  0  0999 V2000     
   19.2919   20.7690   21.2439 C   0  0  0  0  0  0  0  0  0  0  0  0
   18.7655   20.7099   20.2825 H   0  0  0  0  0  0  0  0  0  0  0  0
   18.5484   20.6816   22.0450 H   0  0  0  0  0  0  0  0  0  0  0  0
   19.7443   21.7664   21.3179 H   0  0  0  0  0  0  0  0  0  0  0  0
   20.3770   19.6730   21.3477 C   0  0  0  0  0  0  0  0  0  0  0  0
   20.9113   19.7538   22.3027 H   0  0  0  0  0  0  0  0  0  0  0  0
   21.1317   19.8543   20.5698 H   0  0  0  0  0  0  0  0  0  0  0  0
   19.8202   18.2401   21.1649 C   0  0  0  0  0  0  0  0  0  0  0  0
   19.3689   18.1657   20.1660 H   0  0  0  0  0  0  0  0  0  0  0  0
   20.6606   17.5324   21.1640 H   0  0  0  0  0  0  0  0  0  0  0  0
   18.7745   17.7751   22.2142 C   0  0  0  0  0  0  0  0  0  0  0  0
   18.4252   16.7809   21.9030 H   0  0  0  0  0  0  0  0  0  0  0  0
   17.8832   18.4156   22.1861 H   0  0  0  0  0  0  0  0  0  0  0  0
   19.3145   17.6536   23.6635 C   0  0  0  0  0  0  0  0  0  0  0  0
   18.8167   16.8004   24.1450 H   0  0  0  0  0  0  0  0  0  0  0  0
   20.3856   17.4095   23.6477 H   0  0  0  0  0  0  0  0  0  0  0  0
   19.0606   18.9094   24.5325 C   0  0  0  0  0  0  0  0  0  0  0  0
   17.9835   19.1255   24.5566 H   0  0  0  0  0  0  0  0  0  0  0  0
   19.5471   19.7864   24.0909 H   0  0  0  0  0  0  0  0  0  0  0  0
   19.5766   18.7208   25.9758 C   0  0  0  0  0  0  0  0  0  0  0  0
   19.0829   17.8542   26.4356 H   0  0  0  0  0  0  0  0  0  0  0  0
   20.6536   18.5067   25.9580 H   0  0  0  0  0  0  0  0  0  0  0  0
   19.3177   19.9716   26.8338 C   0  0  0  0  0  0  0  0  0  0  0  0
   18.2448   20.1792   26.8678 H   0  0  0  0  0  0  0  0  0  0  0  0
   19.8215   20.8340   26.3890 H   0  0  0  0  0  0  0  0  0  0  0  0
   19.8110   19.8255   28.2587 N   0  3  0  0  0  0  0  0  0  0  0  0
   19.3542   19.0455   28.7428 H   0  0  0  0  0  0  0  0  0  0  0  0
   19.6289   20.6693   28.8132 H   0  0  0  0  0  0  0  0  0  0  0  0
   20.8214   19.6548   28.2973 H   0  0  0  0  0  0  0  0  0  0  0  0
  1  2  1  0  0  0  0
  1  3  1  0  0  0  0
  1  4  1  0  0  0  0
  1  5  1  0  0  0  0
  5  6  1  0  0  0  0
  5  7  1  0  0  0  0
  5  8  1  0  0  0  0
  8  9  1  0  0  0  0
  8 10  1  0  0  0  0
  8 11  1  0  0  0  0
 11 12  1  0  0  0  0
 11 13  1  0  0  0  0
 11 14  1  0  0  0  0
 14 15  1  0  0  0  0
 14 16  1  0  0  0  0
 14 17  1  0  0  0  0
 17 18  1  0  0  0  0
 17 19  1  0  0  0  0
 17 20  1  0  0  0  0
 20 21  1  0  0  0  0
 20 22  1  0  0  0  0
 20 23  1  0  0  0  0
 23 24  1  0  0  0  0
 23 25  1  0  0  0  0
 23 26  1  0  0  0  0
 26 27  1  0  0  0  0
 26 28  1  0  0  0  0
 26 29  1  0  0  0  0
M  END
> <VM2 Rank>
288

> <Conf_Id>
2013

> <Probability>
0.00

> <Sum Probability>
99.71

> <Delta G>
4.175

> <G>
62.323

> <E>
24.322

> <-TS>
38.001

> <U+W>
0.177

> <U>
51.870

> <W>
-51.693

> <W(PB)>
-54.128

> <W(SA)>
2.436

> <Valence>
6.196

> <Coulomb>
45.072

> <VdW>
0.602

> <VdW6>
-9.621

> <VdW12>
10.223

> <Bond>
0.275

> <Angle>
1.754

> <Pdih>
4.168

> <Idih>
0.000

> <Tether>
0.000

$$$$
VeraChem MOL file


 29 28  0  0  0  0  0  0  0  0999 V2000     
   20.3221   18.0649   20.5704 C   0  0  0  0  0  0  0  0  0  0  0  0
   19.8813   17.3735   21.2994 H   0  0  0  0  0  0  0  0  0  0  0  0
   19.6344   18.1527   19.7194 H   0  0  0  0  0  0  0  0  0  0  0  0
   21.2527   17.6114   20.2054 H   0  0  0  0  0  0  0  0  0  0  0  0
   20.6044   19.4472   21.2008 C   0  0  0  0  0  0  0  0  0  0  0  0
   21.1506   20.0630   20.4727 H   0  0  0  0  0  0  0  0  0  0  0  0
   21.2775   19.3318   22.0607 H   0  0  0  0  0  0  0  0  0  0  0  0
   19.3203   20.2058   21.6229 C   0  0  0  0  0  0  0  0  0  0  0  0
   19.6060   21.1849   22.0313 H   0  0  0  0  0  0  0  0  0  0  0  0
   18.7225   20.4175   20.7257 H   0  0  0  0  0  0  0  0  0  0  0  0
   18.4251   19.4712   22.6540 C   0  0  0  0  0  0  0  0  0  0  0  0
   18.0360   18.5424   22.2163 H   0  0  0  0  0  0  0  0  0  0  0  0
   17.5473   20.0994   22.8590 H   0  0  0  0  0  0  0  0  0  0  0  0
   19.1452   19.1613   23.9879 C   0  0  0  0  0  0  0  0  0  0  0  0
   19.9762   18.4665   23.8086 H   0  0  0  0  0  0  0  0  0  0  0  0
   19.5704   20.0923   24.3823 H   0  0  0  0  0  0  0  0  0  0  0  0
   18.1800   18.5438   25.0272 C   0  0  0  0  0  0  0  0  0  0  0  0
   17.6460   17.7042   24.5611 H   0  0  0  0  0  0  0  0  0  0  0  0
   17.4126   19.2819   25.2988 H   0  0  0  0  0  0  0  0  0  0  0  0
   18.8708   18.0214   26.3127 C   0  0  0  0  0  0  0  0  0  0  0  0
   18.1049   17.5374   26.9331 H   0  0  0  0  0  0  0  0  0  0  0  0
   19.5975   17.2365   26.0642 H   0  0  0  0  0  0  0  0  0  0  0  0
   19.5453   19.1147   27.1668 C   0  0  0  0  0  0  0  0  0  0  0  0
   19.6515   18.7505   28.1922 H   0  0  0  0  0  0  0  0  0  0  0  0
   18.9175   20.0095   27.1878 H   0  0  0  0  0  0  0  0  0  0  0  0
   20.9307   19.5077   26.6924 N   0  3  0  0  0  0  0  0  0  0  0  0
   21.5763   18.7113   26.7077 H   0  0  0  0  0  0  0  0  0  0  0  0
   21.3422   20.2379   27.2842 H   0  0  0  0  0  0  0  0  0  0  0  0
   20.9154   19.8671   25.7337 H   0  0  0  0  0  0  0  0  0  0  0  0
  1  2  1  0  0  0  0
  1  3  1  0  0  0  0
  1  4  1  0  0  0  0
  1  5  1  0  0  0  0
  5  6  1  0  0  0  0
  5  7  1  0  0  0  0
  5  8  1  0  0  0  0
  8  9  1  0  0  0  0
  8 10  1  0  0  0  0
  8 11  1  0  0  0  0
 11 12  1  0  0  0  0
 11 13  1  0  0  0  0
 11 14  1  0  0  0  0
 14 15  1  0  0  0  0
 14 16  1  0  0  0  0
 14 17  1  0  0  0  0
 17 18  1  0  0  0  0
 17 19  1  0  0  0  0
 17 20  1  0  0  0  0
 20 21  1  0  0  0  0
 20 22  1  0  0  0  0
 20 23  1  0  0  0  0
 23 24  1  0  0  0  0
 23 25  1  0  0  0  0
 23 26  1  0  0  0  0
 26 27  1  0  0  0  0
 26 28  1  0  0  0  0
 26 29  1  0  0  0  0
M  END
> <VM2 Rank>
289

> <Conf_Id>
479

> <Probability>
0.00

> <Sum Probability>
99.71

> <Delta G>
4.183

> <G>
62.331

> <E>
24.545

> <-TS>
37.786

> <U+W>
0.401

> <U>
52.667

> <W>
-52.266

> <W(PB)>
-54.694

> <W(SA)>
2.428

> <Valence>
5.120

> <Coulomb>
46.799

> <VdW>
0.748

> <VdW6>
-10.098

> <VdW12>
10.846

> <Bond>
0.281

> <Angle>
1.589

> <Pdih>
3.250

> <Idih>
0.000

> <Tether>
0.000

$$$$
VeraChem MOL file


 29 28  0  0  0  0  0  0  0  0999 V2000     
   20.1335   18.5225   19.8489 C   0  0  0  0  0  0  0  0  0  0  0  0
   19.9342   17.9697   18.9218 H   0  0  0  0  0  0  0  0  0  0  0  0
   19.9255   19.5811   19.6512 H   0  0  0  0  0  0  0  0  0  0  0  0
   21.2018   18.4183   20.0785 H   0  0  0  0  0  0  0  0  0  0  0  0
   19.2613   17.9754   21.0018 C   0  0  0  0  0  0  0  0  0  0  0  0
   19.4131   16.8892   21.0720 H   0  0  0  0  0  0  0  0  0  0  0  0
   18.1983   18.1223   20.7647 H   0  0  0  0  0  0  0  0  0  0  0  0
   19.5845   18.6094   22.3764 C   0  0  0  0  0  0  0  0  0  0  0  0
   19.0248   18.0557   23.1408 H   0  0  0  0  0  0  0  0  0  0  0  0
   20.6507   18.4724   22.6027 H   0  0  0  0  0  0  0  0  0  0  0  0
   19.2161   20.1110   22.4660 C   0  0  0  0  0  0  0  0  0  0  0  0
   18.1376   20.2322   22.2950 H   0  0  0  0  0  0  0  0  0  0  0  0
   19.7174   20.6605   21.6592 H   0  0  0  0  0  0  0  0  0  0  0  0
   19.6031   20.7850   23.8079 C   0  0  0  0  0  0  0  0  0  0  0  0
   20.6941   20.7681   23.9370 H   0  0  0  0  0  0  0  0  0  0  0  0
   19.3314   21.8471   23.7340 H   0  0  0  0  0  0  0  0  0  0  0  0
   18.9029   20.1937   25.0592 C   0  0  0  0  0  0  0  0  0  0  0  0
   17.9373   19.7506   24.7785 H   0  0  0  0  0  0  0  0  0  0  0  0
   18.6691   21.0164   25.7493 H   0  0  0  0  0  0  0  0  0  0  0  0
   19.7711   19.1620   25.8184 C   0  0  0  0  0  0  0  0  0  0  0  0
   20.0610   18.3383   25.1561 H   0  0  0  0  0  0  0  0  0  0  0  0
   20.7007   19.6414   26.1531 H   0  0  0  0  0  0  0  0  0  0  0  0
   19.0257   18.5931   27.0383 C   0  0  0  0  0  0  0  0  0  0  0  0
   18.1070   18.0991   26.7108 H   0  0  0  0  0  0  0  0  0  0  0  0
   18.7560   19.4066   27.7172 H   0  0  0  0  0  0  0  0  0  0  0  0
   19.8458   17.5859   27.8181 N   0  3  0  0  0  0  0  0  0  0  0  0
   20.1092   16.7795   27.2421 H   0  0  0  0  0  0  0  0  0  0  0  0
   19.3309   17.2202   28.6267 H   0  0  0  0  0  0  0  0  0  0  0  0
   20.7137   17.9969   28.1778 H   0  0  0  0  0  0  0  0  0  0  0  0
  1  2  1  0  0  0  0
  1  3  1  0  0  0  0
  1  4  1  0  0  0  0
  1  5  1  0  0  0  0
  5  6  1  0  0  0  0
  5  7  1  0  0  0  0
  5  8  1  0  0  0  0
  8  9  1  0  0  0  0
  8 10  1  0  0  0  0
  8 11  1  0  0  0  0
 11 12  1  0  0  0  0
 11 13  1  0  0  0  0
 11 14  1  0  0  0  0
 14 15  1  0  0  0  0
 14 16  1  0  0  0  0
 14 17  1  0  0  0  0
 17 18  1  0  0  0  0
 17 19  1  0  0  0  0
 17 20  1  0  0  0  0
 20 21  1  0  0  0  0
 20 22  1  0  0  0  0
 20 23  1  0  0  0  0
 23 24  1  0  0  0  0
 23 25  1  0  0  0  0
 23 26  1  0  0  0  0
 26 27  1  0  0  0  0
 26 28  1  0  0  0  0
 26 29  1  0  0  0  0
M  END
> <VM2 Rank>
290

> <Conf_Id>
315

> <Probability>
0.00

> <Sum Probability>
99.72

> <Delta G>
4.188

> <G>
62.336

> <E>
24.704

> <-TS>
37.632

> <U+W>
0.560

> <U>
52.576

> <W>
-52.017

> <W(PB)>
-54.493

> <W(SA)>
2.476

> <Valence>
6.244

> <Coulomb>
45.373

> <VdW>
0.959

> <VdW6>
-9.151

> <VdW12>
10.111

> <Bond>
0.274

> <Angle>
1.455

> <Pdih>
4.515

> <Idih>
0.000

> <Tether>
0.000

$$$$
VeraChem MOL file


 29 28  0  0  0  0  0  0  0  0999 V2000     
   20.8280   19.5650   20.8074 C   0  0  0  0  0  0  0  0  0  0  0  0
   21.3196   19.9685   19.9128 H   0  0  0  0  0  0  0  0  0  0  0  0
   20.6284   20.4084   21.4798 H   0  0  0  0  0  0  0  0  0  0  0  0
   21.5332   18.8831   21.2999 H   0  0  0  0  0  0  0  0  0  0  0  0
   19.5231   18.8346   20.4226 C   0  0  0  0  0  0  0  0  0  0  0  0
   19.7453   18.1151   19.6222 H   0  0  0  0  0  0  0  0  0  0  0  0
   18.8142   19.5568   19.9942 H   0  0  0  0  0  0  0  0  0  0  0  0
   18.8473   18.0747   21.5924 C   0  0  0  0  0  0  0  0  0  0  0  0
   17.9660   17.5596   21.1858 H   0  0  0  0  0  0  0  0  0  0  0  0
   19.5110   17.2800   21.9598 H   0  0  0  0  0  0  0  0  0  0  0  0
   18.3813   18.9738   22.7671 C   0  0  0  0  0  0  0  0  0  0  0  0
   17.4471   18.5601   23.1714 H   0  0  0  0  0  0  0  0  0  0  0  0
   18.1335   19.9780   22.3966 H   0  0  0  0  0  0  0  0  0  0  0  0
   19.4091   19.0610   23.9217 C   0  0  0  0  0  0  0  0  0  0  0  0
   19.6012   18.0504   24.3055 H   0  0  0  0  0  0  0  0  0  0  0  0
   20.3679   19.4428   23.5518 H   0  0  0  0  0  0  0  0  0  0  0  0
   18.9056   19.9717   25.0668 C   0  0  0  0  0  0  0  0  0  0  0  0
   17.9632   19.5767   25.4692 H   0  0  0  0  0  0  0  0  0  0  0  0
   18.6709   20.9648   24.6595 H   0  0  0  0  0  0  0  0  0  0  0  0
   19.9377   20.1402   26.2099 C   0  0  0  0  0  0  0  0  0  0  0  0
   20.8429   20.6182   25.8125 H   0  0  0  0  0  0  0  0  0  0  0  0
   19.5343   20.8285   26.9644 H   0  0  0  0  0  0  0  0  0  0  0  0
   20.3370   18.8179   26.8956 C   0  0  0  0  0  0  0  0  0  0  0  0
   21.0826   19.0207   27.6692 H   0  0  0  0  0  0  0  0  0  0  0  0
   20.7839   18.1413   26.1627 H   0  0  0  0  0  0  0  0  0  0  0  0
   19.1750   18.0991   27.5516 N   0  3  0  0  0  0  0  0  0  0  0  0
   18.7300   18.6759   28.2730 H   0  0  0  0  0  0  0  0  0  0  0  0
   19.4720   17.2277   28.0041 H   0  0  0  0  0  0  0  0  0  0  0  0
   18.4506   17.8538   26.8693 H   0  0  0  0  0  0  0  0  0  0  0  0
  1  2  1  0  0  0  0
  1  3  1  0  0  0  0
  1  4  1  0  0  0  0
  1  5  1  0  0  0  0
  5  6  1  0  0  0  0
  5  7  1  0  0  0  0
  5  8  1  0  0  0  0
  8  9  1  0  0  0  0
  8 10  1  0  0  0  0
  8 11  1  0  0  0  0
 11 12  1  0  0  0  0
 11 13  1  0  0  0  0
 11 14  1  0  0  0  0
 14 15  1  0  0  0  0
 14 16  1  0  0  0  0
 14 17  1  0  0  0  0
 17 18  1  0  0  0  0
 17 19  1  0  0  0  0
 17 20  1  0  0  0  0
 20 21  1  0  0  0  0
 20 22  1  0  0  0  0
 20 23  1  0  0  0  0
 23 24  1  0  0  0  0
 23 25  1  0  0  0  0
 23 26  1  0  0  0  0
 26 27  1  0  0  0  0
 26 28  1  0  0  0  0
 26 29  1  0  0  0  0
M  END
> <VM2 Rank>
291

> <Conf_Id>
1608

> <Probability>
0.00

> <Sum Probability>
99.72

> <Delta G>
4.207

> <G>
62.355

> <E>
24.531

> <-TS>
37.825

> <U+W>
0.386

> <U>
52.379

> <W>
-51.993

> <W(PB)>
-54.434

> <W(SA)>
2.441

> <Valence>
5.935

> <Coulomb>
45.561

> <VdW>
0.883

> <VdW6>
-9.844

> <VdW12>
10.728

> <Bond>
0.276

> <Angle>
1.389

> <Pdih>
4.269

> <Idih>
0.000

> <Tether>
0.000

$$$$
VeraChem MOL file


 29 28  0  0  0  0  0  0  0  0999 V2000     
   19.7732   17.9959   20.0660 C   0  0  0  0  0  0  0  0  0  0  0  0
   20.8256   17.9636   19.7554 H   0  0  0  0  0  0  0  0  0  0  0  0
   19.6537   17.3206   20.9205 H   0  0  0  0  0  0  0  0  0  0  0  0
   19.1699   17.5979   19.2398 H   0  0  0  0  0  0  0  0  0  0  0  0
   19.3423   19.4425   20.4026 C   0  0  0  0  0  0  0  0  0  0  0  0
   18.2687   19.4777   20.6343 H   0  0  0  0  0  0  0  0  0  0  0  0
   19.4766   20.0546   19.4998 H   0  0  0  0  0  0  0  0  0  0  0  0
   20.1641   20.0744   21.5555 C   0  0  0  0  0  0  0  0  0  0  0  0
   21.1696   19.6331   21.5921 H   0  0  0  0  0  0  0  0  0  0  0  0
   20.3167   21.1375   21.3232 H   0  0  0  0  0  0  0  0  0  0  0  0
   19.4969   19.9942   22.9530 C   0  0  0  0  0  0  0  0  0  0  0  0
   18.5397   20.5329   22.9309 H   0  0  0  0  0  0  0  0  0  0  0  0
   20.1375   20.5367   23.6595 H   0  0  0  0  0  0  0  0  0  0  0  0
   19.2628   18.5514   23.4651 C   0  0  0  0  0  0  0  0  0  0  0  0
   18.5647   18.0415   22.7892 H   0  0  0  0  0  0  0  0  0  0  0  0
   20.2040   17.9857   23.4320 H   0  0  0  0  0  0  0  0  0  0  0  0
   18.6675   18.4888   24.8934 C   0  0  0  0  0  0  0  0  0  0  0  0
   18.3864   17.4480   25.1062 H   0  0  0  0  0  0  0  0  0  0  0  0
   17.7374   19.0728   24.9317 H   0  0  0  0  0  0  0  0  0  0  0  0
   19.6382   18.9772   25.9944 C   0  0  0  0  0  0  0  0  0  0  0  0
   20.5867   18.4288   25.9209 H   0  0  0  0  0  0  0  0  0  0  0  0
   19.8671   20.0409   25.8550 H   0  0  0  0  0  0  0  0  0  0  0  0
   19.0391   18.7754   27.3973 C   0  0  0  0  0  0  0  0  0  0  0  0
   18.8244   17.7153   27.5570 H   0  0  0  0  0  0  0  0  0  0  0  0
   18.1023   19.3329   27.4812 H   0  0  0  0  0  0  0  0  0  0  0  0
   19.9599   19.2382   28.5077 N   0  3  0  0  0  0  0  0  0  0  0  0
   20.8514   18.7316   28.5005 H   0  0  0  0  0  0  0  0  0  0  0  0
   19.5420   19.0944   29.4337 H   0  0  0  0  0  0  0  0  0  0  0  0
   20.1791   20.2369   28.4308 H   0  0  0  0  0  0  0  0  0  0  0  0
  1  2  1  0  0  0  0
  1  3  1  0  0  0  0
  1  4  1  0  0  0  0
  1  5  1  0  0  0  0
  5  6  1  0  0  0  0
  5  7  1  0  0  0  0
  5  8  1  0  0  0  0
  8  9  1  0  0  0  0
  8 10  1  0  0  0  0
  8 11  1  0  0  0  0
 11 12  1  0  0  0  0
 11 13  1  0  0  0  0
 11 14  1  0  0  0  0
 14 15  1  0  0  0  0
 14 16  1  0  0  0  0
 14 17  1  0  0  0  0
 17 18  1  0  0  0  0
 17 19  1  0  0  0  0
 17 20  1  0  0  0  0
 20 21  1  0  0  0  0
 20 22  1  0  0  0  0
 20 23  1  0  0  0  0
 23 24  1  0  0  0  0
 23 25  1  0  0  0  0
 23 26  1  0  0  0  0
 26 27  1  0  0  0  0
 26 28  1  0  0  0  0
 26 29  1  0  0  0  0
M  END
> <VM2 Rank>
292

> <Conf_Id>
551

> <Probability>
0.00

> <Sum Probability>
99.73

> <Delta G>
4.221

> <G>
62.369

> <E>
24.796

> <-TS>
37.574

> <U+W>
0.651

> <U>
52.141

> <W>
-51.490

> <W(PB)>
-53.986

> <W(SA)>
2.496

> <Valence>
6.259

> <Coulomb>
44.846

> <VdW>
1.036

> <VdW6>
-9.043

> <VdW12>
10.079

> <Bond>
0.275

> <Angle>
1.500

> <Pdih>
4.484

> <Idih>
0.000

> <Tether>
0.000

$$$$
VeraChem MOL file


 29 28  0  0  0  0  0  0  0  0999 V2000     
   20.9177   19.5371   20.8747 C   0  0  0  0  0  0  0  0  0  0  0  0
   21.1564   19.8656   21.8937 H   0  0  0  0  0  0  0  0  0  0  0  0
   21.2156   18.4862   20.7660 H   0  0  0  0  0  0  0  0  0  0  0  0
   21.5306   20.1333   20.1864 H   0  0  0  0  0  0  0  0  0  0  0  0
   19.4173   19.7261   20.5625 C   0  0  0  0  0  0  0  0  0  0  0  0
   19.2562   19.5528   19.4893 H   0  0  0  0  0  0  0  0  0  0  0  0
   19.1361   20.7723   20.7473 H   0  0  0  0  0  0  0  0  0  0  0  0
   18.4757   18.7868   21.3585 C   0  0  0  0  0  0  0  0  0  0  0  0
   17.4492   18.9843   21.0199 H   0  0  0  0  0  0  0  0  0  0  0  0
   18.6772   17.7394   21.0954 H   0  0  0  0  0  0  0  0  0  0  0  0
   18.5209   18.9752   22.8974 C   0  0  0  0  0  0  0  0  0  0  0  0
   17.5104   18.8124   23.2967 H   0  0  0  0  0  0  0  0  0  0  0  0
   18.7775   20.0160   23.1327 H   0  0  0  0  0  0  0  0  0  0  0  0
   19.4848   17.9909   23.6092 C   0  0  0  0  0  0  0  0  0  0  0  0
   19.1981   16.9632   23.3472 H   0  0  0  0  0  0  0  0  0  0  0  0
   20.5106   18.1213   23.2451 H   0  0  0  0  0  0  0  0  0  0  0  0
   19.4699   18.1226   25.1516 C   0  0  0  0  0  0  0  0  0  0  0  0
   20.0723   17.3075   25.5763 H   0  0  0  0  0  0  0  0  0  0  0  0
   18.4457   17.9750   25.5193 H   0  0  0  0  0  0  0  0  0  0  0  0
   20.0285   19.4757   25.6585 C   0  0  0  0  0  0  0  0  0  0  0  0
   21.0152   19.6531   25.2105 H   0  0  0  0  0  0  0  0  0  0  0  0
   19.3832   20.3029   25.3373 H   0  0  0  0  0  0  0  0  0  0  0  0
   20.1740   19.5174   27.1916 C   0  0  0  0  0  0  0  0  0  0  0  0
   20.6417   20.4607   27.4868 H   0  0  0  0  0  0  0  0  0  0  0  0
   20.8184   18.6985   27.5227 H   0  0  0  0  0  0  0  0  0  0  0  0
   18.8552   19.4062   27.9309 N   0  3  0  0  0  0  0  0  0  0  0  0
   18.2129   20.1647   27.6792 H   0  0  0  0  0  0  0  0  0  0  0  0
   18.9841   19.4467   28.9479 H   0  0  0  0  0  0  0  0  0  0  0  0
   18.3782   18.5233   27.7232 H   0  0  0  0  0  0  0  0  0  0  0  0
  1  2  1  0  0  0  0
  1  3  1  0  0  0  0
  1  4  1  0  0  0  0
  1  5  1  0  0  0  0
  5  6  1  0  0  0  0
  5  7  1  0  0  0  0
  5  8  1  0  0  0  0
  8  9  1  0  0  0  0
  8 10  1  0  0  0  0
  8 11  1  0  0  0  0
 11 12  1  0  0  0  0
 11 13  1  0  0  0  0
 11 14  1  0  0  0  0
 14 15  1  0  0  0  0
 14 16  1  0  0  0  0
 14 17  1  0  0  0  0
 17 18  1  0  0  0  0
 17 19  1  0  0  0  0
 17 20  1  0  0  0  0
 20 21  1  0  0  0  0
 20 22  1  0  0  0  0
 20 23  1  0  0  0  0
 23 24  1  0  0  0  0
 23 25  1  0  0  0  0
 23 26  1  0  0  0  0
 26 27  1  0  0  0  0
 26 28  1  0  0  0  0
 26 29  1  0  0  0  0
M  END
> <VM2 Rank>
293

> <Conf_Id>
1371

> <Probability>
0.00

> <Sum Probability>
99.73

> <Delta G>
4.225

> <G>
62.373

> <E>
24.656

> <-TS>
37.717

> <U+W>
0.511

> <U>
52.420

> <W>
-51.909

> <W(PB)>
-54.351

> <W(SA)>
2.442

> <Valence>
6.171

> <Coulomb>
45.274

> <VdW>
0.975

> <VdW6>
-9.789

> <VdW12>
10.764

> <Bond>
0.295

> <Angle>
1.438

> <Pdih>
4.438

> <Idih>
0.000

> <Tether>
0.000

$$$$
VeraChem MOL file


 29 28  0  0  0  0  0  0  0  0999 V2000     
   19.3606   17.5223   20.6917 C   0  0  0  0  0  0  0  0  0  0  0  0
   18.3064   17.6667   20.9583 H   0  0  0  0  0  0  0  0  0  0  0  0
   19.3881   17.0449   19.7036 H   0  0  0  0  0  0  0  0  0  0  0  0
   19.8061   16.8257   21.4136 H   0  0  0  0  0  0  0  0  0  0  0  0
   20.1296   18.8627   20.6657 C   0  0  0  0  0  0  0  0  0  0  0  0
   19.6481   19.5530   19.9590 H   0  0  0  0  0  0  0  0  0  0  0  0
   21.1417   18.6816   20.2774 H   0  0  0  0  0  0  0  0  0  0  0  0
   20.2442   19.5307   22.0568 C   0  0  0  0  0  0  0  0  0  0  0  0
   20.7347   18.8375   22.7502 H   0  0  0  0  0  0  0  0  0  0  0  0
   20.9132   20.3980   21.9705 H   0  0  0  0  0  0  0  0  0  0  0  0
   18.8818   20.0053   22.6253 C   0  0  0  0  0  0  0  0  0  0  0  0
   18.1779   19.1676   22.7106 H   0  0  0  0  0  0  0  0  0  0  0  0
   18.4362   20.7039   21.9039 H   0  0  0  0  0  0  0  0  0  0  0  0
   19.0054   20.7249   23.9938 C   0  0  0  0  0  0  0  0  0  0  0  0
   19.9886   21.2066   24.0850 H   0  0  0  0  0  0  0  0  0  0  0  0
   18.2727   21.5434   24.0172 H   0  0  0  0  0  0  0  0  0  0  0  0
   18.7377   19.8243   25.2274 C   0  0  0  0  0  0  0  0  0  0  0  0
   17.7084   19.4423   25.1828 H   0  0  0  0  0  0  0  0  0  0  0  0
   18.7906   20.4554   26.1243 H   0  0  0  0  0  0  0  0  0  0  0  0
   19.7186   18.6356   25.3744 C   0  0  0  0  0  0  0  0  0  0  0  0
   19.5945   17.9527   24.5249 H   0  0  0  0  0  0  0  0  0  0  0  0
   20.7557   18.9953   25.3486 H   0  0  0  0  0  0  0  0  0  0  0  0
   19.4853   17.8280   26.6657 C   0  0  0  0  0  0  0  0  0  0  0  0
   20.1298   16.9447   26.6615 H   0  0  0  0  0  0  0  0  0  0  0  0
   18.4458   17.4916   26.7071 H   0  0  0  0  0  0  0  0  0  0  0  0
   19.7807   18.6040   27.9342 N   0  3  0  0  0  0  0  0  0  0  0  0
   19.6289   18.0338   28.7734 H   0  0  0  0  0  0  0  0  0  0  0  0
   19.1822   19.4313   28.0211 H   0  0  0  0  0  0  0  0  0  0  0  0
   20.7529   18.9285   27.9639 H   0  0  0  0  0  0  0  0  0  0  0  0
  1  2  1  0  0  0  0
  1  3  1  0  0  0  0
  1  4  1  0  0  0  0
  1  5  1  0  0  0  0
  5  6  1  0  0  0  0
  5  7  1  0  0  0  0
  5  8  1  0  0  0  0
  8  9  1  0  0  0  0
  8 10  1  0  0  0  0
  8 11  1  0  0  0  0
 11 12  1  0  0  0  0
 11 13  1  0  0  0  0
 11 14  1  0  0  0  0
 14 15  1  0  0  0  0
 14 16  1  0  0  0  0
 14 17  1  0  0  0  0
 17 18  1  0  0  0  0
 17 19  1  0  0  0  0
 17 20  1  0  0  0  0
 20 21  1  0  0  0  0
 20 22  1  0  0  0  0
 20 23  1  0  0  0  0
 23 24  1  0  0  0  0
 23 25  1  0  0  0  0
 23 26  1  0  0  0  0
 26 27  1  0  0  0  0
 26 28  1  0  0  0  0
 26 29  1  0  0  0  0
M  END
> <VM2 Rank>
294

> <Conf_Id>
1625

> <Probability>
0.00

> <Sum Probability>
99.73

> <Delta G>
4.231

> <G>
62.379

> <E>
24.633

> <-TS>
37.746

> <U+W>
0.488

> <U>
52.520

> <W>
-52.032

> <W(PB)>
-54.435

> <W(SA)>
2.403

> <Valence>
6.252

> <Coulomb>
45.283

> <VdW>
0.985

> <VdW6>
-9.837

> <VdW12>
10.822

> <Bond>
0.297

> <Angle>
1.469

> <Pdih>
4.487

> <Idih>
0.000

> <Tether>
0.000

$$$$
VeraChem MOL file


 29 28  0  0  0  0  0  0  0  0999 V2000     
   20.8087   19.4319   20.6003 C   0  0  0  0  0  0  0  0  0  0  0  0
   20.8939   20.2167   21.3623 H   0  0  0  0  0  0  0  0  0  0  0  0
   21.8214   19.2093   20.2403 H   0  0  0  0  0  0  0  0  0  0  0  0
   20.2319   19.8321   19.7565 H   0  0  0  0  0  0  0  0  0  0  0  0
   20.1452   18.1586   21.1718 C   0  0  0  0  0  0  0  0  0  0  0  0
   20.7279   17.7886   22.0259 H   0  0  0  0  0  0  0  0  0  0  0  0
   20.1895   17.3656   20.4123 H   0  0  0  0  0  0  0  0  0  0  0  0
   18.6650   18.3661   21.5819 C   0  0  0  0  0  0  0  0  0  0  0  0
   18.0803   18.6155   20.6857 H   0  0  0  0  0  0  0  0  0  0  0  0
   18.2619   17.4116   21.9472 H   0  0  0  0  0  0  0  0  0  0  0  0
   18.4212   19.4596   22.6539 C   0  0  0  0  0  0  0  0  0  0  0  0
   17.3411   19.5200   22.8463 H   0  0  0  0  0  0  0  0  0  0  0  0
   18.7127   20.4417   22.2588 H   0  0  0  0  0  0  0  0  0  0  0  0
   19.1563   19.1916   23.9886 C   0  0  0  0  0  0  0  0  0  0  0  0
   18.8917   18.1868   24.3398 H   0  0  0  0  0  0  0  0  0  0  0  0
   20.2418   19.2111   23.8251 H   0  0  0  0  0  0  0  0  0  0  0  0
   18.7842   20.2384   25.0649 C   0  0  0  0  0  0  0  0  0  0  0  0
   17.7193   20.1418   25.3179 H   0  0  0  0  0  0  0  0  0  0  0  0
   18.9080   21.2442   24.6400 H   0  0  0  0  0  0  0  0  0  0  0  0
   19.6315   20.1551   26.3603 C   0  0  0  0  0  0  0  0  0  0  0  0
   20.6942   20.3127   26.1328 H   0  0  0  0  0  0  0  0  0  0  0  0
   19.3355   20.9895   27.0100 H   0  0  0  0  0  0  0  0  0  0  0  0
   19.4504   18.8490   27.1611 C   0  0  0  0  0  0  0  0  0  0  0  0
   18.3980   18.5529   27.1554 H   0  0  0  0  0  0  0  0  0  0  0  0
   19.7483   19.0233   28.1985 H   0  0  0  0  0  0  0  0  0  0  0  0
   20.2817   17.6876   26.6523 N   0  3  0  0  0  0  0  0  0  0  0  0
   21.2852   17.8949   26.6901 H   0  0  0  0  0  0  0  0  0  0  0  0
   20.0562   17.4571   25.6804 H   0  0  0  0  0  0  0  0  0  0  0  0
   20.1302   16.8392   27.2090 H   0  0  0  0  0  0  0  0  0  0  0  0
  1  2  1  0  0  0  0
  1  3  1  0  0  0  0
  1  4  1  0  0  0  0
  1  5  1  0  0  0  0
  5  6  1  0  0  0  0
  5  7  1  0  0  0  0
  5  8  1  0  0  0  0
  8  9  1  0  0  0  0
  8 10  1  0  0  0  0
  8 11  1  0  0  0  0
 11 12  1  0  0  0  0
 11 13  1  0  0  0  0
 11 14  1  0  0  0  0
 14 15  1  0  0  0  0
 14 16  1  0  0  0  0
 14 17  1  0  0  0  0
 17 18  1  0  0  0  0
 17 19  1  0  0  0  0
 17 20  1  0  0  0  0
 20 21  1  0  0  0  0
 20 22  1  0  0  0  0
 20 23  1  0  0  0  0
 23 24  1  0  0  0  0
 23 25  1  0  0  0  0
 23 26  1  0  0  0  0
 26 27  1  0  0  0  0
 26 28  1  0  0  0  0
 26 29  1  0  0  0  0
M  END
> <VM2 Rank>
295

> <Conf_Id>
151

> <Probability>
0.00

> <Sum Probability>
99.74

> <Delta G>
4.235

> <G>
62.383

> <E>
24.598

> <-TS>
37.785

> <U+W>
0.454

> <U>
52.666

> <W>
-52.212

> <W(PB)>
-54.643

> <W(SA)>
2.430

> <Valence>
5.120

> <Coulomb>
46.798

> <VdW>
0.748

> <VdW6>
-10.097

> <VdW12>
10.845

> <Bond>
0.281

> <Angle>
1.589

> <Pdih>
3.250

> <Idih>
0.000

> <Tether>
0.000

$$$$
VeraChem MOL file


 29 28  0  0  0  0  0  0  0  0999 V2000     
   20.4853   19.4635   19.7403 C   0  0  0  0  0  0  0  0  0  0  0  0
   20.8320   20.3880   20.2180 H   0  0  0  0  0  0  0  0  0  0  0  0
   21.2775   18.7093   19.8331 H   0  0  0  0  0  0  0  0  0  0  0  0
   20.3482   19.6764   18.6722 H   0  0  0  0  0  0  0  0  0  0  0  0
   19.1637   18.9611   20.3647 C   0  0  0  0  0  0  0  0  0  0  0  0
   18.7933   18.1138   19.7707 H   0  0  0  0  0  0  0  0  0  0  0  0
   18.3977   19.7457   20.2914 H   0  0  0  0  0  0  0  0  0  0  0  0
   19.3088   18.5068   21.8374 C   0  0  0  0  0  0  0  0  0  0  0  0
   18.3623   18.0437   22.1425 H   0  0  0  0  0  0  0  0  0  0  0  0
   20.0736   17.7210   21.9043 H   0  0  0  0  0  0  0  0  0  0  0  0
   19.6614   19.6638   22.8073 C   0  0  0  0  0  0  0  0  0  0  0  0
   18.9017   20.4543   22.7376 H   0  0  0  0  0  0  0  0  0  0  0  0
   20.6101   20.1192   22.4953 H   0  0  0  0  0  0  0  0  0  0  0  0
   19.8119   19.2149   24.2820 C   0  0  0  0  0  0  0  0  0  0  0  0
   20.5251   18.3813   24.3415 H   0  0  0  0  0  0  0  0  0  0  0  0
   20.2528   20.0513   24.8376 H   0  0  0  0  0  0  0  0  0  0  0  0
   18.4716   18.8158   24.9493 C   0  0  0  0  0  0  0  0  0  0  0  0
   17.9737   18.0472   24.3454 H   0  0  0  0  0  0  0  0  0  0  0  0
   17.7963   19.6824   24.9590 H   0  0  0  0  0  0  0  0  0  0  0  0
   18.6148   18.2593   26.3891 C   0  0  0  0  0  0  0  0  0  0  0  0
   17.6193   17.9415   26.7265 H   0  0  0  0  0  0  0  0  0  0  0  0
   19.2358   17.3536   26.3888 H   0  0  0  0  0  0  0  0  0  0  0  0
   19.1572   19.2722   27.4186 C   0  0  0  0  0  0  0  0  0  0  0  0
   18.8424   18.9652   28.4197 H   0  0  0  0  0  0  0  0  0  0  0  0
   18.7398   20.2631   27.2207 H   0  0  0  0  0  0  0  0  0  0  0  0
   20.6694   19.3806   27.4463 N   0  3  0  0  0  0  0  0  0  0  0  0
   21.1090   18.4857   27.6853 H   0  0  0  0  0  0  0  0  0  0  0  0
   20.9888   20.0655   28.1402 H   0  0  0  0  0  0  0  0  0  0  0  0
   21.0464   19.6699   26.5393 H   0  0  0  0  0  0  0  0  0  0  0  0
  1  2  1  0  0  0  0
  1  3  1  0  0  0  0
  1  4  1  0  0  0  0
  1  5  1  0  0  0  0
  5  6  1  0  0  0  0
  5  7  1  0  0  0  0
  5  8  1  0  0  0  0
  8  9  1  0  0  0  0
  8 10  1  0  0  0  0
  8 11  1  0  0  0  0
 11 12  1  0  0  0  0
 11 13  1  0  0  0  0
 11 14  1  0  0  0  0
 14 15  1  0  0  0  0
 14 16  1  0  0  0  0
 14 17  1  0  0  0  0
 17 18  1  0  0  0  0
 17 19  1  0  0  0  0
 17 20  1  0  0  0  0
 20 21  1  0  0  0  0
 20 22  1  0  0  0  0
 20 23  1  0  0  0  0
 23 24  1  0  0  0  0
 23 25  1  0  0  0  0
 23 26  1  0  0  0  0
 26 27  1  0  0  0  0
 26 28  1  0  0  0  0
 26 29  1  0  0  0  0
M  END
> <VM2 Rank>
296

> <Conf_Id>
1388

> <Probability>
0.00

> <Sum Probability>
99.74

> <Delta G>
4.235

> <G>
62.383

> <E>
24.992

> <-TS>
37.391

> <U+W>
0.847

> <U>
52.755

> <W>
-51.908

> <W(PB)>
-54.378

> <W(SA)>
2.469

> <Valence>
5.463

> <Coulomb>
46.244

> <VdW>
1.049

> <VdW6>
-9.558

> <VdW12>
10.607

> <Bond>
0.295

> <Angle>
1.567

> <Pdih>
3.600

> <Idih>
0.000

> <Tether>
0.000

$$$$
VeraChem MOL file


 29 28  0  0  0  0  0  0  0  0999 V2000     
   20.7998   17.9859   20.4113 C   0  0  0  0  0  0  0  0  0  0  0  0
   21.7388   18.5501   20.4835 H   0  0  0  0  0  0  0  0  0  0  0  0
   20.9130   17.0582   20.9873 H   0  0  0  0  0  0  0  0  0  0  0  0
   20.6506   17.7130   19.3586 H   0  0  0  0  0  0  0  0  0  0  0  0
   19.6102   18.8203   20.9316 C   0  0  0  0  0  0  0  0  0  0  0  0
   18.6821   18.2431   20.8164 H   0  0  0  0  0  0  0  0  0  0  0  0
   19.5009   19.7232   20.3147 H   0  0  0  0  0  0  0  0  0  0  0  0
   19.7956   19.2185   22.4124 C   0  0  0  0  0  0  0  0  0  0  0  0
   19.9189   18.3101   23.0119 H   0  0  0  0  0  0  0  0  0  0  0  0
   20.7236   19.7967   22.5197 H   0  0  0  0  0  0  0  0  0  0  0  0
   18.6027   20.0561   22.9343 C   0  0  0  0  0  0  0  0  0  0  0  0
   17.6644   19.4955   22.8237 H   0  0  0  0  0  0  0  0  0  0  0  0
   18.5034   20.9420   22.2918 H   0  0  0  0  0  0  0  0  0  0  0  0
   18.7661   20.5385   24.3997 C   0  0  0  0  0  0  0  0  0  0  0  0
   19.8242   20.7232   24.6278 H   0  0  0  0  0  0  0  0  0  0  0  0
   18.2762   21.5184   24.4851 H   0  0  0  0  0  0  0  0  0  0  0  0
   18.1243   19.6125   25.4680 C   0  0  0  0  0  0  0  0  0  0  0  0
   17.0529   19.5046   25.2498 H   0  0  0  0  0  0  0  0  0  0  0  0
   18.1749   20.1162   26.4426 H   0  0  0  0  0  0  0  0  0  0  0  0
   18.7505   18.2013   25.5995 C   0  0  0  0  0  0  0  0  0  0  0  0
   18.2408   17.6567   26.4053 H   0  0  0  0  0  0  0  0  0  0  0  0
   18.5574   17.6259   24.6858 H   0  0  0  0  0  0  0  0  0  0  0  0
   20.2657   18.2149   25.8854 C   0  0  0  0  0  0  0  0  0  0  0  0
   20.7892   18.7356   25.0797 H   0  0  0  0  0  0  0  0  0  0  0  0
   20.6377   17.1876   25.9261 H   0  0  0  0  0  0  0  0  0  0  0  0
   20.6292   18.8898   27.1928 N   0  3  0  0  0  0  0  0  0  0  0  0
   20.3284   19.8694   27.2068 H   0  0  0  0  0  0  0  0  0  0  0  0
   21.6415   18.8814   27.3583 H   0  0  0  0  0  0  0  0  0  0  0  0
   20.1897   18.4261   27.9946 H   0  0  0  0  0  0  0  0  0  0  0  0
  1  2  1  0  0  0  0
  1  3  1  0  0  0  0
  1  4  1  0  0  0  0
  1  5  1  0  0  0  0
  5  6  1  0  0  0  0
  5  7  1  0  0  0  0
  5  8  1  0  0  0  0
  8  9  1  0  0  0  0
  8 10  1  0  0  0  0
  8 11  1  0  0  0  0
 11 12  1  0  0  0  0
 11 13  1  0  0  0  0
 11 14  1  0  0  0  0
 14 15  1  0  0  0  0
 14 16  1  0  0  0  0
 14 17  1  0  0  0  0
 17 18  1  0  0  0  0
 17 19  1  0  0  0  0
 17 20  1  0  0  0  0
 20 21  1  0  0  0  0
 20 22  1  0  0  0  0
 20 23  1  0  0  0  0
 23 24  1  0  0  0  0
 23 25  1  0  0  0  0
 23 26  1  0  0  0  0
 26 27  1  0  0  0  0
 26 28  1  0  0  0  0
 26 29  1  0  0  0  0
M  END
> <VM2 Rank>
297

> <Conf_Id>
667

> <Probability>
0.00

> <Sum Probability>
99.75

> <Delta G>
4.246

> <G>
62.394

> <E>
24.318

> <-TS>
38.076

> <U+W>
0.173

> <U>
52.558

> <W>
-52.385

> <W(PB)>
-54.809

> <W(SA)>
2.424

> <Valence>
5.998

> <Coulomb>
46.093

> <VdW>
0.468

> <VdW6>
-10.461

> <VdW12>
10.928

> <Bond>
0.286

> <Angle>
1.671

> <Pdih>
4.041

> <Idih>
0.000

> <Tether>
0.000

$$$$
VeraChem MOL file


 29 28  0  0  0  0  0  0  0  0999 V2000     
   21.5030   18.9637   21.7176 C   0  0  0  0  0  0  0  0  0  0  0  0
   21.4198   17.9538   22.1377 H   0  0  0  0  0  0  0  0  0  0  0  0
   22.2588   18.9284   20.9224 H   0  0  0  0  0  0  0  0  0  0  0  0
   21.8743   19.6346   22.5030 H   0  0  0  0  0  0  0  0  0  0  0  0
   20.1512   19.4599   21.1558 C   0  0  0  0  0  0  0  0  0  0  0  0
   19.7897   18.7620   20.3877 H   0  0  0  0  0  0  0  0  0  0  0  0
   20.3113   20.4210   20.6475 H   0  0  0  0  0  0  0  0  0  0  0  0
   19.0687   19.6486   22.2450 C   0  0  0  0  0  0  0  0  0  0  0  0
   19.4427   20.3480   23.0029 H   0  0  0  0  0  0  0  0  0  0  0  0
   18.1921   20.1292   21.7894 H   0  0  0  0  0  0  0  0  0  0  0  0
   18.6243   18.3182   22.9042 C   0  0  0  0  0  0  0  0  0  0  0  0
   19.4723   17.8153   23.3826 H   0  0  0  0  0  0  0  0  0  0  0  0
   18.2801   17.6336   22.1169 H   0  0  0  0  0  0  0  0  0  0  0  0
   17.4785   18.4924   23.9321 C   0  0  0  0  0  0  0  0  0  0  0  0
   16.5966   18.8902   23.4115 H   0  0  0  0  0  0  0  0  0  0  0  0
   17.1836   17.4996   24.2988 H   0  0  0  0  0  0  0  0  0  0  0  0
   17.7852   19.4037   25.1517 C   0  0  0  0  0  0  0  0  0  0  0  0
   16.8744   19.4453   25.7649 H   0  0  0  0  0  0  0  0  0  0  0  0
   17.9649   20.4377   24.8284 H   0  0  0  0  0  0  0  0  0  0  0  0
   18.9455   18.9152   26.0559 C   0  0  0  0  0  0  0  0  0  0  0  0
   18.7789   19.2953   27.0726 H   0  0  0  0  0  0  0  0  0  0  0  0
   18.9303   17.8197   26.1285 H   0  0  0  0  0  0  0  0  0  0  0  0
   20.3307   19.4004   25.5862 C   0  0  0  0  0  0  0  0  0  0  0  0
   20.3472   20.4933   25.5637 H   0  0  0  0  0  0  0  0  0  0  0  0
   20.5382   19.0355   24.5787 H   0  0  0  0  0  0  0  0  0  0  0  0
   21.4569   18.9359   26.4864 N   0  3  0  0  0  0  0  0  0  0  0  0
   21.3403   19.2732   27.4476 H   0  0  0  0  0  0  0  0  0  0  0  0
   22.3694   19.2724   26.1602 H   0  0  0  0  0  0  0  0  0  0  0  0
   21.5130   17.9130   26.5305 H   0  0  0  0  0  0  0  0  0  0  0  0
  1  2  1  0  0  0  0
  1  3  1  0  0  0  0
  1  4  1  0  0  0  0
  1  5  1  0  0  0  0
  5  6  1  0  0  0  0
  5  7  1  0  0  0  0
  5  8  1  0  0  0  0
  8  9  1  0  0  0  0
  8 10  1  0  0  0  0
  8 11  1  0  0  0  0
 11 12  1  0  0  0  0
 11 13  1  0  0  0  0
 11 14  1  0  0  0  0
 14 15  1  0  0  0  0
 14 16  1  0  0  0  0
 14 17  1  0  0  0  0
 17 18  1  0  0  0  0
 17 19  1  0  0  0  0
 17 20  1  0  0  0  0
 20 21  1  0  0  0  0
 20 22  1  0  0  0  0
 20 23  1  0  0  0  0
 23 24  1  0  0  0  0
 23 25  1  0  0  0  0
 23 26  1  0  0  0  0
 26 27  1  0  0  0  0
 26 28  1  0  0  0  0
 26 29  1  0  0  0  0
M  END
> <VM2 Rank>
298

> <Conf_Id>
1997

> <Probability>
0.00

> <Sum Probability>
99.75

> <Delta G>
4.250

> <G>
62.398

> <E>
24.102

> <-TS>
38.297

> <U+W>
-0.043

> <U>
52.818

> <W>
-52.861

> <W(PB)>
-55.231

> <W(SA)>
2.370

> <Valence>
5.947

> <Coulomb>
46.654

> <VdW>
0.217

> <VdW6>
-11.210

> <VdW12>
11.427

> <Bond>
0.301

> <Angle>
1.903

> <Pdih>
3.744

> <Idih>
0.000

> <Tether>
0.000

$$$$
VeraChem MOL file


 29 28  0  0  0  0  0  0  0  0999 V2000     
   20.3387   17.9053   20.8393 C   0  0  0  0  0  0  0  0  0  0  0  0
   20.3025   17.4603   21.8413 H   0  0  0  0  0  0  0  0  0  0  0  0
   20.4485   17.0836   20.1199 H   0  0  0  0  0  0  0  0  0  0  0  0
   21.2338   18.5366   20.7680 H   0  0  0  0  0  0  0  0  0  0  0  0
   19.0593   18.7165   20.5403 C   0  0  0  0  0  0  0  0  0  0  0  0
   18.1791   18.0752   20.6874 H   0  0  0  0  0  0  0  0  0  0  0  0
   19.0588   18.9945   19.4771 H   0  0  0  0  0  0  0  0  0  0  0  0
   18.9088   20.0071   21.3855 C   0  0  0  0  0  0  0  0  0  0  0  0
   19.7291   20.7026   21.1612 H   0  0  0  0  0  0  0  0  0  0  0  0
   17.9923   20.5140   21.0535 H   0  0  0  0  0  0  0  0  0  0  0  0
   18.8034   19.7719   22.9150 C   0  0  0  0  0  0  0  0  0  0  0  0
   18.3437   18.7937   23.1055 H   0  0  0  0  0  0  0  0  0  0  0  0
   18.1155   20.5191   23.3343 H   0  0  0  0  0  0  0  0  0  0  0  0
   20.1618   19.9004   23.6518 C   0  0  0  0  0  0  0  0  0  0  0  0
   20.8816   19.1678   23.2684 H   0  0  0  0  0  0  0  0  0  0  0  0
   20.5899   20.8887   23.4350 H   0  0  0  0  0  0  0  0  0  0  0  0
   20.0454   19.7463   25.1878 C   0  0  0  0  0  0  0  0  0  0  0  0
   19.3373   20.4908   25.5753 H   0  0  0  0  0  0  0  0  0  0  0  0
   21.0204   19.9829   25.6361 H   0  0  0  0  0  0  0  0  0  0  0  0
   19.6208   18.3245   25.6326 C   0  0  0  0  0  0  0  0  0  0  0  0
   18.6034   18.1012   25.2876 H   0  0  0  0  0  0  0  0  0  0  0  0
   20.2823   17.5837   25.1642 H   0  0  0  0  0  0  0  0  0  0  0  0
   19.6857   18.1396   27.1607 C   0  0  0  0  0  0  0  0  0  0  0  0
   20.6969   18.3567   27.5152 H   0  0  0  0  0  0  0  0  0  0  0  0
   19.4514   17.1015   27.4115 H   0  0  0  0  0  0  0  0  0  0  0  0
   18.7202   19.0264   27.9220 N   0  3  0  0  0  0  0  0  0  0  0  0
   18.9079   20.0202   27.7562 H   0  0  0  0  0  0  0  0  0  0  0  0
   18.7803   18.8735   28.9347 H   0  0  0  0  0  0  0  0  0  0  0  0
   17.7474   18.8517   27.6492 H   0  0  0  0  0  0  0  0  0  0  0  0
  1  2  1  0  0  0  0
  1  3  1  0  0  0  0
  1  4  1  0  0  0  0
  1  5  1  0  0  0  0
  5  6  1  0  0  0  0
  5  7  1  0  0  0  0
  5  8  1  0  0  0  0
  8  9  1  0  0  0  0
  8 10  1  0  0  0  0
  8 11  1  0  0  0  0
 11 12  1  0  0  0  0
 11 13  1  0  0  0  0
 11 14  1  0  0  0  0
 14 15  1  0  0  0  0
 14 16  1  0  0  0  0
 14 17  1  0  0  0  0
 17 18  1  0  0  0  0
 17 19  1  0  0  0  0
 17 20  1  0  0  0  0
 20 21  1  0  0  0  0
 20 22  1  0  0  0  0
 20 23  1  0  0  0  0
 23 24  1  0  0  0  0
 23 25  1  0  0  0  0
 23 26  1  0  0  0  0
 26 27  1  0  0  0  0
 26 28  1  0  0  0  0
 26 29  1  0  0  0  0
M  END
> <VM2 Rank>
299

> <Conf_Id>
670

> <Probability>
0.00

> <Sum Probability>
99.76

> <Delta G>
4.254

> <G>
62.402

> <E>
24.684

> <-TS>
37.718

> <U+W>
0.540

> <U>
52.421

> <W>
-51.881

> <W(PB)>
-54.311

> <W(SA)>
2.430

> <Valence>
6.172

> <Coulomb>
45.274

> <VdW>
0.975

> <VdW6>
-9.790

> <VdW12>
10.764

> <Bond>
0.295

> <Angle>
1.437

> <Pdih>
4.440

> <Idih>
0.000

> <Tether>
0.000

$$$$
VeraChem MOL file


 29 28  0  0  0  0  0  0  0  0999 V2000     
   20.0631   18.2791   19.7138 C   0  0  0  0  0  0  0  0  0  0  0  0
   19.7404   17.3256   20.1495 H   0  0  0  0  0  0  0  0  0  0  0  0
   19.8372   18.2434   18.6402 H   0  0  0  0  0  0  0  0  0  0  0  0
   21.1523   18.3580   19.8251 H   0  0  0  0  0  0  0  0  0  0  0  0
   19.3484   19.4788   20.3764 C   0  0  0  0  0  0  0  0  0  0  0  0
   18.2600   19.3590   20.2829 H   0  0  0  0  0  0  0  0  0  0  0  0
   19.6056   20.3920   19.8218 H   0  0  0  0  0  0  0  0  0  0  0  0
   19.7273   19.6799   21.8638 C   0  0  0  0  0  0  0  0  0  0  0  0
   20.8157   19.8017   21.9509 H   0  0  0  0  0  0  0  0  0  0  0  0
   19.2826   20.6246   22.2005 H   0  0  0  0  0  0  0  0  0  0  0  0
   19.2553   18.5232   22.7818 C   0  0  0  0  0  0  0  0  0  0  0  0
   19.7071   17.5835   22.4388 H   0  0  0  0  0  0  0  0  0  0  0  0
   18.1680   18.3944   22.6913 H   0  0  0  0  0  0  0  0  0  0  0  0
   19.6344   18.7171   24.2710 C   0  0  0  0  0  0  0  0  0  0  0  0
   19.4400   17.7689   24.7866 H   0  0  0  0  0  0  0  0  0  0  0  0
   20.7129   18.9097   24.3536 H   0  0  0  0  0  0  0  0  0  0  0  0
   18.8379   19.8462   24.9723 C   0  0  0  0  0  0  0  0  0  0  0  0
   17.7670   19.6011   24.9572 H   0  0  0  0  0  0  0  0  0  0  0  0
   18.9458   20.7796   24.4064 H   0  0  0  0  0  0  0  0  0  0  0  0
   19.2800   20.1297   26.4309 C   0  0  0  0  0  0  0  0  0  0  0  0
   20.3333   20.4392   26.4576 H   0  0  0  0  0  0  0  0  0  0  0  0
   18.7039   20.9908   26.7947 H   0  0  0  0  0  0  0  0  0  0  0  0
   19.0469   18.9619   27.4117 C   0  0  0  0  0  0  0  0  0  0  0  0
   18.1004   18.4657   27.1807 H   0  0  0  0  0  0  0  0  0  0  0  0
   18.9826   19.3587   28.4285 H   0  0  0  0  0  0  0  0  0  0  0  0
   20.1507   17.9222   27.4135 N   0  3  0  0  0  0  0  0  0  0  0  0
   20.2730   17.4962   26.4905 H   0  0  0  0  0  0  0  0  0  0  0  0
   19.9564   17.1626   28.0752 H   0  0  0  0  0  0  0  0  0  0  0  0
   21.0532   18.3285   27.6815 H   0  0  0  0  0  0  0  0  0  0  0  0
  1  2  1  0  0  0  0
  1  3  1  0  0  0  0
  1  4  1  0  0  0  0
  1  5  1  0  0  0  0
  5  6  1  0  0  0  0
  5  7  1  0  0  0  0
  5  8  1  0  0  0  0
  8  9  1  0  0  0  0
  8 10  1  0  0  0  0
  8 11  1  0  0  0  0
 11 12  1  0  0  0  0
 11 13  1  0  0  0  0
 11 14  1  0  0  0  0
 14 15  1  0  0  0  0
 14 16  1  0  0  0  0
 14 17  1  0  0  0  0
 17 18  1  0  0  0  0
 17 19  1  0  0  0  0
 17 20  1  0  0  0  0
 20 21  1  0  0  0  0
 20 22  1  0  0  0  0
 20 23  1  0  0  0  0
 23 24  1  0  0  0  0
 23 25  1  0  0  0  0
 23 26  1  0  0  0  0
 26 27  1  0  0  0  0
 26 28  1  0  0  0  0
 26 29  1  0  0  0  0
M  END
> <VM2 Rank>
300

> <Conf_Id>
1938

> <Probability>
0.00

> <Sum Probability>
99.76

> <Delta G>
4.260

> <G>
62.408

> <E>
25.015

> <-TS>
37.393

> <U+W>
0.871

> <U>
52.756

> <W>
-51.885

> <W(PB)>
-54.370

> <W(SA)>
2.485

> <Valence>
5.463

> <Coulomb>
46.244

> <VdW>
1.049

> <VdW6>
-9.558

> <VdW12>
10.607

> <Bond>
0.295

> <Angle>
1.567

> <Pdih>
3.601

> <Idih>
0.000

> <Tether>
0.000

$$$$
VeraChem MOL file


 29 28  0  0  0  0  0  0  0  0999 V2000     
   20.9809   18.6997   20.1326 C   0  0  0  0  0  0  0  0  0  0  0  0
   21.3704   17.7341   20.4805 H   0  0  0  0  0  0  0  0  0  0  0  0
   20.9624   18.6802   19.0352 H   0  0  0  0  0  0  0  0  0  0  0  0
   21.6832   19.4840   20.4439 H   0  0  0  0  0  0  0  0  0  0  0  0
   19.5688   18.9637   20.6966 C   0  0  0  0  0  0  0  0  0  0  0  0
   18.8825   18.1830   20.3398 H   0  0  0  0  0  0  0  0  0  0  0  0
   19.1926   19.9197   20.3060 H   0  0  0  0  0  0  0  0  0  0  0  0
   19.5672   18.9949   22.2409 C   0  0  0  0  0  0  0  0  0  0  0  0
   19.9383   18.0358   22.6274 H   0  0  0  0  0  0  0  0  0  0  0  0
   20.2613   19.7746   22.5792 H   0  0  0  0  0  0  0  0  0  0  0  0
   18.1566   19.2741   22.8088 C   0  0  0  0  0  0  0  0  0  0  0  0
   17.4411   18.5828   22.3426 H   0  0  0  0  0  0  0  0  0  0  0  0
   17.8390   20.2846   22.5167 H   0  0  0  0  0  0  0  0  0  0  0  0
   18.0417   19.1210   24.3474 C   0  0  0  0  0  0  0  0  0  0  0  0
   16.9908   19.2985   24.6147 H   0  0  0  0  0  0  0  0  0  0  0  0
   18.2426   18.0811   24.6342 H   0  0  0  0  0  0  0  0  0  0  0  0
   18.9163   20.1061   25.1708 C   0  0  0  0  0  0  0  0  0  0  0  0
   18.3689   20.3823   26.0817 H   0  0  0  0  0  0  0  0  0  0  0  0
   19.0377   21.0444   24.6123 H   0  0  0  0  0  0  0  0  0  0  0  0
   20.3124   19.5640   25.5825 C   0  0  0  0  0  0  0  0  0  0  0  0
   20.9115   19.3391   24.6935 H   0  0  0  0  0  0  0  0  0  0  0  0
   20.8566   20.3532   26.1180 H   0  0  0  0  0  0  0  0  0  0  0  0
   20.2657   18.3044   26.4718 C   0  0  0  0  0  0  0  0  0  0  0  0
   21.2861   17.9899   26.7069 H   0  0  0  0  0  0  0  0  0  0  0  0
   19.7759   17.4878   25.9358 H   0  0  0  0  0  0  0  0  0  0  0  0
   19.5344   18.5100   27.7834 N   0  3  0  0  0  0  0  0  0  0  0  0
   19.9655   19.2500   28.3472 H   0  0  0  0  0  0  0  0  0  0  0  0
   19.5315   17.6588   28.3559 H   0  0  0  0  0  0  0  0  0  0  0  0
   18.5561   18.7747   27.6314 H   0  0  0  0  0  0  0  0  0  0  0  0
  1  2  1  0  0  0  0
  1  3  1  0  0  0  0
  1  4  1  0  0  0  0
  1  5  1  0  0  0  0
  5  6  1  0  0  0  0
  5  7  1  0  0  0  0
  5  8  1  0  0  0  0
  8  9  1  0  0  0  0
  8 10  1  0  0  0  0
  8 11  1  0  0  0  0
 11 12  1  0  0  0  0
 11 13  1  0  0  0  0
 11 14  1  0  0  0  0
 14 15  1  0  0  0  0
 14 16  1  0  0  0  0
 14 17  1  0  0  0  0
 17 18  1  0  0  0  0
 17 19  1  0  0  0  0
 17 20  1  0  0  0  0
 20 21  1  0  0  0  0
 20 22  1  0  0  0  0
 20 23  1  0  0  0  0
 23 24  1  0  0  0  0
 23 25  1  0  0  0  0
 23 26  1  0  0  0  0
 26 27  1  0  0  0  0
 26 28  1  0  0  0  0
 26 29  1  0  0  0  0
M  END
> <VM2 Rank>
301

> <Conf_Id>
2652

> <Probability>
0.00

> <Sum Probability>
99.76

> <Delta G>
4.262

> <G>
62.410

> <E>
24.748

> <-TS>
37.662

> <U+W>
0.603

> <U>
52.659

> <W>
-52.056

> <W(PB)>
-54.502

> <W(SA)>
2.446

> <Valence>
6.136

> <Coulomb>
45.636

> <VdW>
0.887

> <VdW6>
-9.873

> <VdW12>
10.760

> <Bond>
0.306

> <Angle>
1.639

> <Pdih>
4.191

> <Idih>
0.000

> <Tether>
0.000

$$$$
VeraChem MOL file


 29 28  0  0  0  0  0  0  0  0999 V2000     
   20.7981   19.4385   20.2601 C   0  0  0  0  0  0  0  0  0  0  0  0
   20.3131   20.4224   20.2784 H   0  0  0  0  0  0  0  0  0  0  0  0
   21.6925   19.4838   20.8949 H   0  0  0  0  0  0  0  0  0  0  0  0
   21.1267   19.2512   19.2296 H   0  0  0  0  0  0  0  0  0  0  0  0
   19.8373   18.3242   20.7327 C   0  0  0  0  0  0  0  0  0  0  0  0
   20.3251   17.3501   20.5879 H   0  0  0  0  0  0  0  0  0  0  0  0
   18.9402   18.3161   20.0980 H   0  0  0  0  0  0  0  0  0  0  0  0
   19.4264   18.4586   22.2186 C   0  0  0  0  0  0  0  0  0  0  0  0
   18.8280   17.5802   22.4963 H   0  0  0  0  0  0  0  0  0  0  0  0
   20.3301   18.4373   22.8415 H   0  0  0  0  0  0  0  0  0  0  0  0
   18.6129   19.7418   22.5161 C   0  0  0  0  0  0  0  0  0  0  0  0
   17.8011   19.8277   21.7809 H   0  0  0  0  0  0  0  0  0  0  0  0
   19.2492   20.6256   22.3759 H   0  0  0  0  0  0  0  0  0  0  0  0
   17.9909   19.7879   23.9356 C   0  0  0  0  0  0  0  0  0  0  0  0
   17.3951   20.7086   24.0044 H   0  0  0  0  0  0  0  0  0  0  0  0
   17.2760   18.9634   24.0632 H   0  0  0  0  0  0  0  0  0  0  0  0
   19.0217   19.7930   25.0946 C   0  0  0  0  0  0  0  0  0  0  0  0
   18.6358   20.4417   25.8922 H   0  0  0  0  0  0  0  0  0  0  0  0
   19.9633   20.2495   24.7595 H   0  0  0  0  0  0  0  0  0  0  0  0
   19.2857   18.3863   25.6894 C   0  0  0  0  0  0  0  0  0  0  0  0
   18.3558   17.9773   26.1063 H   0  0  0  0  0  0  0  0  0  0  0  0
   19.6002   17.6931   24.9014 H   0  0  0  0  0  0  0  0  0  0  0  0
   20.3730   18.3992   26.7811 C   0  0  0  0  0  0  0  0  0  0  0  0
   21.2995   18.8116   26.3727 H   0  0  0  0  0  0  0  0  0  0  0  0
   20.5705   17.3747   27.1083 H   0  0  0  0  0  0  0  0  0  0  0  0
   19.9979   19.2086   28.0068 N   0  3  0  0  0  0  0  0  0  0  0  0
   19.8330   20.1931   27.7749 H   0  0  0  0  0  0  0  0  0  0  0  0
   20.7368   19.1868   28.7182 H   0  0  0  0  0  0  0  0  0  0  0  0
   19.1441   18.8540   28.4502 H   0  0  0  0  0  0  0  0  0  0  0  0
  1  2  1  0  0  0  0
  1  3  1  0  0  0  0
  1  4  1  0  0  0  0
  1  5  1  0  0  0  0
  5  6  1  0  0  0  0
  5  7  1  0  0  0  0
  5  8  1  0  0  0  0
  8  9  1  0  0  0  0
  8 10  1  0  0  0  0
  8 11  1  0  0  0  0
 11 12  1  0  0  0  0
 11 13  1  0  0  0  0
 11 14  1  0  0  0  0
 14 15  1  0  0  0  0
 14 16  1  0  0  0  0
 14 17  1  0  0  0  0
 17 18  1  0  0  0  0
 17 19  1  0  0  0  0
 17 20  1  0  0  0  0
 20 21  1  0  0  0  0
 20 22  1  0  0  0  0
 20 23  1  0  0  0  0
 23 24  1  0  0  0  0
 23 25  1  0  0  0  0
 23 26  1  0  0  0  0
 26 27  1  0  0  0  0
 26 28  1  0  0  0  0
 26 29  1  0  0  0  0
M  END
> <VM2 Rank>
302

> <Conf_Id>
1548

> <Probability>
0.00

> <Sum Probability>
99.77

> <Delta G>
4.265

> <G>
62.413

> <E>
24.604

> <-TS>
37.809

> <U+W>
0.460

> <U>
52.441

> <W>
-51.981

> <W(PB)>
-54.435

> <W(SA)>
2.454

> <Valence>
6.199

> <Coulomb>
45.232

> <VdW>
1.010

> <VdW6>
-9.756

> <VdW12>
10.767

> <Bond>
0.290

> <Angle>
1.372

> <Pdih>
4.537

> <Idih>
0.000

> <Tether>
0.000

$$$$
VeraChem MOL file


 29 28  0  0  0  0  0  0  0  0999 V2000     
   21.0896   19.4980   21.0463 C   0  0  0  0  0  0  0  0  0  0  0  0
   21.1782   19.8885   22.0675 H   0  0  0  0  0  0  0  0  0  0  0  0
   21.4193   18.4510   21.0413 H   0  0  0  0  0  0  0  0  0  0  0  0
   21.7811   20.0713   20.4154 H   0  0  0  0  0  0  0  0  0  0  0  0
   19.6440   19.6297   20.5199 C   0  0  0  0  0  0  0  0  0  0  0  0
   19.6370   19.3934   19.4466 H   0  0  0  0  0  0  0  0  0  0  0  0
   19.3204   20.6766   20.6030 H   0  0  0  0  0  0  0  0  0  0  0  0
   18.6185   18.7108   21.2317 C   0  0  0  0  0  0  0  0  0  0  0  0
   17.6456   18.8623   20.7441 H   0  0  0  0  0  0  0  0  0  0  0  0
   18.8741   17.6563   21.0600 H   0  0  0  0  0  0  0  0  0  0  0  0
   18.4458   18.9845   22.7487 C   0  0  0  0  0  0  0  0  0  0  0  0
   17.3930   18.8162   23.0137 H   0  0  0  0  0  0  0  0  0  0  0  0
   18.6466   20.0434   22.9554 H   0  0  0  0  0  0  0  0  0  0  0  0
   19.3202   18.0669   23.6422 C   0  0  0  0  0  0  0  0  0  0  0  0
   19.0938   17.0195   23.3997 H   0  0  0  0  0  0  0  0  0  0  0  0
   20.3842   18.2063   23.4180 H   0  0  0  0  0  0  0  0  0  0  0  0
   19.0866   18.2758   25.1585 C   0  0  0  0  0  0  0  0  0  0  0  0
   19.6214   17.4832   25.6983 H   0  0  0  0  0  0  0  0  0  0  0  0
   18.0208   18.1420   25.3897 H   0  0  0  0  0  0  0  0  0  0  0  0
   19.5642   19.6577   25.6713 C   0  0  0  0  0  0  0  0  0  0  0  0
   20.6230   19.8068   25.4213 H   0  0  0  0  0  0  0  0  0  0  0  0
   19.0066   20.4558   25.1661 H   0  0  0  0  0  0  0  0  0  0  0  0
   19.3658   19.8283   27.1898 C   0  0  0  0  0  0  0  0  0  0  0  0
   18.3158   19.6617   27.4449 H   0  0  0  0  0  0  0  0  0  0  0  0
   19.6286   20.8501   27.4768 H   0  0  0  0  0  0  0  0  0  0  0  0
   20.2091   18.8862   28.0264 N   0  3  0  0  0  0  0  0  0  0  0  0
   19.9864   17.9048   27.8332 H   0  0  0  0  0  0  0  0  0  0  0  0
   20.0634   19.0353   29.0310 H   0  0  0  0  0  0  0  0  0  0  0  0
   21.2108   19.0112   27.8469 H   0  0  0  0  0  0  0  0  0  0  0  0
  1  2  1  0  0  0  0
  1  3  1  0  0  0  0
  1  4  1  0  0  0  0
  1  5  1  0  0  0  0
  5  6  1  0  0  0  0
  5  7  1  0  0  0  0
  5  8  1  0  0  0  0
  8  9  1  0  0  0  0
  8 10  1  0  0  0  0
  8 11  1  0  0  0  0
 11 12  1  0  0  0  0
 11 13  1  0  0  0  0
 11 14  1  0  0  0  0
 14 15  1  0  0  0  0
 14 16  1  0  0  0  0
 14 17  1  0  0  0  0
 17 18  1  0  0  0  0
 17 19  1  0  0  0  0
 17 20  1  0  0  0  0
 20 21  1  0  0  0  0
 20 22  1  0  0  0  0
 20 23  1  0  0  0  0
 23 24  1  0  0  0  0
 23 25  1  0  0  0  0
 23 26  1  0  0  0  0
 26 27  1  0  0  0  0
 26 28  1  0  0  0  0
 26 29  1  0  0  0  0
M  END
> <VM2 Rank>
303

> <Conf_Id>
2621

> <Probability>
0.00

> <Sum Probability>
99.77

> <Delta G>
4.266

> <G>
62.414

> <E>
24.740

> <-TS>
37.674

> <U+W>
0.596

> <U>
52.421

> <W>
-51.825

> <W(PB)>
-54.271

> <W(SA)>
2.446

> <Valence>
6.205

> <Coulomb>
45.185

> <VdW>
1.031

> <VdW6>
-9.741

> <VdW12>
10.772

> <Bond>
0.301

> <Angle>
1.486

> <Pdih>
4.418

> <Idih>
0.000

> <Tether>
0.000

$$$$
VeraChem MOL file


 29 28  0  0  0  0  0  0  0  0999 V2000     
   21.2083   19.3324   21.0862 C   0  0  0  0  0  0  0  0  0  0  0  0
   21.7033   18.3772   20.8679 H   0  0  0  0  0  0  0  0  0  0  0  0
   21.7180   20.1117   20.5050 H   0  0  0  0  0  0  0  0  0  0  0  0
   21.3615   19.5565   22.1475 H   0  0  0  0  0  0  0  0  0  0  0  0
   19.7085   19.2740   20.7133 C   0  0  0  0  0  0  0  0  0  0  0  0
   19.6358   19.0729   19.6352 H   0  0  0  0  0  0  0  0  0  0  0  0
   19.2372   20.2542   20.8702 H   0  0  0  0  0  0  0  0  0  0  0  0
   18.9270   18.1722   21.4744 C   0  0  0  0  0  0  0  0  0  0  0  0
   18.1654   17.7632   20.7961 H   0  0  0  0  0  0  0  0  0  0  0  0
   19.5921   17.3311   21.7135 H   0  0  0  0  0  0  0  0  0  0  0  0
   18.1984   18.6563   22.7546 C   0  0  0  0  0  0  0  0  0  0  0  0
   17.6288   17.8113   23.1655 H   0  0  0  0  0  0  0  0  0  0  0  0
   17.4579   19.4220   22.4852 H   0  0  0  0  0  0  0  0  0  0  0  0
   19.1363   19.2115   23.8510 C   0  0  0  0  0  0  0  0  0  0  0  0
   19.9389   18.4869   24.0410 H   0  0  0  0  0  0  0  0  0  0  0  0
   19.6088   20.1366   23.4964 H   0  0  0  0  0  0  0  0  0  0  0  0
   18.3709   19.5106   25.1621 C   0  0  0  0  0  0  0  0  0  0  0  0
   17.9166   18.5876   25.5466 H   0  0  0  0  0  0  0  0  0  0  0  0
   17.5378   20.1932   24.9447 H   0  0  0  0  0  0  0  0  0  0  0  0
   19.2625   20.1531   26.2541 C   0  0  0  0  0  0  0  0  0  0  0  0
   19.6371   21.1200   25.8925 H   0  0  0  0  0  0  0  0  0  0  0  0
   18.6507   20.3735   27.1389 H   0  0  0  0  0  0  0  0  0  0  0  0
   20.4643   19.2835   26.6752 C   0  0  0  0  0  0  0  0  0  0  0  0
   21.0528   19.8167   27.4267 H   0  0  0  0  0  0  0  0  0  0  0  0
   21.1068   19.0967   25.8109 H   0  0  0  0  0  0  0  0  0  0  0  0
   20.0679   17.9444   27.2642 N   0  3  0  0  0  0  0  0  0  0  0  0
   19.4841   18.0548   28.0998 H   0  0  0  0  0  0  0  0  0  0  0  0
   20.8868   17.3917   27.5404 H   0  0  0  0  0  0  0  0  0  0  0  0
   19.5351   17.3812   26.5939 H   0  0  0  0  0  0  0  0  0  0  0  0
  1  2  1  0  0  0  0
  1  3  1  0  0  0  0
  1  4  1  0  0  0  0
  1  5  1  0  0  0  0
  5  6  1  0  0  0  0
  5  7  1  0  0  0  0
  5  8  1  0  0  0  0
  8  9  1  0  0  0  0
  8 10  1  0  0  0  0
  8 11  1  0  0  0  0
 11 12  1  0  0  0  0
 11 13  1  0  0  0  0
 11 14  1  0  0  0  0
 14 15  1  0  0  0  0
 14 16  1  0  0  0  0
 14 17  1  0  0  0  0
 17 18  1  0  0  0  0
 17 19  1  0  0  0  0
 17 20  1  0  0  0  0
 20 21  1  0  0  0  0
 20 22  1  0  0  0  0
 20 23  1  0  0  0  0
 23 24  1  0  0  0  0
 23 25  1  0  0  0  0
 23 26  1  0  0  0  0
 26 27  1  0  0  0  0
 26 28  1  0  0  0  0
 26 29  1  0  0  0  0
M  END
> <VM2 Rank>
304

> <Conf_Id>
2512

> <Probability>
0.00

> <Sum Probability>
99.78

> <Delta G>
4.266

> <G>
62.414

> <E>
24.590

> <-TS>
37.824

> <U+W>
0.446

> <U>
52.518

> <W>
-52.072

> <W(PB)>
-54.534

> <W(SA)>
2.462

> <Valence>
5.952

> <Coulomb>
45.696

> <VdW>
0.869

> <VdW6>
-9.888

> <VdW12>
10.757

> <Bond>
0.275

> <Angle>
1.422

> <Pdih>
4.256

> <Idih>
0.000

> <Tether>
0.000

$$$$
VeraChem MOL file


 29 28  0  0  0  0  0  0  0  0999 V2000     
   20.4344   19.8524   20.1075 C   0  0  0  0  0  0  0  0  0  0  0  0
   20.2300   20.5744   19.3064 H   0  0  0  0  0  0  0  0  0  0  0  0
   20.7564   20.4166   20.9897 H   0  0  0  0  0  0  0  0  0  0  0  0
   21.2748   19.2248   19.7836 H   0  0  0  0  0  0  0  0  0  0  0  0
   19.1818   18.9914   20.3926 C   0  0  0  0  0  0  0  0  0  0  0  0
   18.9118   18.4686   19.4643 H   0  0  0  0  0  0  0  0  0  0  0  0
   18.3242   19.6333   20.6378 H   0  0  0  0  0  0  0  0  0  0  0  0
   19.4030   17.9372   21.5077 C   0  0  0  0  0  0  0  0  0  0  0  0
   18.8529   17.0271   21.2313 H   0  0  0  0  0  0  0  0  0  0  0  0
   20.4606   17.6422   21.5476 H   0  0  0  0  0  0  0  0  0  0  0  0
   18.9169   18.3655   22.9166 C   0  0  0  0  0  0  0  0  0  0  0  0
   19.0607   17.5129   23.5919 H   0  0  0  0  0  0  0  0  0  0  0  0
   17.8350   18.5540   22.8866 H   0  0  0  0  0  0  0  0  0  0  0  0
   19.6396   19.6101   23.4887 C   0  0  0  0  0  0  0  0  0  0  0  0
   20.7269   19.4548   23.4647 H   0  0  0  0  0  0  0  0  0  0  0  0
   19.4302   20.4727   22.8435 H   0  0  0  0  0  0  0  0  0  0  0  0
   19.1976   19.9779   24.9267 C   0  0  0  0  0  0  0  0  0  0  0  0
   18.1073   20.1116   24.9549 H   0  0  0  0  0  0  0  0  0  0  0  0
   19.6340   20.9530   25.1844 H   0  0  0  0  0  0  0  0  0  0  0  0
   19.6263   18.9432   25.9936 C   0  0  0  0  0  0  0  0  0  0  0  0
   19.1343   17.9803   25.8089 H   0  0  0  0  0  0  0  0  0  0  0  0
   20.7091   18.7721   25.9288 H   0  0  0  0  0  0  0  0  0  0  0  0
   19.2692   19.4220   27.4117 C   0  0  0  0  0  0  0  0  0  0  0  0
   18.1896   19.5782   27.4865 H   0  0  0  0  0  0  0  0  0  0  0  0
   19.7696   20.3724   27.6164 H   0  0  0  0  0  0  0  0  0  0  0  0
   19.6752   18.4383   28.4899 N   0  3  0  0  0  0  0  0  0  0  0  0
   20.6865   18.2682   28.4903 H   0  0  0  0  0  0  0  0  0  0  0  0
   19.2160   17.5293   28.3702 H   0  0  0  0  0  0  0  0  0  0  0  0
   19.4287   18.7767   29.4266 H   0  0  0  0  0  0  0  0  0  0  0  0
  1  2  1  0  0  0  0
  1  3  1  0  0  0  0
  1  4  1  0  0  0  0
  1  5  1  0  0  0  0
  5  6  1  0  0  0  0
  5  7  1  0  0  0  0
  5  8  1  0  0  0  0
  8  9  1  0  0  0  0
  8 10  1  0  0  0  0
  8 11  1  0  0  0  0
 11 12  1  0  0  0  0
 11 13  1  0  0  0  0
 11 14  1  0  0  0  0
 14 15  1  0  0  0  0
 14 16  1  0  0  0  0
 14 17  1  0  0  0  0
 17 18  1  0  0  0  0
 17 19  1  0  0  0  0
 17 20  1  0  0  0  0
 20 21  1  0  0  0  0
 20 22  1  0  0  0  0
 20 23  1  0  0  0  0
 23 24  1  0  0  0  0
 23 25  1  0  0  0  0
 23 26  1  0  0  0  0
 26 27  1  0  0  0  0
 26 28  1  0  0  0  0
 26 29  1  0  0  0  0
M  END
> <VM2 Rank>
305

> <Conf_Id>
1361

> <Probability>
0.00

> <Sum Probability>
99.78

> <Delta G>
4.275

> <G>
62.423

> <E>
24.849

> <-TS>
37.574

> <U+W>
0.704

> <U>
52.141

> <W>
-51.437

> <W(PB)>
-53.912

> <W(SA)>
2.475

> <Valence>
6.259

> <Coulomb>
44.846

> <VdW>
1.036

> <VdW6>
-9.043

> <VdW12>
10.079

> <Bond>
0.275

> <Angle>
1.500

> <Pdih>
4.484

> <Idih>
0.000

> <Tether>
0.000

$$$$
VeraChem MOL file


 29 28  0  0  0  0  0  0  0  0999 V2000     
   19.5371   20.3419   20.4830 C   0  0  0  0  0  0  0  0  0  0  0  0
   20.5020   20.8650   20.4903 H   0  0  0  0  0  0  0  0  0  0  0  0
   19.0401   20.5657   19.5302 H   0  0  0  0  0  0  0  0  0  0  0  0
   18.9142   20.7561   21.2856 H   0  0  0  0  0  0  0  0  0  0  0  0
   19.7305   18.8176   20.6476 C   0  0  0  0  0  0  0  0  0  0  0  0
   20.2508   18.4298   19.7608 H   0  0  0  0  0  0  0  0  0  0  0  0
   18.7523   18.3192   20.6610 H   0  0  0  0  0  0  0  0  0  0  0  0
   20.5492   18.4309   21.9060 C   0  0  0  0  0  0  0  0  0  0  0  0
   20.6495   17.3374   21.9412 H   0  0  0  0  0  0  0  0  0  0  0  0
   21.5698   18.8222   21.7949 H   0  0  0  0  0  0  0  0  0  0  0  0
   19.9751   18.9288   23.2582 C   0  0  0  0  0  0  0  0  0  0  0  0
   19.9522   20.0263   23.2751 H   0  0  0  0  0  0  0  0  0  0  0  0
   20.6749   18.6210   24.0450 H   0  0  0  0  0  0  0  0  0  0  0  0
   18.5695   18.3651   23.5825 C   0  0  0  0  0  0  0  0  0  0  0  0
   17.8843   18.5925   22.7561 H   0  0  0  0  0  0  0  0  0  0  0  0
   18.6222   17.2695   23.6447 H   0  0  0  0  0  0  0  0  0  0  0  0
   17.9360   18.9260   24.8821 C   0  0  0  0  0  0  0  0  0  0  0  0
   16.9352   18.4830   24.9799 H   0  0  0  0  0  0  0  0  0  0  0  0
   17.7732   20.0085   24.7853 H   0  0  0  0  0  0  0  0  0  0  0  0
   18.7262   18.6223   26.1798 C   0  0  0  0  0  0  0  0  0  0  0  0
   18.0174   18.5709   27.0171 H   0  0  0  0  0  0  0  0  0  0  0  0
   19.1984   17.6332   26.1122 H   0  0  0  0  0  0  0  0  0  0  0  0
   19.7783   19.6989   26.5104 C   0  0  0  0  0  0  0  0  0  0  0  0
   19.2854   20.6676   26.6287 H   0  0  0  0  0  0  0  0  0  0  0  0
   20.5033   19.7830   25.6988 H   0  0  0  0  0  0  0  0  0  0  0  0
   20.5422   19.4065   27.7854 N   0  3  0  0  0  0  0  0  0  0  0  0
   21.2337   20.1359   27.9912 H   0  0  0  0  0  0  0  0  0  0  0  0
   21.0516   18.5183   27.7302 H   0  0  0  0  0  0  0  0  0  0  0  0
   19.9196   19.3474   28.5981 H   0  0  0  0  0  0  0  0  0  0  0  0
  1  2  1  0  0  0  0
  1  3  1  0  0  0  0
  1  4  1  0  0  0  0
  1  5  1  0  0  0  0
  5  6  1  0  0  0  0
  5  7  1  0  0  0  0
  5  8  1  0  0  0  0
  8  9  1  0  0  0  0
  8 10  1  0  0  0  0
  8 11  1  0  0  0  0
 11 12  1  0  0  0  0
 11 13  1  0  0  0  0
 11 14  1  0  0  0  0
 14 15  1  0  0  0  0
 14 16  1  0  0  0  0
 14 17  1  0  0  0  0
 17 18  1  0  0  0  0
 17 19  1  0  0  0  0
 17 20  1  0  0  0  0
 20 21  1  0  0  0  0
 20 22  1  0  0  0  0
 20 23  1  0  0  0  0
 23 24  1  0  0  0  0
 23 25  1  0  0  0  0
 23 26  1  0  0  0  0
 26 27  1  0  0  0  0
 26 28  1  0  0  0  0
 26 29  1  0  0  0  0
M  END
> <VM2 Rank>
306

> <Conf_Id>
302

> <Probability>
0.00

> <Sum Probability>
99.79

> <Delta G>
4.287

> <G>
62.435

> <E>
24.532

> <-TS>
37.903

> <U+W>
0.387

> <U>
52.652

> <W>
-52.262

> <W(PB)>
-54.693

> <W(SA)>
2.431

> <Valence>
6.081

> <Coulomb>
45.696

> <VdW>
0.874

> <VdW6>
-10.147

> <VdW12>
11.022

> <Bond>
0.303

> <Angle>
1.914

> <Pdih>
3.864

> <Idih>
0.000

> <Tether>
0.000

$$$$
VeraChem MOL file


 29 28  0  0  0  0  0  0  0  0999 V2000     
   20.4065   20.4547   20.7587 C   0  0  0  0  0  0  0  0  0  0  0  0
   20.7437   20.8465   19.7904 H   0  0  0  0  0  0  0  0  0  0  0  0
   19.4953   20.9992   21.0350 H   0  0  0  0  0  0  0  0  0  0  0  0
   21.1821   20.6822   21.5014 H   0  0  0  0  0  0  0  0  0  0  0  0
   20.1541   18.9326   20.6674 C   0  0  0  0  0  0  0  0  0  0  0  0
   21.0577   18.4480   20.2719 H   0  0  0  0  0  0  0  0  0  0  0  0
   19.3545   18.7321   19.9407 H   0  0  0  0  0  0  0  0  0  0  0  0
   19.8006   18.2871   22.0287 C   0  0  0  0  0  0  0  0  0  0  0  0
   19.7713   17.1967   21.8977 H   0  0  0  0  0  0  0  0  0  0  0  0
   20.6091   18.4851   22.7422 H   0  0  0  0  0  0  0  0  0  0  0  0
   18.4373   18.7588   22.5975 C   0  0  0  0  0  0  0  0  0  0  0  0
   17.6604   18.5288   21.8554 H   0  0  0  0  0  0  0  0  0  0  0  0
   18.4206   19.8486   22.7261 H   0  0  0  0  0  0  0  0  0  0  0  0
   18.0590   18.0695   23.9345 C   0  0  0  0  0  0  0  0  0  0  0  0
   16.9736   17.8983   23.9359 H   0  0  0  0  0  0  0  0  0  0  0  0
   18.5150   17.0716   23.9925 H   0  0  0  0  0  0  0  0  0  0  0  0
   18.4036   18.8867   25.2065 C   0  0  0  0  0  0  0  0  0  0  0  0
   18.0334   18.3292   26.0768 H   0  0  0  0  0  0  0  0  0  0  0  0
   17.8482   19.8346   25.1917 H   0  0  0  0  0  0  0  0  0  0  0  0
   19.9129   19.1809   25.3862 C   0  0  0  0  0  0  0  0  0  0  0  0
   20.4895   18.2481   25.3315 H   0  0  0  0  0  0  0  0  0  0  0  0
   20.2602   19.8214   24.5660 H   0  0  0  0  0  0  0  0  0  0  0  0
   20.2246   19.9025   26.7114 C   0  0  0  0  0  0  0  0  0  0  0  0
   19.6313   20.8182   26.7807 H   0  0  0  0  0  0  0  0  0  0  0  0
   21.2823   20.1790   26.7329 H   0  0  0  0  0  0  0  0  0  0  0  0
   19.9454   19.0652   27.9441 N   0  3  0  0  0  0  0  0  0  0  0  0
   18.9576   18.7997   28.0068 H   0  0  0  0  0  0  0  0  0  0  0  0
   20.1765   19.5695   28.8072 H   0  0  0  0  0  0  0  0  0  0  0  0
   20.4932   18.1985   27.9473 H   0  0  0  0  0  0  0  0  0  0  0  0
  1  2  1  0  0  0  0
  1  3  1  0  0  0  0
  1  4  1  0  0  0  0
  1  5  1  0  0  0  0
  5  6  1  0  0  0  0
  5  7  1  0  0  0  0
  5  8  1  0  0  0  0
  8  9  1  0  0  0  0
  8 10  1  0  0  0  0
  8 11  1  0  0  0  0
 11 12  1  0  0  0  0
 11 13  1  0  0  0  0
 11 14  1  0  0  0  0
 14 15  1  0  0  0  0
 14 16  1  0  0  0  0
 14 17  1  0  0  0  0
 17 18  1  0  0  0  0
 17 19  1  0  0  0  0
 17 20  1  0  0  0  0
 20 21  1  0  0  0  0
 20 22  1  0  0  0  0
 20 23  1  0  0  0  0
 23 24  1  0  0  0  0
 23 25  1  0  0  0  0
 23 26  1  0  0  0  0
 26 27  1  0  0  0  0
 26 28  1  0  0  0  0
 26 29  1  0  0  0  0
M  END
> <VM2 Rank>
307

> <Conf_Id>
1844

> <Probability>
0.00

> <Sum Probability>
99.79

> <Delta G>
4.296

> <G>
62.444

> <E>
24.697

> <-TS>
37.747

> <U+W>
0.552

> <U>
52.520

> <W>
-51.968

> <W(PB)>
-54.398

> <W(SA)>
2.429

> <Valence>
6.252

> <Coulomb>
45.283

> <VdW>
0.985

> <VdW6>
-9.838

> <VdW12>
10.823

> <Bond>
0.297

> <Angle>
1.468

> <Pdih>
4.488

> <Idih>
0.000

> <Tether>
0.000

$$$$
VeraChem MOL file


 29 28  0  0  0  0  0  0  0  0999 V2000     
   21.0094   18.9746   20.7955 C   0  0  0  0  0  0  0  0  0  0  0  0
   21.9041   18.3875   20.5512 H   0  0  0  0  0  0  0  0  0  0  0  0
   20.7258   19.5384   19.8973 H   0  0  0  0  0  0  0  0  0  0  0  0
   21.2879   19.6952   21.5720 H   0  0  0  0  0  0  0  0  0  0  0  0
   19.8600   18.0445   21.2486 C   0  0  0  0  0  0  0  0  0  0  0  0
   20.1762   17.4379   22.1086 H   0  0  0  0  0  0  0  0  0  0  0  0
   19.6600   17.3337   20.4346 H   0  0  0  0  0  0  0  0  0  0  0  0
   18.5468   18.8008   21.5761 C   0  0  0  0  0  0  0  0  0  0  0  0
   18.4678   19.7097   20.9639 H   0  0  0  0  0  0  0  0  0  0  0  0
   17.7029   18.1659   21.2726 H   0  0  0  0  0  0  0  0  0  0  0  0
   18.3526   19.1472   23.0747 C   0  0  0  0  0  0  0  0  0  0  0  0
   18.3395   18.2164   23.6571 H   0  0  0  0  0  0  0  0  0  0  0  0
   17.3599   19.6016   23.1975 H   0  0  0  0  0  0  0  0  0  0  0  0
   19.4203   20.1099   23.6486 C   0  0  0  0  0  0  0  0  0  0  0  0
   20.3964   19.6097   23.6755 H   0  0  0  0  0  0  0  0  0  0  0  0
   19.5300   20.9689   22.9726 H   0  0  0  0  0  0  0  0  0  0  0  0
   19.0740   20.6403   25.0637 C   0  0  0  0  0  0  0  0  0  0  0  0
   18.1507   21.2335   25.0104 H   0  0  0  0  0  0  0  0  0  0  0  0
   19.8623   21.3364   25.3822 H   0  0  0  0  0  0  0  0  0  0  0  0
   18.9056   19.5439   26.1449 C   0  0  0  0  0  0  0  0  0  0  0  0
   18.6851   20.0260   27.1066 H   0  0  0  0  0  0  0  0  0  0  0  0
   18.0375   18.9149   25.9100 H   0  0  0  0  0  0  0  0  0  0  0  0
   20.1587   18.6623   26.2990 C   0  0  0  0  0  0  0  0  0  0  0  0
   21.0210   19.2880   26.5444 H   0  0  0  0  0  0  0  0  0  0  0  0
   20.3640   18.1454   25.3580 H   0  0  0  0  0  0  0  0  0  0  0  0
   20.0165   17.6145   27.3838 N   0  3  0  0  0  0  0  0  0  0  0  0
   19.8483   18.0373   28.3027 H   0  0  0  0  0  0  0  0  0  0  0  0
   20.8610   17.0385   27.4701 H   0  0  0  0  0  0  0  0  0  0  0  0
   19.2363   16.9758   27.1979 H   0  0  0  0  0  0  0  0  0  0  0  0
  1  2  1  0  0  0  0
  1  3  1  0  0  0  0
  1  4  1  0  0  0  0
  1  5  1  0  0  0  0
  5  6  1  0  0  0  0
  5  7  1  0  0  0  0
  5  8  1  0  0  0  0
  8  9  1  0  0  0  0
  8 10  1  0  0  0  0
  8 11  1  0  0  0  0
 11 12  1  0  0  0  0
 11 13  1  0  0  0  0
 11 14  1  0  0  0  0
 14 15  1  0  0  0  0
 14 16  1  0  0  0  0
 14 17  1  0  0  0  0
 17 18  1  0  0  0  0
 17 19  1  0  0  0  0
 17 20  1  0  0  0  0
 20 21  1  0  0  0  0
 20 22  1  0  0  0  0
 20 23  1  0  0  0  0
 23 24  1  0  0  0  0
 23 25  1  0  0  0  0
 23 26  1  0  0  0  0
 26 27  1  0  0  0  0
 26 28  1  0  0  0  0
 26 29  1  0  0  0  0
M  END
> <VM2 Rank>
308

> <Conf_Id>
1009

> <Probability>
0.00

> <Sum Probability>
99.79

> <Delta G>
4.318

> <G>
62.466

> <E>
24.590

> <-TS>
37.876

> <U+W>
0.446

> <U>
52.841

> <W>
-52.395

> <W(PB)>
-54.803

> <W(SA)>
2.408

> <Valence>
6.279

> <Coulomb>
45.781

> <VdW>
0.781

> <VdW6>
-10.171

> <VdW12>
10.953

> <Bond>
0.294

> <Angle>
1.613

> <Pdih>
4.372

> <Idih>
0.000

> <Tether>
0.000

$$$$
VeraChem MOL file


 29 28  0  0  0  0  0  0  0  0999 V2000     
   19.8797   18.0916   20.2745 C   0  0  0  0  0  0  0  0  0  0  0  0
   20.9298   18.2554   20.5461 H   0  0  0  0  0  0  0  0  0  0  0  0
   19.8379   17.1904   19.6492 H   0  0  0  0  0  0  0  0  0  0  0  0
   19.5452   18.9400   19.6635 H   0  0  0  0  0  0  0  0  0  0  0  0
   18.9887   17.9227   21.5259 C   0  0  0  0  0  0  0  0  0  0  0  0
   19.3640   17.0902   22.1373 H   0  0  0  0  0  0  0  0  0  0  0  0
   17.9779   17.6361   21.2037 H   0  0  0  0  0  0  0  0  0  0  0  0
   18.8890   19.2029   22.3899 C   0  0  0  0  0  0  0  0  0  0  0  0
   18.4989   20.0286   21.7792 H   0  0  0  0  0  0  0  0  0  0  0  0
   18.1449   19.0246   23.1758 H   0  0  0  0  0  0  0  0  0  0  0  0
   20.2381   19.6207   23.0283 C   0  0  0  0  0  0  0  0  0  0  0  0
   20.9562   19.8510   22.2307 H   0  0  0  0  0  0  0  0  0  0  0  0
   20.6738   18.7825   23.5858 H   0  0  0  0  0  0  0  0  0  0  0  0
   20.1326   20.8679   23.9418 C   0  0  0  0  0  0  0  0  0  0  0  0
   21.1412   21.1323   24.2880 H   0  0  0  0  0  0  0  0  0  0  0  0
   19.7953   21.7194   23.3349 H   0  0  0  0  0  0  0  0  0  0  0  0
   19.2005   20.7429   25.1777 C   0  0  0  0  0  0  0  0  0  0  0  0
   18.1561   20.6096   24.8660 H   0  0  0  0  0  0  0  0  0  0  0  0
   19.2249   21.7079   25.7026 H   0  0  0  0  0  0  0  0  0  0  0  0
   19.6032   19.6410   26.1904 C   0  0  0  0  0  0  0  0  0  0  0  0
   20.6969   19.5828   26.2682 H   0  0  0  0  0  0  0  0  0  0  0  0
   19.2367   19.9302   27.1844 H   0  0  0  0  0  0  0  0  0  0  0  0
   19.0171   18.2573   25.8497 C   0  0  0  0  0  0  0  0  0  0  0  0
   19.3671   17.9288   24.8694 H   0  0  0  0  0  0  0  0  0  0  0  0
   17.9260   18.3195   25.8195 H   0  0  0  0  0  0  0  0  0  0  0  0
   19.3952   17.1909   26.8568 N   0  3  0  0  0  0  0  0  0  0  0  0
   18.9925   16.2787   26.6155 H   0  0  0  0  0  0  0  0  0  0  0  0
   19.0656   17.4229   27.7997 H   0  0  0  0  0  0  0  0  0  0  0  0
   20.4110   17.0638   26.9150 H   0  0  0  0  0  0  0  0  0  0  0  0
  1  2  1  0  0  0  0
  1  3  1  0  0  0  0
  1  4  1  0  0  0  0
  1  5  1  0  0  0  0
  5  6  1  0  0  0  0
  5  7  1  0  0  0  0
  5  8  1  0  0  0  0
  8  9  1  0  0  0  0
  8 10  1  0  0  0  0
  8 11  1  0  0  0  0
 11 12  1  0  0  0  0
 11 13  1  0  0  0  0
 11 14  1  0  0  0  0
 14 15  1  0  0  0  0
 14 16  1  0  0  0  0
 14 17  1  0  0  0  0
 17 18  1  0  0  0  0
 17 19  1  0  0  0  0
 17 20  1  0  0  0  0
 20 21  1  0  0  0  0
 20 22  1  0  0  0  0
 20 23  1  0  0  0  0
 23 24  1  0  0  0  0
 23 25  1  0  0  0  0
 23 26  1  0  0  0  0
 26 27  1  0  0  0  0
 26 28  1  0  0  0  0
 26 29  1  0  0  0  0
M  END
> <VM2 Rank>
309

> <Conf_Id>
2270

> <Probability>
0.00

> <Sum Probability>
99.80

> <Delta G>
4.324

> <G>
62.472

> <E>
24.303

> <-TS>
38.169

> <U+W>
0.158

> <U>
52.832

> <W>
-52.674

> <W(PB)>
-55.111

> <W(SA)>
2.438

> <Valence>
6.054

> <Coulomb>
46.265

> <VdW>
0.513

> <VdW6>
-10.690

> <VdW12>
11.203

> <Bond>
0.303

> <Angle>
2.010

> <Pdih>
3.740

> <Idih>
0.000

> <Tether>
0.000

$$$$
VeraChem MOL file


 29 28  0  0  0  0  0  0  0  0999 V2000     
   20.7001   20.1933   20.9818 C   0  0  0  0  0  0  0  0  0  0  0  0
   21.7436   20.4621   20.7729 H   0  0  0  0  0  0  0  0  0  0  0  0
   20.0986   20.4761   20.1082 H   0  0  0  0  0  0  0  0  0  0  0  0
   20.3687   20.7951   21.8372 H   0  0  0  0  0  0  0  0  0  0  0  0
   20.5785   18.6806   21.2730 C   0  0  0  0  0  0  0  0  0  0  0  0
   21.1721   18.4249   22.1606 H   0  0  0  0  0  0  0  0  0  0  0  0
   21.0294   18.1229   20.4403 H   0  0  0  0  0  0  0  0  0  0  0  0
   19.1148   18.2023   21.4506 C   0  0  0  0  0  0  0  0  0  0  0  0
   18.5770   18.3486   20.5038 H   0  0  0  0  0  0  0  0  0  0  0  0
   19.1163   17.1185   21.6307 H   0  0  0  0  0  0  0  0  0  0  0  0
   18.3205   18.9004   22.5848 C   0  0  0  0  0  0  0  0  0  0  0  0
   17.3027   18.4866   22.5968 H   0  0  0  0  0  0  0  0  0  0  0  0
   18.2089   19.9695   22.3605 H   0  0  0  0  0  0  0  0  0  0  0  0
   18.9550   18.7226   23.9847 C   0  0  0  0  0  0  0  0  0  0  0  0
   19.0997   17.6526   24.1873 H   0  0  0  0  0  0  0  0  0  0  0  0
   19.9424   19.1979   23.9919 H   0  0  0  0  0  0  0  0  0  0  0  0
   18.0772   19.3493   25.0937 C   0  0  0  0  0  0  0  0  0  0  0  0
   17.0495   18.9747   24.9894 H   0  0  0  0  0  0  0  0  0  0  0  0
   18.0232   20.4369   24.9468 H   0  0  0  0  0  0  0  0  0  0  0  0
   18.5550   19.0470   26.5370 C   0  0  0  0  0  0  0  0  0  0  0  0
   17.8180   19.4722   27.2311 H   0  0  0  0  0  0  0  0  0  0  0  0
   18.5532   17.9645   26.7215 H   0  0  0  0  0  0  0  0  0  0  0  0
   19.9333   19.6415   26.8932 C   0  0  0  0  0  0  0  0  0  0  0  0
   20.0113   19.7336   27.9799 H   0  0  0  0  0  0  0  0  0  0  0  0
   20.0299   20.6408   26.4602 H   0  0  0  0  0  0  0  0  0  0  0  0
   21.1096   18.8009   26.4362 N   0  3  0  0  0  0  0  0  0  0  0  0
   21.0964   17.8683   26.8622 H   0  0  0  0  0  0  0  0  0  0  0  0
   22.0057   19.2323   26.6884 H   0  0  0  0  0  0  0  0  0  0  0  0
   21.1104   18.6702   25.4207 H   0  0  0  0  0  0  0  0  0  0  0  0
  1  2  1  0  0  0  0
  1  3  1  0  0  0  0
  1  4  1  0  0  0  0
  1  5  1  0  0  0  0
  5  6  1  0  0  0  0
  5  7  1  0  0  0  0
  5  8  1  0  0  0  0
  8  9  1  0  0  0  0
  8 10  1  0  0  0  0
  8 11  1  0  0  0  0
 11 12  1  0  0  0  0
 11 13  1  0  0  0  0
 11 14  1  0  0  0  0
 14 15  1  0  0  0  0
 14 16  1  0  0  0  0
 14 17  1  0  0  0  0
 17 18  1  0  0  0  0
 17 19  1  0  0  0  0
 17 20  1  0  0  0  0
 20 21  1  0  0  0  0
 20 22  1  0  0  0  0
 20 23  1  0  0  0  0
 23 24  1  0  0  0  0
 23 25  1  0  0  0  0
 23 26  1  0  0  0  0
 26 27  1  0  0  0  0
 26 28  1  0  0  0  0
 26 29  1  0  0  0  0
M  END
> <VM2 Rank>
310

> <Conf_Id>
1987

> <Probability>
0.00

> <Sum Probability>
99.80

> <Delta G>
4.324

> <G>
62.472

> <E>
24.699

> <-TS>
37.773

> <U+W>
0.554

> <U>
52.871

> <W>
-52.317

> <W(PB)>
-54.753

> <W(SA)>
2.436

> <Valence>
5.127

> <Coulomb>
47.023

> <VdW>
0.721

> <VdW6>
-10.158

> <VdW12>
10.879

> <Bond>
0.284

> <Angle>
1.604

> <Pdih>
3.239

> <Idih>
0.000

> <Tether>
0.000

$$$$
VeraChem MOL file


 29 28  0  0  0  0  0  0  0  0999 V2000     
   20.3412   18.2525   19.7231 C   0  0  0  0  0  0  0  0  0  0  0  0
   20.4108   19.2363   19.2407 H   0  0  0  0  0  0  0  0  0  0  0  0
   21.3548   17.9358   20.0019 H   0  0  0  0  0  0  0  0  0  0  0  0
   19.9573   17.5399   18.9816 H   0  0  0  0  0  0  0  0  0  0  0  0
   19.4172   18.3047   20.9581 C   0  0  0  0  0  0  0  0  0  0  0  0
   19.3405   17.3007   21.3985 H   0  0  0  0  0  0  0  0  0  0  0  0
   18.4039   18.5912   20.6433 H   0  0  0  0  0  0  0  0  0  0  0  0
   19.9352   19.3017   22.0180 C   0  0  0  0  0  0  0  0  0  0  0  0
   20.9495   19.0133   22.3265 H   0  0  0  0  0  0  0  0  0  0  0  0
   20.0118   20.3029   21.5718 H   0  0  0  0  0  0  0  0  0  0  0  0
   19.0120   19.3568   23.2558 C   0  0  0  0  0  0  0  0  0  0  0  0
   18.9257   18.3510   23.6850 H   0  0  0  0  0  0  0  0  0  0  0  0
   18.0010   19.6544   22.9451 H   0  0  0  0  0  0  0  0  0  0  0  0
   19.5357   20.3535   24.3178 C   0  0  0  0  0  0  0  0  0  0  0  0
   20.5517   20.0829   24.6301 H   0  0  0  0  0  0  0  0  0  0  0  0
   19.6252   21.3458   23.8542 H   0  0  0  0  0  0  0  0  0  0  0  0
   18.6136   20.4820   25.5569 C   0  0  0  0  0  0  0  0  0  0  0  0
   17.6403   20.8742   25.2314 H   0  0  0  0  0  0  0  0  0  0  0  0
   19.0328   21.2450   26.2273 H   0  0  0  0  0  0  0  0  0  0  0  0
   18.3745   19.1820   26.3710 C   0  0  0  0  0  0  0  0  0  0  0  0
   17.6872   19.4255   27.1920 H   0  0  0  0  0  0  0  0  0  0  0  0
   17.8543   18.4293   25.7652 H   0  0  0  0  0  0  0  0  0  0  0  0
   19.6496   18.5773   26.9943 C   0  0  0  0  0  0  0  0  0  0  0  0
   19.3684   17.9353   27.8335 H   0  0  0  0  0  0  0  0  0  0  0  0
   20.2880   19.3775   27.3782 H   0  0  0  0  0  0  0  0  0  0  0  0
   20.4649   17.7274   26.0400 N   0  3  0  0  0  0  0  0  0  0  0  0
   21.3227   17.3770   26.4806 H   0  0  0  0  0  0  0  0  0  0  0  0
   20.7413   18.2576   25.2081 H   0  0  0  0  0  0  0  0  0  0  0  0
   19.9376   16.9092   25.7182 H   0  0  0  0  0  0  0  0  0  0  0  0
  1  2  1  0  0  0  0
  1  3  1  0  0  0  0
  1  4  1  0  0  0  0
  1  5  1  0  0  0  0
  5  6  1  0  0  0  0
  5  7  1  0  0  0  0
  5  8  1  0  0  0  0
  8  9  1  0  0  0  0
  8 10  1  0  0  0  0
  8 11  1  0  0  0  0
 11 12  1  0  0  0  0
 11 13  1  0  0  0  0
 11 14  1  0  0  0  0
 14 15  1  0  0  0  0
 14 16  1  0  0  0  0
 14 17  1  0  0  0  0
 17 18  1  0  0  0  0
 17 19  1  0  0  0  0
 17 20  1  0  0  0  0
 20 21  1  0  0  0  0
 20 22  1  0  0  0  0
 20 23  1  0  0  0  0
 23 24  1  0  0  0  0
 23 25  1  0  0  0  0
 23 26  1  0  0  0  0
 26 27  1  0  0  0  0
 26 28  1  0  0  0  0
 26 29  1  0  0  0  0
M  END
> <VM2 Rank>
311

> <Conf_Id>
2123

> <Probability>
0.00

> <Sum Probability>
99.80

> <Delta G>
4.334

> <G>
62.482

> <E>
24.523

> <-TS>
37.959

> <U+W>
0.379

> <U>
52.294

> <W>
-51.916

> <W(PB)>
-54.355

> <W(SA)>
2.439

> <Valence>
4.642

> <Coulomb>
47.211

> <VdW>
0.441

> <VdW6>
-9.834

> <VdW12>
10.275

> <Bond>
0.247

> <Angle>
1.461

> <Pdih>
2.934

> <Idih>
0.000

> <Tether>
0.000

$$$$
VeraChem MOL file


 29 28  0  0  0  0  0  0  0  0999 V2000     
   20.4542   19.7022   20.3108 C   0  0  0  0  0  0  0  0  0  0  0  0
   19.6675   19.2816   19.6712 H   0  0  0  0  0  0  0  0  0  0  0  0
   21.0007   20.4507   19.7226 H   0  0  0  0  0  0  0  0  0  0  0  0
   21.1601   18.9006   20.5610 H   0  0  0  0  0  0  0  0  0  0  0  0
   19.8528   20.3465   21.5803 C   0  0  0  0  0  0  0  0  0  0  0  0
   19.2557   21.2202   21.2839 H   0  0  0  0  0  0  0  0  0  0  0  0
   20.6611   20.7291   22.2190 H   0  0  0  0  0  0  0  0  0  0  0  0
   18.9537   19.3848   22.3939 C   0  0  0  0  0  0  0  0  0  0  0  0
   18.4788   19.9620   23.1966 H   0  0  0  0  0  0  0  0  0  0  0  0
   18.1382   19.0168   21.7563 H   0  0  0  0  0  0  0  0  0  0  0  0
   19.7254   18.1831   22.9962 C   0  0  0  0  0  0  0  0  0  0  0  0
   20.5851   18.5340   23.5802 H   0  0  0  0  0  0  0  0  0  0  0  0
   20.1472   17.5824   22.1800 H   0  0  0  0  0  0  0  0  0  0  0  0
   18.8421   17.2488   23.8609 C   0  0  0  0  0  0  0  0  0  0  0  0
   18.0509   16.8274   23.2257 H   0  0  0  0  0  0  0  0  0  0  0  0
   19.4512   16.3927   24.1822 H   0  0  0  0  0  0  0  0  0  0  0  0
   18.1818   17.8861   25.1140 C   0  0  0  0  0  0  0  0  0  0  0  0
   17.5831   17.1033   25.5999 H   0  0  0  0  0  0  0  0  0  0  0  0
   17.4615   18.6619   24.8226 H   0  0  0  0  0  0  0  0  0  0  0  0
   19.1763   18.4438   26.1636 C   0  0  0  0  0  0  0  0  0  0  0  0
   18.6956   18.4124   27.1505 H   0  0  0  0  0  0  0  0  0  0  0  0
   20.0592   17.7941   26.2281 H   0  0  0  0  0  0  0  0  0  0  0  0
   19.6022   19.8984   25.8862 C   0  0  0  0  0  0  0  0  0  0  0  0
   18.7182   20.5415   25.8693 H   0  0  0  0  0  0  0  0  0  0  0  0
   20.0945   19.9701   24.9147 H   0  0  0  0  0  0  0  0  0  0  0  0
   20.5554   20.4444   26.9291 N   0  3  0  0  0  0  0  0  0  0  0  0
   20.1405   20.4360   27.8667 H   0  0  0  0  0  0  0  0  0  0  0  0
   20.8238   21.4144   26.7298 H   0  0  0  0  0  0  0  0  0  0  0  0
   21.4217   19.8981   26.9776 H   0  0  0  0  0  0  0  0  0  0  0  0
  1  2  1  0  0  0  0
  1  3  1  0  0  0  0
  1  4  1  0  0  0  0
  1  5  1  0  0  0  0
  5  6  1  0  0  0  0
  5  7  1  0  0  0  0
  5  8  1  0  0  0  0
  8  9  1  0  0  0  0
  8 10  1  0  0  0  0
  8 11  1  0  0  0  0
 11 12  1  0  0  0  0
 11 13  1  0  0  0  0
 11 14  1  0  0  0  0
 14 15  1  0  0  0  0
 14 16  1  0  0  0  0
 14 17  1  0  0  0  0
 17 18  1  0  0  0  0
 17 19  1  0  0  0  0
 17 20  1  0  0  0  0
 20 21  1  0  0  0  0
 20 22  1  0  0  0  0
 20 23  1  0  0  0  0
 23 24  1  0  0  0  0
 23 25  1  0  0  0  0
 23 26  1  0  0  0  0
 26 27  1  0  0  0  0
 26 28  1  0  0  0  0
 26 29  1  0  0  0  0
M  END
> <VM2 Rank>
312

> <Conf_Id>
1928

> <Probability>
0.00

> <Sum Probability>
99.81

> <Delta G>
4.337

> <G>
62.485

> <E>
24.315

> <-TS>
38.169

> <U+W>
0.171

> <U>
52.832

> <W>
-52.661

> <W(PB)>
-55.092

> <W(SA)>
2.430

> <Valence>
6.054

> <Coulomb>
46.265

> <VdW>
0.513

> <VdW6>
-10.690

> <VdW12>
11.204

> <Bond>
0.304

> <Angle>
2.010

> <Pdih>
3.740

> <Idih>
0.000

> <Tether>
0.000

$$$$
VeraChem MOL file


 29 28  0  0  0  0  0  0  0  0999 V2000     
   19.8268   18.4235   19.8433 C   0  0  0  0  0  0  0  0  0  0  0  0
   18.8987   17.8799   20.0595 H   0  0  0  0  0  0  0  0  0  0  0  0
   19.5647   19.3761   19.3649 H   0  0  0  0  0  0  0  0  0  0  0  0
   20.3962   17.8285   19.1176 H   0  0  0  0  0  0  0  0  0  0  0  0
   20.6596   18.6558   21.1243 C   0  0  0  0  0  0  0  0  0  0  0  0
   21.6287   19.0908   20.8425 H   0  0  0  0  0  0  0  0  0  0  0  0
   20.8825   17.6905   21.5999 H   0  0  0  0  0  0  0  0  0  0  0  0
   19.9717   19.5944   22.1445 C   0  0  0  0  0  0  0  0  0  0  0  0
   20.6773   19.7930   22.9597 H   0  0  0  0  0  0  0  0  0  0  0  0
   19.7748   20.5660   21.6709 H   0  0  0  0  0  0  0  0  0  0  0  0
   18.6495   19.0199   22.7147 C   0  0  0  0  0  0  0  0  0  0  0  0
   18.8009   17.9932   23.0747 H   0  0  0  0  0  0  0  0  0  0  0  0
   17.9188   18.9516   21.8979 H   0  0  0  0  0  0  0  0  0  0  0  0
   18.0342   19.8934   23.8389 C   0  0  0  0  0  0  0  0  0  0  0  0
   18.3152   20.9467   23.7013 H   0  0  0  0  0  0  0  0  0  0  0  0
   16.9406   19.8636   23.7353 H   0  0  0  0  0  0  0  0  0  0  0  0
   18.3786   19.4311   25.2782 C   0  0  0  0  0  0  0  0  0  0  0  0
   18.0003   18.4109   25.4272 H   0  0  0  0  0  0  0  0  0  0  0  0
   17.8304   20.0684   25.9859 H   0  0  0  0  0  0  0  0  0  0  0  0
   19.8871   19.4851   25.6202 C   0  0  0  0  0  0  0  0  0  0  0  0
   20.4395   18.7551   25.0152 H   0  0  0  0  0  0  0  0  0  0  0  0
   20.2831   20.4775   25.3674 H   0  0  0  0  0  0  0  0  0  0  0  0
   20.1655   19.2140   27.1110 C   0  0  0  0  0  0  0  0  0  0  0  0
   19.6190   19.9352   27.7246 H   0  0  0  0  0  0  0  0  0  0  0  0
   21.2336   19.3369   27.3094 H   0  0  0  0  0  0  0  0  0  0  0  0
   19.7711   17.8207   27.5600 N   0  3  0  0  0  0  0  0  0  0  0  0
   18.7686   17.6512   27.4315 H   0  0  0  0  0  0  0  0  0  0  0  0
   19.9773   17.6682   28.5533 H   0  0  0  0  0  0  0  0  0  0  0  0
   20.2713   17.0960   27.0349 H   0  0  0  0  0  0  0  0  0  0  0  0
  1  2  1  0  0  0  0
  1  3  1  0  0  0  0
  1  4  1  0  0  0  0
  1  5  1  0  0  0  0
  5  6  1  0  0  0  0
  5  7  1  0  0  0  0
  5  8  1  0  0  0  0
  8  9  1  0  0  0  0
  8 10  1  0  0  0  0
  8 11  1  0  0  0  0
 11 12  1  0  0  0  0
 11 13  1  0  0  0  0
 11 14  1  0  0  0  0
 14 15  1  0  0  0  0
 14 16  1  0  0  0  0
 14 17  1  0  0  0  0
 17 18  1  0  0  0  0
 17 19  1  0  0  0  0
 17 20  1  0  0  0  0
 20 21  1  0  0  0  0
 20 22  1  0  0  0  0
 20 23  1  0  0  0  0
 23 24  1  0  0  0  0
 23 25  1  0  0  0  0
 23 26  1  0  0  0  0
 26 27  1  0  0  0  0
 26 28  1  0  0  0  0
 26 29  1  0  0  0  0
M  END
> <VM2 Rank>
313

> <Conf_Id>
2616

> <Probability>
0.00

> <Sum Probability>
99.81

> <Delta G>
4.338

> <G>
62.486

> <E>
24.670

> <-TS>
37.816

> <U+W>
0.525

> <U>
52.653

> <W>
-52.128

> <W(PB)>
-54.567

> <W(SA)>
2.438

> <Valence>
6.239

> <Coulomb>
45.411

> <VdW>
1.003

> <VdW6>
-9.761

> <VdW12>
10.764

> <Bond>
0.289

> <Angle>
1.372

> <Pdih>
4.578

> <Idih>
0.000

> <Tether>
0.000

$$$$
VeraChem MOL file


 29 28  0  0  0  0  0  0  0  0999 V2000     
   19.3498   18.2927   19.7527 C   0  0  0  0  0  0  0  0  0  0  0  0
   19.5548   19.2444   19.2453 H   0  0  0  0  0  0  0  0  0  0  0  0
   20.1845   17.6094   19.5487 H   0  0  0  0  0  0  0  0  0  0  0  0
   18.4444   17.8609   19.3068 H   0  0  0  0  0  0  0  0  0  0  0  0
   19.1627   18.5030   21.2702 C   0  0  0  0  0  0  0  0  0  0  0  0
   18.9302   17.5398   21.7454 H   0  0  0  0  0  0  0  0  0  0  0  0
   18.2963   19.1571   21.4349 H   0  0  0  0  0  0  0  0  0  0  0  0
   20.4257   19.1151   21.9206 C   0  0  0  0  0  0  0  0  0  0  0  0
   21.2927   18.4852   21.6779 H   0  0  0  0  0  0  0  0  0  0  0  0
   20.6288   20.1011   21.4805 H   0  0  0  0  0  0  0  0  0  0  0  0
   20.3275   19.2424   23.4605 C   0  0  0  0  0  0  0  0  0  0  0  0
   21.3039   19.5715   23.8413 H   0  0  0  0  0  0  0  0  0  0  0  0
   20.1475   18.2490   23.8858 H   0  0  0  0  0  0  0  0  0  0  0  0
   19.2400   20.2456   23.9249 C   0  0  0  0  0  0  0  0  0  0  0  0
   19.4050   21.1940   23.3952 H   0  0  0  0  0  0  0  0  0  0  0  0
   18.2409   19.9012   23.6281 H   0  0  0  0  0  0  0  0  0  0  0  0
   19.2574   20.5382   25.4482 C   0  0  0  0  0  0  0  0  0  0  0  0
   18.8523   21.5484   25.5993 H   0  0  0  0  0  0  0  0  0  0  0  0
   20.2901   20.5814   25.8190 H   0  0  0  0  0  0  0  0  0  0  0  0
   18.4048   19.5693   26.3104 C   0  0  0  0  0  0  0  0  0  0  0  0
   18.3885   19.9364   27.3452 H   0  0  0  0  0  0  0  0  0  0  0  0
   17.3633   19.5987   25.9639 H   0  0  0  0  0  0  0  0  0  0  0  0
   18.8802   18.1041   26.3174 C   0  0  0  0  0  0  0  0  0  0  0  0
   18.8244   17.6913   25.3079 H   0  0  0  0  0  0  0  0  0  0  0  0
   18.2199   17.5134   26.9581 H   0  0  0  0  0  0  0  0  0  0  0  0
   20.2958   17.9277   26.8300 N   0  3  0  0  0  0  0  0  0  0  0  0
   20.9695   18.4444   26.2565 H   0  0  0  0  0  0  0  0  0  0  0  0
   20.5833   16.9430   26.8261 H   0  0  0  0  0  0  0  0  0  0  0  0
   20.3945   18.2655   27.7930 H   0  0  0  0  0  0  0  0  0  0  0  0
  1  2  1  0  0  0  0
  1  3  1  0  0  0  0
  1  4  1  0  0  0  0
  1  5  1  0  0  0  0
  5  6  1  0  0  0  0
  5  7  1  0  0  0  0
  5  8  1  0  0  0  0
  8  9  1  0  0  0  0
  8 10  1  0  0  0  0
  8 11  1  0  0  0  0
 11 12  1  0  0  0  0
 11 13  1  0  0  0  0
 11 14  1  0  0  0  0
 14 15  1  0  0  0  0
 14 16  1  0  0  0  0
 14 17  1  0  0  0  0
 17 18  1  0  0  0  0
 17 19  1  0  0  0  0
 17 20  1  0  0  0  0
 20 21  1  0  0  0  0
 20 22  1  0  0  0  0
 20 23  1  0  0  0  0
 23 24  1  0  0  0  0
 23 25  1  0  0  0  0
 23 26  1  0  0  0  0
 26 27  1  0  0  0  0
 26 28  1  0  0  0  0
 26 29  1  0  0  0  0
M  END
> <VM2 Rank>
314

> <Conf_Id>
2617

> <Probability>
0.00

> <Sum Probability>
99.82

> <Delta G>
4.346

> <G>
62.494

> <E>
24.714

> <-TS>
37.779

> <U+W>
0.570

> <U>
53.002

> <W>
-52.433

> <W(PB)>
-54.859

> <W(SA)>
2.426

> <Valence>
5.790

> <Coulomb>
46.543

> <VdW>
0.669

> <VdW6>
-10.153

> <VdW12>
10.822

> <Bond>
0.297

> <Angle>
1.684

> <Pdih>
3.809

> <Idih>
0.000

> <Tether>
0.000

$$$$
VeraChem MOL file


 29 28  0  0  0  0  0  0  0  0999 V2000     
   20.8959   19.3531   20.5675 C   0  0  0  0  0  0  0  0  0  0  0  0
   21.0713   18.2718   20.4987 H   0  0  0  0  0  0  0  0  0  0  0  0
   21.4696   19.8381   19.7672 H   0  0  0  0  0  0  0  0  0  0  0  0
   21.2973   19.7126   21.5231 H   0  0  0  0  0  0  0  0  0  0  0  0
   19.3936   19.6833   20.4308 C   0  0  0  0  0  0  0  0  0  0  0  0
   19.0730   19.4484   19.4062 H   0  0  0  0  0  0  0  0  0  0  0  0
   19.2457   20.7651   20.5554 H   0  0  0  0  0  0  0  0  0  0  0  0
   18.4792   18.9172   21.4205 C   0  0  0  0  0  0  0  0  0  0  0  0
   17.4405   19.1938   21.1923 H   0  0  0  0  0  0  0  0  0  0  0  0
   18.5449   17.8360   21.2366 H   0  0  0  0  0  0  0  0  0  0  0  0
   18.7442   19.2260   22.9171 C   0  0  0  0  0  0  0  0  0  0  0  0
   17.7792   19.2266   23.4405 H   0  0  0  0  0  0  0  0  0  0  0  0
   19.1515   20.2406   23.0251 H   0  0  0  0  0  0  0  0  0  0  0  0
   19.6763   18.1927   23.6004 C   0  0  0  0  0  0  0  0  0  0  0  0
   19.1935   17.2058   23.5986 H   0  0  0  0  0  0  0  0  0  0  0  0
   20.5980   18.0784   23.0177 H   0  0  0  0  0  0  0  0  0  0  0  0
   20.0622   18.5758   25.0500 C   0  0  0  0  0  0  0  0  0  0  0  0
   20.5707   19.5492   25.0433 H   0  0  0  0  0  0  0  0  0  0  0  0
   20.7953   17.8455   25.4199 H   0  0  0  0  0  0  0  0  0  0  0  0
   18.8558   18.6133   26.0209 C   0  0  0  0  0  0  0  0  0  0  0  0
   18.1575   19.4099   25.7349 H   0  0  0  0  0  0  0  0  0  0  0  0
   18.3022   17.6676   25.9504 H   0  0  0  0  0  0  0  0  0  0  0  0
   19.2831   18.8206   27.4865 C   0  0  0  0  0  0  0  0  0  0  0  0
   19.9780   18.0302   27.7827 H   0  0  0  0  0  0  0  0  0  0  0  0
   18.4035   18.7619   28.1332 H   0  0  0  0  0  0  0  0  0  0  0  0
   19.9536   20.1561   27.7414 N   0  3  0  0  0  0  0  0  0  0  0  0
   20.8094   20.2619   27.1875 H   0  0  0  0  0  0  0  0  0  0  0  0
   20.2170   20.2681   28.7266 H   0  0  0  0  0  0  0  0  0  0  0  0
   19.3392   20.9417   27.5039 H   0  0  0  0  0  0  0  0  0  0  0  0
  1  2  1  0  0  0  0
  1  3  1  0  0  0  0
  1  4  1  0  0  0  0
  1  5  1  0  0  0  0
  5  6  1  0  0  0  0
  5  7  1  0  0  0  0
  5  8  1  0  0  0  0
  8  9  1  0  0  0  0
  8 10  1  0  0  0  0
  8 11  1  0  0  0  0
 11 12  1  0  0  0  0
 11 13  1  0  0  0  0
 11 14  1  0  0  0  0
 14 15  1  0  0  0  0
 14 16  1  0  0  0  0
 14 17  1  0  0  0  0
 17 18  1  0  0  0  0
 17 19  1  0  0  0  0
 17 20  1  0  0  0  0
 20 21  1  0  0  0  0
 20 22  1  0  0  0  0
 20 23  1  0  0  0  0
 23 24  1  0  0  0  0
 23 25  1  0  0  0  0
 23 26  1  0  0  0  0
 26 27  1  0  0  0  0
 26 28  1  0  0  0  0
 26 29  1  0  0  0  0
M  END
> <VM2 Rank>
315

> <Conf_Id>
1335

> <Probability>
0.00

> <Sum Probability>
99.82

> <Delta G>
4.357

> <G>
62.505

> <E>
24.712

> <-TS>
37.793

> <U+W>
0.567

> <U>
52.514

> <W>
-51.947

> <W(PB)>
-54.383

> <W(SA)>
2.436

> <Valence>
6.227

> <Coulomb>
45.243

> <VdW>
1.045

> <VdW6>
-9.693

> <VdW12>
10.738

> <Bond>
0.292

> <Angle>
1.377

> <Pdih>
4.558

> <Idih>
0.000

> <Tether>
0.000

$$$$
VeraChem MOL file


 29 28  0  0  0  0  0  0  0  0999 V2000     
   20.4824   20.0802   20.5060 C   0  0  0  0  0  0  0  0  0  0  0  0
   21.3827   19.4612   20.6122 H   0  0  0  0  0  0  0  0  0  0  0  0
   20.6326   20.7470   19.6472 H   0  0  0  0  0  0  0  0  0  0  0  0
   20.3844   20.7111   21.3981 H   0  0  0  0  0  0  0  0  0  0  0  0
   19.2271   19.2056   20.2971 C   0  0  0  0  0  0  0  0  0  0  0  0
   19.3013   18.7105   19.3188 H   0  0  0  0  0  0  0  0  0  0  0  0
   18.3386   19.8503   20.2452 H   0  0  0  0  0  0  0  0  0  0  0  0
   19.0175   18.1201   21.3836 C   0  0  0  0  0  0  0  0  0  0  0  0
   18.1321   17.5348   21.0994 H   0  0  0  0  0  0  0  0  0  0  0  0
   19.8563   17.4105   21.3760 H   0  0  0  0  0  0  0  0  0  0  0  0
   18.7928   18.6731   22.8151 C   0  0  0  0  0  0  0  0  0  0  0  0
   18.0596   18.0284   23.3170 H   0  0  0  0  0  0  0  0  0  0  0  0
   18.3385   19.6721   22.7649 H   0  0  0  0  0  0  0  0  0  0  0  0
   20.0868   18.7088   23.6682 C   0  0  0  0  0  0  0  0  0  0  0  0
   20.4517   17.6842   23.8241 H   0  0  0  0  0  0  0  0  0  0  0  0
   20.8799   19.2307   23.1198 H   0  0  0  0  0  0  0  0  0  0  0  0
   19.9058   19.4061   25.0389 C   0  0  0  0  0  0  0  0  0  0  0  0
   19.5551   20.4358   24.8832 H   0  0  0  0  0  0  0  0  0  0  0  0
   20.8922   19.4848   25.5146 H   0  0  0  0  0  0  0  0  0  0  0  0
   18.9340   18.6625   25.9891 C   0  0  0  0  0  0  0  0  0  0  0  0
   17.9341   18.6206   25.5397 H   0  0  0  0  0  0  0  0  0  0  0  0
   19.2620   17.6236   26.1260 H   0  0  0  0  0  0  0  0  0  0  0  0
   18.8078   19.3472   27.3638 C   0  0  0  0  0  0  0  0  0  0  0  0
   18.0401   18.8380   27.9528 H   0  0  0  0  0  0  0  0  0  0  0  0
   18.5007   20.3880   27.2301 H   0  0  0  0  0  0  0  0  0  0  0  0
   20.0897   19.3344   28.1732 N   0  3  0  0  0  0  0  0  0  0  0  0
   20.8469   19.8304   27.6926 H   0  0  0  0  0  0  0  0  0  0  0  0
   20.4176   18.3794   28.3512 H   0  0  0  0  0  0  0  0  0  0  0  0
   19.9676   19.7850   29.0868 H   0  0  0  0  0  0  0  0  0  0  0  0
  1  2  1  0  0  0  0
  1  3  1  0  0  0  0
  1  4  1  0  0  0  0
  1  5  1  0  0  0  0
  5  6  1  0  0  0  0
  5  7  1  0  0  0  0
  5  8  1  0  0  0  0
  8  9  1  0  0  0  0
  8 10  1  0  0  0  0
  8 11  1  0  0  0  0
 11 12  1  0  0  0  0
 11 13  1  0  0  0  0
 11 14  1  0  0  0  0
 14 15  1  0  0  0  0
 14 16  1  0  0  0  0
 14 17  1  0  0  0  0
 17 18  1  0  0  0  0
 17 19  1  0  0  0  0
 17 20  1  0  0  0  0
 20 21  1  0  0  0  0
 20 22  1  0  0  0  0
 20 23  1  0  0  0  0
 23 24  1  0  0  0  0
 23 25  1  0  0  0  0
 23 26  1  0  0  0  0
 26 27  1  0  0  0  0
 26 28  1  0  0  0  0
 26 29  1  0  0  0  0
M  END
> <VM2 Rank>
316

> <Conf_Id>
989

> <Probability>
0.00

> <Sum Probability>
99.82

> <Delta G>
4.362

> <G>
62.510

> <E>
24.743

> <-TS>
37.767

> <U+W>
0.599

> <U>
52.368

> <W>
-51.769

> <W(PB)>
-54.214

> <W(SA)>
2.445

> <Valence>
6.262

> <Coulomb>
45.003

> <VdW>
1.103

> <VdW6>
-9.650

> <VdW12>
10.753

> <Bond>
0.297

> <Angle>
1.421

> <Pdih>
4.544

> <Idih>
0.000

> <Tether>
0.000

$$$$
VeraChem MOL file


 29 28  0  0  0  0  0  0  0  0999 V2000     
   20.0007   18.1809   19.9059 C   0  0  0  0  0  0  0  0  0  0  0  0
   19.8491   17.1195   19.6702 H   0  0  0  0  0  0  0  0  0  0  0  0
   19.3402   18.7687   19.2551 H   0  0  0  0  0  0  0  0  0  0  0  0
   21.0396   18.4355   19.6589 H   0  0  0  0  0  0  0  0  0  0  0  0
   19.6999   18.4565   21.3945 C   0  0  0  0  0  0  0  0  0  0  0  0
   20.3578   17.8383   22.0210 H   0  0  0  0  0  0  0  0  0  0  0  0
   18.6669   18.1523   21.6050 H   0  0  0  0  0  0  0  0  0  0  0  0
   19.8876   19.9491   21.7472 C   0  0  0  0  0  0  0  0  0  0  0  0
   20.8609   20.2849   21.3634 H   0  0  0  0  0  0  0  0  0  0  0  0
   19.1306   20.5461   21.2203 H   0  0  0  0  0  0  0  0  0  0  0  0
   19.8350   20.2672   23.2640 C   0  0  0  0  0  0  0  0  0  0  0  0
   20.0337   21.3421   23.3749 H   0  0  0  0  0  0  0  0  0  0  0  0
   20.6639   19.7684   23.7797 H   0  0  0  0  0  0  0  0  0  0  0  0
   18.4777   19.9651   23.9575 C   0  0  0  0  0  0  0  0  0  0  0  0
   18.3260   20.7023   24.7572 H   0  0  0  0  0  0  0  0  0  0  0  0
   17.6596   20.1439   23.2465 H   0  0  0  0  0  0  0  0  0  0  0  0
   18.3253   18.5429   24.5676 C   0  0  0  0  0  0  0  0  0  0  0  0
   18.3641   17.7830   23.7794 H   0  0  0  0  0  0  0  0  0  0  0  0
   17.3189   18.4631   25.0013 H   0  0  0  0  0  0  0  0  0  0  0  0
   19.3592   18.1765   25.6623 C   0  0  0  0  0  0  0  0  0  0  0  0
   19.1097   17.1853   26.0636 H   0  0  0  0  0  0  0  0  0  0  0  0
   20.3599   18.0825   25.2229 H   0  0  0  0  0  0  0  0  0  0  0  0
   19.3931   19.1916   26.8197 C   0  0  0  0  0  0  0  0  0  0  0  0
   18.3980   19.2761   27.2644 H   0  0  0  0  0  0  0  0  0  0  0  0
   19.6862   20.1739   26.4400 H   0  0  0  0  0  0  0  0  0  0  0  0
   20.3653   18.8081   27.9163 N   0  3  0  0  0  0  0  0  0  0  0  0
   20.1295   17.9027   28.3358 H   0  0  0  0  0  0  0  0  0  0  0  0
   20.3727   19.4969   28.6767 H   0  0  0  0  0  0  0  0  0  0  0  0
   21.3267   18.7381   27.5669 H   0  0  0  0  0  0  0  0  0  0  0  0
  1  2  1  0  0  0  0
  1  3  1  0  0  0  0
  1  4  1  0  0  0  0
  1  5  1  0  0  0  0
  5  6  1  0  0  0  0
  5  7  1  0  0  0  0
  5  8  1  0  0  0  0
  8  9  1  0  0  0  0
  8 10  1  0  0  0  0
  8 11  1  0  0  0  0
 11 12  1  0  0  0  0
 11 13  1  0  0  0  0
 11 14  1  0  0  0  0
 14 15  1  0  0  0  0
 14 16  1  0  0  0  0
 14 17  1  0  0  0  0
 17 18  1  0  0  0  0
 17 19  1  0  0  0  0
 17 20  1  0  0  0  0
 20 21  1  0  0  0  0
 20 22  1  0  0  0  0
 20 23  1  0  0  0  0
 23 24  1  0  0  0  0
 23 25  1  0  0  0  0
 23 26  1  0  0  0  0
 26 27  1  0  0  0  0
 26 28  1  0  0  0  0
 26 29  1  0  0  0  0
M  END
> <VM2 Rank>
317

> <Conf_Id>
2286

> <Probability>
0.00

> <Sum Probability>
99.83

> <Delta G>
4.378

> <G>
62.526

> <E>
25.144

> <-TS>
37.382

> <U+W>
1.000

> <U>
53.178

> <W>
-52.179

> <W(PB)>
-54.627

> <W(SA)>
2.449

> <Valence>
6.655

> <Coulomb>
45.658

> <VdW>
0.864

> <VdW6>
-10.083

> <VdW12>
10.947

> <Bond>
0.343

> <Angle>
2.219

> <Pdih>
4.094

> <Idih>
0.000

> <Tether>
0.000

$$$$
VeraChem MOL file


 29 28  0  0  0  0  0  0  0  0999 V2000     
   19.9240   19.9018   19.7885 C   0  0  0  0  0  0  0  0  0  0  0  0
   21.0054   19.9105   19.6000 H   0  0  0  0  0  0  0  0  0  0  0  0
   19.4881   19.0559   19.2410 H   0  0  0  0  0  0  0  0  0  0  0  0
   19.5021   20.8260   19.3727 H   0  0  0  0  0  0  0  0  0  0  0  0
   19.6245   19.7975   21.2989 C   0  0  0  0  0  0  0  0  0  0  0  0
   18.5375   19.8330   21.4498 H   0  0  0  0  0  0  0  0  0  0  0  0
   20.0469   20.6710   21.8151 H   0  0  0  0  0  0  0  0  0  0  0  0
   20.2063   18.4996   21.9069 C   0  0  0  0  0  0  0  0  0  0  0  0
   19.7462   17.6258   21.4253 H   0  0  0  0  0  0  0  0  0  0  0  0
   21.2796   18.4480   21.6773 H   0  0  0  0  0  0  0  0  0  0  0  0
   20.0277   18.4024   23.4418 C   0  0  0  0  0  0  0  0  0  0  0  0
   20.5108   19.2677   23.9086 H   0  0  0  0  0  0  0  0  0  0  0  0
   20.5701   17.5151   23.7955 H   0  0  0  0  0  0  0  0  0  0  0  0
   18.5444   18.2961   23.8812 C   0  0  0  0  0  0  0  0  0  0  0  0
   17.9930   19.2064   23.6125 H   0  0  0  0  0  0  0  0  0  0  0  0
   18.0796   17.4793   23.3119 H   0  0  0  0  0  0  0  0  0  0  0  0
   18.3511   17.9983   25.3913 C   0  0  0  0  0  0  0  0  0  0  0  0
   19.1179   17.2966   25.7454 H   0  0  0  0  0  0  0  0  0  0  0  0
   17.3960   17.4675   25.5078 H   0  0  0  0  0  0  0  0  0  0  0  0
   18.2918   19.2528   26.3033 C   0  0  0  0  0  0  0  0  0  0  0  0
   17.4718   19.9029   25.9707 H   0  0  0  0  0  0  0  0  0  0  0  0
   18.0322   18.9381   27.3228 H   0  0  0  0  0  0  0  0  0  0  0  0
   19.5870   20.0847   26.3619 C   0  0  0  0  0  0  0  0  0  0  0  0
   19.4405   20.9338   27.0349 H   0  0  0  0  0  0  0  0  0  0  0  0
   19.8193   20.4794   25.3705 H   0  0  0  0  0  0  0  0  0  0  0  0
   20.7872   19.3049   26.8610 N   0  3  0  0  0  0  0  0  0  0  0  0
   20.6362   18.9430   27.8083 H   0  0  0  0  0  0  0  0  0  0  0  0
   21.6330   19.8846   26.8921 H   0  0  0  0  0  0  0  0  0  0  0  0
   20.9899   18.5018   26.2579 H   0  0  0  0  0  0  0  0  0  0  0  0
  1  2  1  0  0  0  0
  1  3  1  0  0  0  0
  1  4  1  0  0  0  0
  1  5  1  0  0  0  0
  5  6  1  0  0  0  0
  5  7  1  0  0  0  0
  5  8  1  0  0  0  0
  8  9  1  0  0  0  0
  8 10  1  0  0  0  0
  8 11  1  0  0  0  0
 11 12  1  0  0  0  0
 11 13  1  0  0  0  0
 11 14  1  0  0  0  0
 14 15  1  0  0  0  0
 14 16  1  0  0  0  0
 14 17  1  0  0  0  0
 17 18  1  0  0  0  0
 17 19  1  0  0  0  0
 17 20  1  0  0  0  0
 20 21  1  0  0  0  0
 20 22  1  0  0  0  0
 20 23  1  0  0  0  0
 23 24  1  0  0  0  0
 23 25  1  0  0  0  0
 23 26  1  0  0  0  0
 26 27  1  0  0  0  0
 26 28  1  0  0  0  0
 26 29  1  0  0  0  0
M  END
> <VM2 Rank>
318

> <Conf_Id>
2235

> <Probability>
0.00

> <Sum Probability>
99.83

> <Delta G>
4.389

> <G>
62.537

> <E>
24.758

> <-TS>
37.779

> <U+W>
0.614

> <U>
53.002

> <W>
-52.389

> <W(PB)>
-54.841

> <W(SA)>
2.453

> <Valence>
5.790

> <Coulomb>
46.543

> <VdW>
0.669

> <VdW6>
-10.153

> <VdW12>
10.822

> <Bond>
0.297

> <Angle>
1.685

> <Pdih>
3.808

> <Idih>
0.000

> <Tether>
0.000

$$$$
VeraChem MOL file


 29 28  0  0  0  0  0  0  0  0999 V2000     
   19.2470   19.0677   19.6889 C   0  0  0  0  0  0  0  0  0  0  0  0
   20.2949   18.9751   19.3753 H   0  0  0  0  0  0  0  0  0  0  0  0
   18.6155   18.7583   18.8459 H   0  0  0  0  0  0  0  0  0  0  0  0
   19.0386   20.1266   19.8857 H   0  0  0  0  0  0  0  0  0  0  0  0
   18.9591   18.1927   20.9298 C   0  0  0  0  0  0  0  0  0  0  0  0
   19.0643   17.1352   20.6498 H   0  0  0  0  0  0  0  0  0  0  0  0
   17.9135   18.3258   21.2410 H   0  0  0  0  0  0  0  0  0  0  0  0
   19.9005   18.4869   22.1224 C   0  0  0  0  0  0  0  0  0  0  0  0
   19.7019   17.7494   22.9090 H   0  0  0  0  0  0  0  0  0  0  0  0
   20.9423   18.3258   21.8128 H   0  0  0  0  0  0  0  0  0  0  0  0
   19.7461   19.9218   22.6886 C   0  0  0  0  0  0  0  0  0  0  0  0
   18.6876   20.1499   22.8743 H   0  0  0  0  0  0  0  0  0  0  0  0
   20.0818   20.6357   21.9249 H   0  0  0  0  0  0  0  0  0  0  0  0
   20.5775   20.1653   23.9750 C   0  0  0  0  0  0  0  0  0  0  0  0
   21.4598   19.5106   23.9886 H   0  0  0  0  0  0  0  0  0  0  0  0
   20.9713   21.1905   23.9391 H   0  0  0  0  0  0  0  0  0  0  0  0
   19.7827   20.0172   25.2982 C   0  0  0  0  0  0  0  0  0  0  0  0
   18.9658   20.7519   25.3161 H   0  0  0  0  0  0  0  0  0  0  0  0
   20.4520   20.2842   26.1266 H   0  0  0  0  0  0  0  0  0  0  0  0
   19.2040   18.6017   25.5393 C   0  0  0  0  0  0  0  0  0  0  0  0
   18.4706   18.3682   24.7575 H   0  0  0  0  0  0  0  0  0  0  0  0
   20.0010   17.8500   25.4665 H   0  0  0  0  0  0  0  0  0  0  0  0
   18.4975   18.4724   26.9026 C   0  0  0  0  0  0  0  0  0  0  0  0
   18.0203   17.4910   26.9713 H   0  0  0  0  0  0  0  0  0  0  0  0
   17.7202   19.2364   26.9886 H   0  0  0  0  0  0  0  0  0  0  0  0
   19.4296   18.6123   28.0901 N   0  3  0  0  0  0  0  0  0  0  0  0
   18.9304   18.5074   28.9803 H   0  0  0  0  0  0  0  0  0  0  0  0
   19.8861   19.5296   28.1082 H   0  0  0  0  0  0  0  0  0  0  0  0
   20.1713   17.9045   28.0770 H   0  0  0  0  0  0  0  0  0  0  0  0
  1  2  1  0  0  0  0
  1  3  1  0  0  0  0
  1  4  1  0  0  0  0
  1  5  1  0  0  0  0
  5  6  1  0  0  0  0
  5  7  1  0  0  0  0
  5  8  1  0  0  0  0
  8  9  1  0  0  0  0
  8 10  1  0  0  0  0
  8 11  1  0  0  0  0
 11 12  1  0  0  0  0
 11 13  1  0  0  0  0
 11 14  1  0  0  0  0
 14 15  1  0  0  0  0
 14 16  1  0  0  0  0
 14 17  1  0  0  0  0
 17 18  1  0  0  0  0
 17 19  1  0  0  0  0
 17 20  1  0  0  0  0
 20 21  1  0  0  0  0
 20 22  1  0  0  0  0
 20 23  1  0  0  0  0
 23 24  1  0  0  0  0
 23 25  1  0  0  0  0
 23 26  1  0  0  0  0
 26 27  1  0  0  0  0
 26 28  1  0  0  0  0
 26 29  1  0  0  0  0
M  END
> <VM2 Rank>
319

> <Conf_Id>
1332

> <Probability>
0.00

> <Sum Probability>
99.83

> <Delta G>
4.394

> <G>
62.542

> <E>
24.728

> <-TS>
37.814

> <U+W>
0.583

> <U>
52.521

> <W>
-51.938

> <W(PB)>
-54.382

> <W(SA)>
2.444

> <Valence>
6.295

> <Coulomb>
45.163

> <VdW>
1.063

> <VdW6>
-9.724

> <VdW12>
10.787

> <Bond>
0.294

> <Angle>
1.414

> <Pdih>
4.588

> <Idih>
0.000

> <Tether>
0.000

$$$$
VeraChem MOL file


 29 28  0  0  0  0  0  0  0  0999 V2000     
   20.9058   18.4671   20.8984 C   0  0  0  0  0  0  0  0  0  0  0  0
   20.3315   17.5562   21.1073 H   0  0  0  0  0  0  0  0  0  0  0  0
   21.5362   18.2635   20.0232 H   0  0  0  0  0  0  0  0  0  0  0  0
   21.5679   18.6670   21.7508 H   0  0  0  0  0  0  0  0  0  0  0  0
   19.9731   19.6667   20.6242 C   0  0  0  0  0  0  0  0  0  0  0  0
   19.2787   19.4110   19.8118 H   0  0  0  0  0  0  0  0  0  0  0  0
   20.5786   20.5058   20.2541 H   0  0  0  0  0  0  0  0  0  0  0  0
   19.1728   20.1468   21.8617 C   0  0  0  0  0  0  0  0  0  0  0  0
   19.8647   20.5001   22.6359 H   0  0  0  0  0  0  0  0  0  0  0  0
   18.5958   21.0310   21.5575 H   0  0  0  0  0  0  0  0  0  0  0  0
   18.1796   19.0998   22.4361 C   0  0  0  0  0  0  0  0  0  0  0  0
   17.8330   18.4445   21.6253 H   0  0  0  0  0  0  0  0  0  0  0  0
   17.2817   19.6216   22.7947 H   0  0  0  0  0  0  0  0  0  0  0  0
   18.7360   18.2347   23.5972 C   0  0  0  0  0  0  0  0  0  0  0  0
   18.0389   17.4037   23.7722 H   0  0  0  0  0  0  0  0  0  0  0  0
   19.6907   17.7771   23.3123 H   0  0  0  0  0  0  0  0  0  0  0  0
   18.9107   19.0215   24.9189 C   0  0  0  0  0  0  0  0  0  0  0  0
   17.9537   19.4823   25.2003 H   0  0  0  0  0  0  0  0  0  0  0  0
   19.6269   19.8394   24.7748 H   0  0  0  0  0  0  0  0  0  0  0  0
   19.3968   18.1065   26.0678 C   0  0  0  0  0  0  0  0  0  0  0  0
   18.6936   17.2721   26.1908 H   0  0  0  0  0  0  0  0  0  0  0  0
   20.3678   17.6629   25.8102 H   0  0  0  0  0  0  0  0  0  0  0  0
   19.5111   18.8492   27.4130 C   0  0  0  0  0  0  0  0  0  0  0  0
   19.7742   18.1366   28.1994 H   0  0  0  0  0  0  0  0  0  0  0  0
   18.5477   19.2988   27.6683 H   0  0  0  0  0  0  0  0  0  0  0  0
   20.5580   19.9456   27.4176 N   0  3  0  0  0  0  0  0  0  0  0  0
   20.6179   20.4107   28.3301 H   0  0  0  0  0  0  0  0  0  0  0  0
   20.3506   20.6707   26.7238 H   0  0  0  0  0  0  0  0  0  0  0  0
   21.4923   19.5803   27.2053 H   0  0  0  0  0  0  0  0  0  0  0  0
  1  2  1  0  0  0  0
  1  3  1  0  0  0  0
  1  4  1  0  0  0  0
  1  5  1  0  0  0  0
  5  6  1  0  0  0  0
  5  7  1  0  0  0  0
  5  8  1  0  0  0  0
  8  9  1  0  0  0  0
  8 10  1  0  0  0  0
  8 11  1  0  0  0  0
 11 12  1  0  0  0  0
 11 13  1  0  0  0  0
 11 14  1  0  0  0  0
 14 15  1  0  0  0  0
 14 16  1  0  0  0  0
 14 17  1  0  0  0  0
 17 18  1  0  0  0  0
 17 19  1  0  0  0  0
 17 20  1  0  0  0  0
 20 21  1  0  0  0  0
 20 22  1  0  0  0  0
 20 23  1  0  0  0  0
 23 24  1  0  0  0  0
 23 25  1  0  0  0  0
 23 26  1  0  0  0  0
 26 27  1  0  0  0  0
 26 28  1  0  0  0  0
 26 29  1  0  0  0  0
M  END
> <VM2 Rank>
320

> <Conf_Id>
2612

> <Probability>
0.00

> <Sum Probability>
99.84

> <Delta G>
4.412

> <G>
62.560

> <E>
24.883

> <-TS>
37.677

> <U+W>
0.739

> <U>
52.951

> <W>
-52.212

> <W(PB)>
-54.646

> <W(SA)>
2.434

> <Valence>
6.394

> <Coulomb>
45.524

> <VdW>
1.033

> <VdW6>
-9.609

> <VdW12>
10.641

> <Bond>
0.304

> <Angle>
1.489

> <Pdih>
4.601

> <Idih>
0.000

> <Tether>
0.000

$$$$
VeraChem MOL file


 29 28  0  0  0  0  0  0  0  0999 V2000     
   20.6968   20.4693   20.7890 C   0  0  0  0  0  0  0  0  0  0  0  0
   20.8976   21.5406   20.9200 H   0  0  0  0  0  0  0  0  0  0  0  0
   21.6495   19.9330   20.8885 H   0  0  0  0  0  0  0  0  0  0  0  0
   20.3246   20.3188   19.7672 H   0  0  0  0  0  0  0  0  0  0  0  0
   19.6717   19.9756   21.8316 C   0  0  0  0  0  0  0  0  0  0  0  0
   18.7425   20.5528   21.7269 H   0  0  0  0  0  0  0  0  0  0  0  0
   20.0586   20.1833   22.8357 H   0  0  0  0  0  0  0  0  0  0  0  0
   19.3686   18.4675   21.6619 C   0  0  0  0  0  0  0  0  0  0  0  0
   18.9974   18.3094   20.6398 H   0  0  0  0  0  0  0  0  0  0  0  0
   20.2939   17.8805   21.7414 H   0  0  0  0  0  0  0  0  0  0  0  0
   18.3057   17.9253   22.6534 C   0  0  0  0  0  0  0  0  0  0  0  0
   17.7242   17.1532   22.1308 H   0  0  0  0  0  0  0  0  0  0  0  0
   17.5795   18.7084   22.9072 H   0  0  0  0  0  0  0  0  0  0  0  0
   18.8839   17.2693   23.9367 C   0  0  0  0  0  0  0  0  0  0  0  0
   18.0556   16.8281   24.5080 H   0  0  0  0  0  0  0  0  0  0  0  0
   19.5233   16.4256   23.6428 H   0  0  0  0  0  0  0  0  0  0  0  0
   19.6928   18.1989   24.8751 C   0  0  0  0  0  0  0  0  0  0  0  0
   20.5707   18.5923   24.3474 H   0  0  0  0  0  0  0  0  0  0  0  0
   20.0884   17.5873   25.6966 H   0  0  0  0  0  0  0  0  0  0  0  0
   18.8533   19.3593   25.4663 C   0  0  0  0  0  0  0  0  0  0  0  0
   18.4371   19.9717   24.6575 H   0  0  0  0  0  0  0  0  0  0  0  0
   17.9976   18.9562   26.0239 H   0  0  0  0  0  0  0  0  0  0  0  0
   19.6788   20.2798   26.3855 C   0  0  0  0  0  0  0  0  0  0  0  0
   19.0609   21.1244   26.7021 H   0  0  0  0  0  0  0  0  0  0  0  0
   20.5387   20.6729   25.8365 H   0  0  0  0  0  0  0  0  0  0  0  0
   20.1924   19.5930   27.6356 N   0  3  0  0  0  0  0  0  0  0  0  0
   19.4265   19.2206   28.2066 H   0  0  0  0  0  0  0  0  0  0  0  0
   20.7259   20.2356   28.2313 H   0  0  0  0  0  0  0  0  0  0  0  0
   20.8116   18.8083   27.4099 H   0  0  0  0  0  0  0  0  0  0  0  0
  1  2  1  0  0  0  0
  1  3  1  0  0  0  0
  1  4  1  0  0  0  0
  1  5  1  0  0  0  0
  5  6  1  0  0  0  0
  5  7  1  0  0  0  0
  5  8  1  0  0  0  0
  8  9  1  0  0  0  0
  8 10  1  0  0  0  0
  8 11  1  0  0  0  0
 11 12  1  0  0  0  0
 11 13  1  0  0  0  0
 11 14  1  0  0  0  0
 14 15  1  0  0  0  0
 14 16  1  0  0  0  0
 14 17  1  0  0  0  0
 17 18  1  0  0  0  0
 17 19  1  0  0  0  0
 17 20  1  0  0  0  0
 20 21  1  0  0  0  0
 20 22  1  0  0  0  0
 20 23  1  0  0  0  0
 23 24  1  0  0  0  0
 23 25  1  0  0  0  0
 23 26  1  0  0  0  0
 26 27  1  0  0  0  0
 26 28  1  0  0  0  0
 26 29  1  0  0  0  0
M  END
> <VM2 Rank>
321

> <Conf_Id>
1978

> <Probability>
0.00

> <Sum Probability>
99.84

> <Delta G>
4.414

> <G>
62.562

> <E>
24.429

> <-TS>
38.133

> <U+W>
0.285

> <U>
52.641

> <W>
-52.357

> <W(PB)>
-54.772

> <W(SA)>
2.416

> <Valence>
6.340

> <Coulomb>
45.688

> <VdW>
0.614

> <VdW6>
-10.365

> <VdW12>
10.979

> <Bond>
0.304

> <Angle>
1.852

> <Pdih>
4.183

> <Idih>
0.000

> <Tether>
0.000

$$$$
VeraChem MOL file


 29 28  0  0  0  0  0  0  0  0999 V2000     
   20.6965   17.8556   20.5116 C   0  0  0  0  0  0  0  0  0  0  0  0
   21.5527   17.6704   21.1733 H   0  0  0  0  0  0  0  0  0  0  0  0
   20.4043   16.8976   20.0623 H   0  0  0  0  0  0  0  0  0  0  0  0
   21.0268   18.5204   19.7028 H   0  0  0  0  0  0  0  0  0  0  0  0
   19.5171   18.4740   21.2915 C   0  0  0  0  0  0  0  0  0  0  0  0
   19.1853   17.7665   22.0607 H   0  0  0  0  0  0  0  0  0  0  0  0
   18.6667   18.6147   20.6098 H   0  0  0  0  0  0  0  0  0  0  0  0
   19.9027   19.8325   21.9249 C   0  0  0  0  0  0  0  0  0  0  0  0
   20.7916   19.7209   22.5607 H   0  0  0  0  0  0  0  0  0  0  0  0
   20.1942   20.5152   21.1148 H   0  0  0  0  0  0  0  0  0  0  0  0
   18.7504   20.4896   22.7286 C   0  0  0  0  0  0  0  0  0  0  0  0
   17.7773   20.1905   22.3155 H   0  0  0  0  0  0  0  0  0  0  0  0
   18.8106   21.5773   22.5843 H   0  0  0  0  0  0  0  0  0  0  0  0
   18.7887   20.2202   24.2549 C   0  0  0  0  0  0  0  0  0  0  0  0
   19.7264   20.6181   24.6652 H   0  0  0  0  0  0  0  0  0  0  0  0
   17.9796   20.7952   24.7261 H   0  0  0  0  0  0  0  0  0  0  0  0
   18.6361   18.7290   24.6419 C   0  0  0  0  0  0  0  0  0  0  0  0
   19.5077   18.1612   24.2935 H   0  0  0  0  0  0  0  0  0  0  0  0
   17.7619   18.3091   24.1257 H   0  0  0  0  0  0  0  0  0  0  0  0
   18.4601   18.5140   26.1659 C   0  0  0  0  0  0  0  0  0  0  0  0
   17.5359   19.0062   26.4967 H   0  0  0  0  0  0  0  0  0  0  0  0
   18.3261   17.4432   26.3689 H   0  0  0  0  0  0  0  0  0  0  0  0
   19.6340   19.0461   27.0126 C   0  0  0  0  0  0  0  0  0  0  0  0
   19.4196   18.8853   28.0726 H   0  0  0  0  0  0  0  0  0  0  0  0
   19.7507   20.1205   26.8488 H   0  0  0  0  0  0  0  0  0  0  0  0
   20.9584   18.3770   26.7030 N   0  3  0  0  0  0  0  0  0  0  0  0
   21.7176   18.7474   27.2851 H   0  0  0  0  0  0  0  0  0  0  0  0
   21.2311   18.5165   25.7251 H   0  0  0  0  0  0  0  0  0  0  0  0
   20.9203   17.3657   26.8671 H   0  0  0  0  0  0  0  0  0  0  0  0
  1  2  1  0  0  0  0
  1  3  1  0  0  0  0
  1  4  1  0  0  0  0
  1  5  1  0  0  0  0
  5  6  1  0  0  0  0
  5  7  1  0  0  0  0
  5  8  1  0  0  0  0
  8  9  1  0  0  0  0
  8 10  1  0  0  0  0
  8 11  1  0  0  0  0
 11 12  1  0  0  0  0
 11 13  1  0  0  0  0
 11 14  1  0  0  0  0
 14 15  1  0  0  0  0
 14 16  1  0  0  0  0
 14 17  1  0  0  0  0
 17 18  1  0  0  0  0
 17 19  1  0  0  0  0
 17 20  1  0  0  0  0
 20 21  1  0  0  0  0
 20 22  1  0  0  0  0
 20 23  1  0  0  0  0
 23 24  1  0  0  0  0
 23 25  1  0  0  0  0
 23 26  1  0  0  0  0
 26 27  1  0  0  0  0
 26 28  1  0  0  0  0
 26 29  1  0  0  0  0
M  END
> <VM2 Rank>
322

> <Conf_Id>
1686

> <Probability>
0.00

> <Sum Probability>
99.84

> <Delta G>
4.432

> <G>
62.580

> <E>
24.726

> <-TS>
37.854

> <U+W>
0.582

> <U>
52.923

> <W>
-52.342

> <W(PB)>
-54.773

> <W(SA)>
2.432

> <Valence>
5.967

> <Coulomb>
46.185

> <VdW>
0.771

> <VdW6>
-10.004

> <VdW12>
10.775

> <Bond>
0.276

> <Angle>
1.354

> <Pdih>
4.338

> <Idih>
0.000

> <Tether>
0.000

$$$$
VeraChem MOL file


 29 28  0  0  0  0  0  0  0  0999 V2000     
   20.8703   19.2573   20.6775 C   0  0  0  0  0  0  0  0  0  0  0  0
   21.4226   19.3746   19.7362 H   0  0  0  0  0  0  0  0  0  0  0  0
   21.3365   19.9123   21.4249 H   0  0  0  0  0  0  0  0  0  0  0  0
   20.9911   18.2160   21.0004 H   0  0  0  0  0  0  0  0  0  0  0  0
   19.3810   19.6124   20.4770 C   0  0  0  0  0  0  0  0  0  0  0  0
   18.9265   18.8978   19.7767 H   0  0  0  0  0  0  0  0  0  0  0  0
   19.3161   20.5965   19.9923 H   0  0  0  0  0  0  0  0  0  0  0  0
   18.5545   19.6549   21.7875 C   0  0  0  0  0  0  0  0  0  0  0  0
   18.9439   20.4409   22.4459 H   0  0  0  0  0  0  0  0  0  0  0  0
   17.5358   19.9707   21.5236 H   0  0  0  0  0  0  0  0  0  0  0  0
   18.4574   18.2973   22.5360 C   0  0  0  0  0  0  0  0  0  0  0  0
   18.5201   17.4760   21.8090 H   0  0  0  0  0  0  0  0  0  0  0  0
   17.4596   18.2122   22.9881 H   0  0  0  0  0  0  0  0  0  0  0  0
   19.5160   18.0837   23.6494 C   0  0  0  0  0  0  0  0  0  0  0  0
   19.4836   17.0298   23.9582 H   0  0  0  0  0  0  0  0  0  0  0  0
   20.5255   18.2557   23.2578 H   0  0  0  0  0  0  0  0  0  0  0  0
   19.2833   18.9718   24.8959 C   0  0  0  0  0  0  0  0  0  0  0  0
   18.2654   18.8056   25.2727 H   0  0  0  0  0  0  0  0  0  0  0  0
   19.3525   20.0327   24.6236 H   0  0  0  0  0  0  0  0  0  0  0  0
   20.3112   18.6695   26.0117 C   0  0  0  0  0  0  0  0  0  0  0  0
   20.2296   17.6202   26.3252 H   0  0  0  0  0  0  0  0  0  0  0  0
   21.3269   18.8002   25.6151 H   0  0  0  0  0  0  0  0  0  0  0  0
   20.1450   19.5869   27.2384 C   0  0  0  0  0  0  0  0  0  0  0  0
   20.2203   20.6328   26.9289 H   0  0  0  0  0  0  0  0  0  0  0  0
   20.9462   19.3843   27.9543 H   0  0  0  0  0  0  0  0  0  0  0  0
   18.8253   19.4042   27.9617 N   0  3  0  0  0  0  0  0  0  0  0  0
   18.0276   19.6139   27.3535 H   0  0  0  0  0  0  0  0  0  0  0  0
   18.7505   20.0197   28.7790 H   0  0  0  0  0  0  0  0  0  0  0  0
   18.7059   18.4430   28.2981 H   0  0  0  0  0  0  0  0  0  0  0  0
  1  2  1  0  0  0  0
  1  3  1  0  0  0  0
  1  4  1  0  0  0  0
  1  5  1  0  0  0  0
  5  6  1  0  0  0  0
  5  7  1  0  0  0  0
  5  8  1  0  0  0  0
  8  9  1  0  0  0  0
  8 10  1  0  0  0  0
  8 11  1  0  0  0  0
 11 12  1  0  0  0  0
 11 13  1  0  0  0  0
 11 14  1  0  0  0  0
 14 15  1  0  0  0  0
 14 16  1  0  0  0  0
 14 17  1  0  0  0  0
 17 18  1  0  0  0  0
 17 19  1  0  0  0  0
 17 20  1  0  0  0  0
 20 21  1  0  0  0  0
 20 22  1  0  0  0  0
 20 23  1  0  0  0  0
 23 24  1  0  0  0  0
 23 25  1  0  0  0  0
 23 26  1  0  0  0  0
 26 27  1  0  0  0  0
 26 28  1  0  0  0  0
 26 29  1  0  0  0  0
M  END
> <VM2 Rank>
323

> <Conf_Id>
2011

> <Probability>
0.00

> <Sum Probability>
99.85

> <Delta G>
4.437

> <G>
62.585

> <E>
24.910

> <-TS>
37.675

> <U+W>
0.765

> <U>
52.622

> <W>
-51.857

> <W(PB)>
-54.288

> <W(SA)>
2.430

> <Valence>
6.392

> <Coulomb>
45.185

> <VdW>
1.045

> <VdW6>
-9.593

> <VdW12>
10.638

> <Bond>
0.303

> <Angle>
1.505

> <Pdih>
4.584

> <Idih>
0.000

> <Tether>
0.000

$$$$
VeraChem MOL file


 29 28  0  0  0  0  0  0  0  0999 V2000     
   21.2324   19.3592   20.5453 C   0  0  0  0  0  0  0  0  0  0  0  0
   21.6178   20.3030   20.1383 H   0  0  0  0  0  0  0  0  0  0  0  0
   22.0034   18.9352   21.2017 H   0  0  0  0  0  0  0  0  0  0  0  0
   21.0795   18.6679   19.7062 H   0  0  0  0  0  0  0  0  0  0  0  0
   19.9167   19.5953   21.3165 C   0  0  0  0  0  0  0  0  0  0  0  0
   19.1785   20.0508   20.6418 H   0  0  0  0  0  0  0  0  0  0  0  0
   20.0959   20.3221   22.1177 H   0  0  0  0  0  0  0  0  0  0  0  0
   19.3478   18.2752   21.8902 C   0  0  0  0  0  0  0  0  0  0  0  0
   19.1535   17.5946   21.0497 H   0  0  0  0  0  0  0  0  0  0  0  0
   20.0980   17.7746   22.5174 H   0  0  0  0  0  0  0  0  0  0  0  0
   18.0283   18.4631   22.6834 C   0  0  0  0  0  0  0  0  0  0  0  0
   17.3895   17.5892   22.4952 H   0  0  0  0  0  0  0  0  0  0  0  0
   17.4693   19.3262   22.2962 H   0  0  0  0  0  0  0  0  0  0  0  0
   18.2066   18.5870   24.2184 C   0  0  0  0  0  0  0  0  0  0  0  0
   17.2096   18.6348   24.6778 H   0  0  0  0  0  0  0  0  0  0  0  0
   18.6757   17.6701   24.5995 H   0  0  0  0  0  0  0  0  0  0  0  0
   19.0256   19.8221   24.6663 C   0  0  0  0  0  0  0  0  0  0  0  0
   18.6210   20.7201   24.1796 H   0  0  0  0  0  0  0  0  0  0  0  0
   20.0647   19.7243   24.3284 H   0  0  0  0  0  0  0  0  0  0  0  0
   19.0037   20.0393   26.2000 C   0  0  0  0  0  0  0  0  0  0  0  0
   19.5739   20.9447   26.4471 H   0  0  0  0  0  0  0  0  0  0  0  0
   17.9719   20.2297   26.5241 H   0  0  0  0  0  0  0  0  0  0  0  0
   19.5649   18.8520   27.0082 C   0  0  0  0  0  0  0  0  0  0  0  0
   18.9783   17.9533   26.8005 H   0  0  0  0  0  0  0  0  0  0  0  0
   19.4855   19.0700   28.0767 H   0  0  0  0  0  0  0  0  0  0  0  0
   21.0182   18.5447   26.7067 N   0  3  0  0  0  0  0  0  0  0  0  0
   21.1550   18.3031   25.7202 H   0  0  0  0  0  0  0  0  0  0  0  0
   21.3640   17.7551   27.2628 H   0  0  0  0  0  0  0  0  0  0  0  0
   21.6257   19.3449   26.9110 H   0  0  0  0  0  0  0  0  0  0  0  0
  1  2  1  0  0  0  0
  1  3  1  0  0  0  0
  1  4  1  0  0  0  0
  1  5  1  0  0  0  0
  5  6  1  0  0  0  0
  5  7  1  0  0  0  0
  5  8  1  0  0  0  0
  8  9  1  0  0  0  0
  8 10  1  0  0  0  0
  8 11  1  0  0  0  0
 11 12  1  0  0  0  0
 11 13  1  0  0  0  0
 11 14  1  0  0  0  0
 14 15  1  0  0  0  0
 14 16  1  0  0  0  0
 14 17  1  0  0  0  0
 17 18  1  0  0  0  0
 17 19  1  0  0  0  0
 17 20  1  0  0  0  0
 20 21  1  0  0  0  0
 20 22  1  0  0  0  0
 20 23  1  0  0  0  0
 23 24  1  0  0  0  0
 23 25  1  0  0  0  0
 23 26  1  0  0  0  0
 26 27  1  0  0  0  0
 26 28  1  0  0  0  0
 26 29  1  0  0  0  0
M  END
> <VM2 Rank>
324

> <Conf_Id>
1981

> <Probability>
0.00

> <Sum Probability>
99.85

> <Delta G>
4.437

> <G>
62.585

> <E>
24.731

> <-TS>
37.854

> <U+W>
0.587

> <U>
52.923

> <W>
-52.337

> <W(PB)>
-54.761

> <W(SA)>
2.424

> <Valence>
5.968

> <Coulomb>
46.185

> <VdW>
0.771

> <VdW6>
-10.004

> <VdW12>
10.775

> <Bond>
0.276

> <Angle>
1.354

> <Pdih>
4.338

> <Idih>
0.000

> <Tether>
0.000

$$$$
VeraChem MOL file


 29 28  0  0  0  0  0  0  0  0999 V2000     
   19.6134   17.3309   21.4336 C   0  0  0  0  0  0  0  0  0  0  0  0
   20.2006   17.3114   22.3595 H   0  0  0  0  0  0  0  0  0  0  0  0
   18.9690   16.4423   21.4304 H   0  0  0  0  0  0  0  0  0  0  0  0
   20.3077   17.2449   20.5879 H   0  0  0  0  0  0  0  0  0  0  0  0
   18.7632   18.6169   21.3217 C   0  0  0  0  0  0  0  0  0  0  0  0
   18.0581   18.6828   22.1600 H   0  0  0  0  0  0  0  0  0  0  0  0
   18.1425   18.5475   20.4176 H   0  0  0  0  0  0  0  0  0  0  0  0
   19.6131   19.9080   21.2340 C   0  0  0  0  0  0  0  0  0  0  0  0
   20.2433   19.8504   20.3359 H   0  0  0  0  0  0  0  0  0  0  0  0
   18.9415   20.7621   21.0707 H   0  0  0  0  0  0  0  0  0  0  0  0
   20.5222   20.2115   22.4555 C   0  0  0  0  0  0  0  0  0  0  0  0
   21.1092   21.1063   22.2063 H   0  0  0  0  0  0  0  0  0  0  0  0
   21.2614   19.4126   22.5987 H   0  0  0  0  0  0  0  0  0  0  0  0
   19.7636   20.4980   23.7783 C   0  0  0  0  0  0  0  0  0  0  0  0
   20.3247   21.2592   24.3379 H   0  0  0  0  0  0  0  0  0  0  0  0
   18.7830   20.9432   23.5615 H   0  0  0  0  0  0  0  0  0  0  0  0
   19.6031   19.2562   24.6886 C   0  0  0  0  0  0  0  0  0  0  0  0
   20.5952   18.8387   24.9053 H   0  0  0  0  0  0  0  0  0  0  0  0
   19.0370   18.4731   24.1718 H   0  0  0  0  0  0  0  0  0  0  0  0
   18.8834   19.6078   26.0119 C   0  0  0  0  0  0  0  0  0  0  0  0
   19.4596   20.3609   26.5659 H   0  0  0  0  0  0  0  0  0  0  0  0
   17.9094   20.0619   25.7860 H   0  0  0  0  0  0  0  0  0  0  0  0
   18.6510   18.3763   26.9081 C   0  0  0  0  0  0  0  0  0  0  0  0
   18.0827   17.6220   26.3573 H   0  0  0  0  0  0  0  0  0  0  0  0
   18.0674   18.6705   27.7848 H   0  0  0  0  0  0  0  0  0  0  0  0
   19.9310   17.7324   27.4032 N   0  3  0  0  0  0  0  0  0  0  0  0
   20.4996   18.3877   27.9496 H   0  0  0  0  0  0  0  0  0  0  0  0
   20.5125   17.3996   26.6278 H   0  0  0  0  0  0  0  0  0  0  0  0
   19.7421   16.9241   28.0062 H   0  0  0  0  0  0  0  0  0  0  0  0
  1  2  1  0  0  0  0
  1  3  1  0  0  0  0
  1  4  1  0  0  0  0
  1  5  1  0  0  0  0
  5  6  1  0  0  0  0
  5  7  1  0  0  0  0
  5  8  1  0  0  0  0
  8  9  1  0  0  0  0
  8 10  1  0  0  0  0
  8 11  1  0  0  0  0
 11 12  1  0  0  0  0
 11 13  1  0  0  0  0
 11 14  1  0  0  0  0
 14 15  1  0  0  0  0
 14 16  1  0  0  0  0
 14 17  1  0  0  0  0
 17 18  1  0  0  0  0
 17 19  1  0  0  0  0
 17 20  1  0  0  0  0
 20 21  1  0  0  0  0
 20 22  1  0  0  0  0
 20 23  1  0  0  0  0
 23 24  1  0  0  0  0
 23 25  1  0  0  0  0
 23 26  1  0  0  0  0
 26 27  1  0  0  0  0
 26 28  1  0  0  0  0
 26 29  1  0  0  0  0
M  END
> <VM2 Rank>
325

> <Conf_Id>
351

> <Probability>
0.00

> <Sum Probability>
99.85

> <Delta G>
4.448

> <G>
62.596

> <E>
24.491

> <-TS>
38.104

> <U+W>
0.347

> <U>
52.599

> <W>
-52.252

> <W(PB)>
-54.666

> <W(SA)>
2.414

> <Valence>
6.291

> <Coulomb>
45.618

> <VdW>
0.690

> <VdW6>
-10.178

> <VdW12>
10.868

> <Bond>
0.295

> <Angle>
1.800

> <Pdih>
4.197

> <Idih>
0.000

> <Tether>
0.000

$$$$
VeraChem MOL file


 29 28  0  0  0  0  0  0  0  0999 V2000     
   20.5465   18.9367   19.8832 C   0  0  0  0  0  0  0  0  0  0  0  0
   19.6908   18.4776   19.3711 H   0  0  0  0  0  0  0  0  0  0  0  0
   21.0805   19.5604   19.1546 H   0  0  0  0  0  0  0  0  0  0  0  0
   21.2249   18.1347   20.2020 H   0  0  0  0  0  0  0  0  0  0  0  0
   20.0827   19.7824   21.0881 C   0  0  0  0  0  0  0  0  0  0  0  0
   19.4343   20.5961   20.7340 H   0  0  0  0  0  0  0  0  0  0  0  0
   20.9559   20.2548   21.5596 H   0  0  0  0  0  0  0  0  0  0  0  0
   19.3268   18.9278   22.1292 C   0  0  0  0  0  0  0  0  0  0  0  0
   18.4539   18.4591   21.6543 H   0  0  0  0  0  0  0  0  0  0  0  0
   19.9815   18.1142   22.4681 H   0  0  0  0  0  0  0  0  0  0  0  0
   18.8657   19.7731   23.3403 C   0  0  0  0  0  0  0  0  0  0  0  0
   18.2671   20.6196   22.9765 H   0  0  0  0  0  0  0  0  0  0  0  0
   19.7411   20.2116   23.8352 H   0  0  0  0  0  0  0  0  0  0  0  0
   18.0129   18.9746   24.3603 C   0  0  0  0  0  0  0  0  0  0  0  0
   17.6557   19.6503   25.1471 H   0  0  0  0  0  0  0  0  0  0  0  0
   17.1048   18.6193   23.8540 H   0  0  0  0  0  0  0  0  0  0  0  0
   18.7209   17.7536   25.0059 C   0  0  0  0  0  0  0  0  0  0  0  0
   18.9014   16.9956   24.2322 H   0  0  0  0  0  0  0  0  0  0  0  0
   18.0278   17.2830   25.7167 H   0  0  0  0  0  0  0  0  0  0  0  0
   20.0596   18.0456   25.7350 C   0  0  0  0  0  0  0  0  0  0  0  0
   20.4802   17.0832   26.0554 H   0  0  0  0  0  0  0  0  0  0  0  0
   20.7976   18.4754   25.0460 H   0  0  0  0  0  0  0  0  0  0  0  0
   19.9194   18.9304   26.9911 C   0  0  0  0  0  0  0  0  0  0  0  0
   20.7995   18.7928   27.6252 H   0  0  0  0  0  0  0  0  0  0  0  0
   19.0391   18.6233   27.5620 H   0  0  0  0  0  0  0  0  0  0  0  0
   19.8094   20.4138   26.7019 N   0  3  0  0  0  0  0  0  0  0  0  0
   19.6895   20.9609   27.5616 H   0  0  0  0  0  0  0  0  0  0  0  0
   19.0105   20.6194   26.0950 H   0  0  0  0  0  0  0  0  0  0  0  0
   20.6484   20.7711   26.2337 H   0  0  0  0  0  0  0  0  0  0  0  0
  1  2  1  0  0  0  0
  1  3  1  0  0  0  0
  1  4  1  0  0  0  0
  1  5  1  0  0  0  0
  5  6  1  0  0  0  0
  5  7  1  0  0  0  0
  5  8  1  0  0  0  0
  8  9  1  0  0  0  0
  8 10  1  0  0  0  0
  8 11  1  0  0  0  0
 11 12  1  0  0  0  0
 11 13  1  0  0  0  0
 11 14  1  0  0  0  0
 14 15  1  0  0  0  0
 14 16  1  0  0  0  0
 14 17  1  0  0  0  0
 17 18  1  0  0  0  0
 17 19  1  0  0  0  0
 17 20  1  0  0  0  0
 20 21  1  0  0  0  0
 20 22  1  0  0  0  0
 20 23  1  0  0  0  0
 23 24  1  0  0  0  0
 23 25  1  0  0  0  0
 23 26  1  0  0  0  0
 26 27  1  0  0  0  0
 26 28  1  0  0  0  0
 26 29  1  0  0  0  0
M  END
> <VM2 Rank>
326

> <Conf_Id>
2506

> <Probability>
0.00

> <Sum Probability>
99.86

> <Delta G>
4.450

> <G>
62.598

> <E>
24.427

> <-TS>
38.171

> <U+W>
0.283

> <U>
52.614

> <W>
-52.332

> <W(PB)>
-54.768

> <W(SA)>
2.437

> <Valence>
5.081

> <Coulomb>
47.115

> <VdW>
0.418

> <VdW6>
-10.638

> <VdW12>
11.056

> <Bond>
0.294

> <Angle>
1.796

> <Pdih>
2.991

> <Idih>
0.000

> <Tether>
0.000

$$$$
VeraChem MOL file


 29 28  0  0  0  0  0  0  0  0999 V2000     
   20.7175   19.3079   19.7469 C   0  0  0  0  0  0  0  0  0  0  0  0
   20.8810   20.1314   19.0397 H   0  0  0  0  0  0  0  0  0  0  0  0
   21.6990   18.9014   20.0238 H   0  0  0  0  0  0  0  0  0  0  0  0
   20.1566   18.5216   19.2250 H   0  0  0  0  0  0  0  0  0  0  0  0
   19.9509   19.8027   20.9916 C   0  0  0  0  0  0  0  0  0  0  0  0
   18.9892   20.2339   20.6800 H   0  0  0  0  0  0  0  0  0  0  0  0
   20.5198   20.6107   21.4725 H   0  0  0  0  0  0  0  0  0  0  0  0
   19.7071   18.6617   22.0038 C   0  0  0  0  0  0  0  0  0  0  0  0
   19.1400   17.8561   21.5172 H   0  0  0  0  0  0  0  0  0  0  0  0
   20.6709   18.2316   22.3092 H   0  0  0  0  0  0  0  0  0  0  0  0
   18.9394   19.1535   23.2513 C   0  0  0  0  0  0  0  0  0  0  0  0
   17.9724   19.5746   22.9433 H   0  0  0  0  0  0  0  0  0  0  0  0
   19.5022   19.9695   23.7212 H   0  0  0  0  0  0  0  0  0  0  0  0
   18.7001   18.0091   24.2654 C   0  0  0  0  0  0  0  0  0  0  0  0
   18.1487   17.2030   23.7617 H   0  0  0  0  0  0  0  0  0  0  0  0
   19.6539   17.5638   24.5738 H   0  0  0  0  0  0  0  0  0  0  0  0
   17.8872   18.4435   25.5114 C   0  0  0  0  0  0  0  0  0  0  0  0
   17.7201   17.5614   26.1450 H   0  0  0  0  0  0  0  0  0  0  0  0
   16.8897   18.7682   25.1844 H   0  0  0  0  0  0  0  0  0  0  0  0
   18.5122   19.5683   26.3797 C   0  0  0  0  0  0  0  0  0  0  0  0
   18.5934   20.5037   25.8116 H   0  0  0  0  0  0  0  0  0  0  0  0
   17.8143   19.7817   27.2001 H   0  0  0  0  0  0  0  0  0  0  0  0
   19.8737   19.2055   27.0082 C   0  0  0  0  0  0  0  0  0  0  0  0
   19.8571   18.1675   27.3509 H   0  0  0  0  0  0  0  0  0  0  0  0
   20.0499   19.8468   27.8760 H   0  0  0  0  0  0  0  0  0  0  0  0
   21.0559   19.3858   26.0767 N   0  3  0  0  0  0  0  0  0  0  0  0
   21.1690   20.3651   25.7950 H   0  0  0  0  0  0  0  0  0  0  0  0
   20.9465   18.8337   25.2206 H   0  0  0  0  0  0  0  0  0  0  0  0
   21.9358   19.0974   26.5185 H   0  0  0  0  0  0  0  0  0  0  0  0
  1  2  1  0  0  0  0
  1  3  1  0  0  0  0
  1  4  1  0  0  0  0
  1  5  1  0  0  0  0
  5  6  1  0  0  0  0
  5  7  1  0  0  0  0
  5  8  1  0  0  0  0
  8  9  1  0  0  0  0
  8 10  1  0  0  0  0
  8 11  1  0  0  0  0
 11 12  1  0  0  0  0
 11 13  1  0  0  0  0
 11 14  1  0  0  0  0
 14 15  1  0  0  0  0
 14 16  1  0  0  0  0
 14 17  1  0  0  0  0
 17 18  1  0  0  0  0
 17 19  1  0  0  0  0
 17 20  1  0  0  0  0
 20 21  1  0  0  0  0
 20 22  1  0  0  0  0
 20 23  1  0  0  0  0
 23 24  1  0  0  0  0
 23 25  1  0  0  0  0
 23 26  1  0  0  0  0
 26 27  1  0  0  0  0
 26 28  1  0  0  0  0
 26 29  1  0  0  0  0
M  END
> <VM2 Rank>
327

> <Conf_Id>
2442

> <Probability>
0.00

> <Sum Probability>
99.86

> <Delta G>
4.453

> <G>
62.601

> <E>
24.642

> <-TS>
37.959

> <U+W>
0.497

> <U>
52.295

> <W>
-51.798

> <W(PB)>
-54.264

> <W(SA)>
2.466

> <Valence>
4.642

> <Coulomb>
47.212

> <VdW>
0.441

> <VdW6>
-9.835

> <VdW12>
10.276

> <Bond>
0.247

> <Angle>
1.461

> <Pdih>
2.934

> <Idih>
0.000

> <Tether>
0.000

$$$$
VeraChem MOL file


 29 28  0  0  0  0  0  0  0  0999 V2000     
   21.2470   18.6052   21.7728 C   0  0  0  0  0  0  0  0  0  0  0  0
   21.2015   18.4419   22.8560 H   0  0  0  0  0  0  0  0  0  0  0  0
   22.0739   17.9963   21.3849 H   0  0  0  0  0  0  0  0  0  0  0  0
   21.4894   19.6594   21.5863 H   0  0  0  0  0  0  0  0  0  0  0  0
   19.9197   18.2090   21.0908 C   0  0  0  0  0  0  0  0  0  0  0  0
   19.6672   17.1737   21.3589 H   0  0  0  0  0  0  0  0  0  0  0  0
   20.0687   18.2135   20.0020 H   0  0  0  0  0  0  0  0  0  0  0  0
   18.7257   19.1390   21.4259 C   0  0  0  0  0  0  0  0  0  0  0  0
   18.9275   20.1568   21.0650 H   0  0  0  0  0  0  0  0  0  0  0  0
   17.8609   18.7864   20.8470 H   0  0  0  0  0  0  0  0  0  0  0  0
   18.3238   19.1666   22.9237 C   0  0  0  0  0  0  0  0  0  0  0  0
   18.5618   18.1999   23.3858 H   0  0  0  0  0  0  0  0  0  0  0  0
   17.2324   19.2758   22.9879 H   0  0  0  0  0  0  0  0  0  0  0  0
   18.9716   20.3327   23.7140 C   0  0  0  0  0  0  0  0  0  0  0  0
   20.0645   20.2560   23.6905 H   0  0  0  0  0  0  0  0  0  0  0  0
   18.7290   21.2791   23.2114 H   0  0  0  0  0  0  0  0  0  0  0  0
   18.4859   20.4279   25.1835 C   0  0  0  0  0  0  0  0  0  0  0  0
   17.4036   20.6167   25.1942 H   0  0  0  0  0  0  0  0  0  0  0  0
   18.9503   21.3072   25.6510 H   0  0  0  0  0  0  0  0  0  0  0  0
   18.7879   19.1817   26.0524 C   0  0  0  0  0  0  0  0  0  0  0  0
   18.4332   19.3689   27.0746 H   0  0  0  0  0  0  0  0  0  0  0  0
   18.2190   18.3188   25.6836 H   0  0  0  0  0  0  0  0  0  0  0  0
   20.2875   18.8347   26.0957 C   0  0  0  0  0  0  0  0  0  0  0  0
   20.8524   19.6900   26.4760 H   0  0  0  0  0  0  0  0  0  0  0  0
   20.6421   18.6075   25.0872 H   0  0  0  0  0  0  0  0  0  0  0  0
   20.5948   17.6411   26.9763 N   0  3  0  0  0  0  0  0  0  0  0  0
   20.3090   17.8007   27.9480 H   0  0  0  0  0  0  0  0  0  0  0  0
   21.5980   17.4268   26.9913 H   0  0  0  0  0  0  0  0  0  0  0  0
   20.1127   16.7952   26.6548 H   0  0  0  0  0  0  0  0  0  0  0  0
  1  2  1  0  0  0  0
  1  3  1  0  0  0  0
  1  4  1  0  0  0  0
  1  5  1  0  0  0  0
  5  6  1  0  0  0  0
  5  7  1  0  0  0  0
  5  8  1  0  0  0  0
  8  9  1  0  0  0  0
  8 10  1  0  0  0  0
  8 11  1  0  0  0  0
 11 12  1  0  0  0  0
 11 13  1  0  0  0  0
 11 14  1  0  0  0  0
 14 15  1  0  0  0  0
 14 16  1  0  0  0  0
 14 17  1  0  0  0  0
 17 18  1  0  0  0  0
 17 19  1  0  0  0  0
 17 20  1  0  0  0  0
 20 21  1  0  0  0  0
 20 22  1  0  0  0  0
 20 23  1  0  0  0  0
 23 24  1  0  0  0  0
 23 25  1  0  0  0  0
 23 26  1  0  0  0  0
 26 27  1  0  0  0  0
 26 28  1  0  0  0  0
 26 29  1  0  0  0  0
M  END
> <VM2 Rank>
328

> <Conf_Id>
1633

> <Probability>
0.00

> <Sum Probability>
99.86

> <Delta G>
4.454

> <G>
62.602

> <E>
24.627

> <-TS>
37.975

> <U+W>
0.482

> <U>
53.131

> <W>
-52.649

> <W(PB)>
-55.048

> <W(SA)>
2.399

> <Valence>
6.303

> <Coulomb>
46.251

> <VdW>
0.577

> <VdW6>
-10.485

> <VdW12>
11.062

> <Bond>
0.303

> <Angle>
1.680

> <Pdih>
4.320

> <Idih>
0.000

> <Tether>
0.000

$$$$
VeraChem MOL file


 29 28  0  0  0  0  0  0  0  0999 V2000     
   19.6618   17.7733   20.4546 C   0  0  0  0  0  0  0  0  0  0  0  0
   20.7491   17.6801   20.5726 H   0  0  0  0  0  0  0  0  0  0  0  0
   19.1748   17.3112   21.3222 H   0  0  0  0  0  0  0  0  0  0  0  0
   19.3694   17.1960   19.5679 H   0  0  0  0  0  0  0  0  0  0  0  0
   19.2434   19.2515   20.2981 C   0  0  0  0  0  0  0  0  0  0  0  0
   18.1483   19.3150   20.2332 H   0  0  0  0  0  0  0  0  0  0  0  0
   19.6274   19.6268   19.3392 H   0  0  0  0  0  0  0  0  0  0  0  0
   19.7509   20.1815   21.4296 C   0  0  0  0  0  0  0  0  0  0  0  0
   20.8494   20.2019   21.4383 H   0  0  0  0  0  0  0  0  0  0  0  0
   19.4377   21.2050   21.1813 H   0  0  0  0  0  0  0  0  0  0  0  0
   19.2073   19.8384   22.8411 C   0  0  0  0  0  0  0  0  0  0  0  0
   18.2250   19.3536   22.7578 H   0  0  0  0  0  0  0  0  0  0  0  0
   19.0389   20.7807   23.3784 H   0  0  0  0  0  0  0  0  0  0  0  0
   20.1761   18.9599   23.6738 C   0  0  0  0  0  0  0  0  0  0  0  0
   20.4690   18.0766   23.0940 H   0  0  0  0  0  0  0  0  0  0  0  0
   21.1037   19.5167   23.8649 H   0  0  0  0  0  0  0  0  0  0  0  0
   19.5761   18.4799   25.0182 C   0  0  0  0  0  0  0  0  0  0  0  0
   20.2844   17.7771   25.4764 H   0  0  0  0  0  0  0  0  0  0  0  0
   18.6561   17.9104   24.8269 H   0  0  0  0  0  0  0  0  0  0  0  0
   19.2792   19.6318   26.0109 C   0  0  0  0  0  0  0  0  0  0  0  0
   20.1878   20.2235   26.1842 H   0  0  0  0  0  0  0  0  0  0  0  0
   18.5370   20.3137   25.5776 H   0  0  0  0  0  0  0  0  0  0  0  0
   18.7295   19.1269   27.3589 C   0  0  0  0  0  0  0  0  0  0  0  0
   17.8359   18.5205   27.1884 H   0  0  0  0  0  0  0  0  0  0  0  0
   18.4479   19.9827   27.9785 H   0  0  0  0  0  0  0  0  0  0  0  0
   19.7197   18.2948   28.1499 N   0  3  0  0  0  0  0  0  0  0  0  0
   19.9999   17.4516   27.6393 H   0  0  0  0  0  0  0  0  0  0  0  0
   19.3275   17.9868   29.0466 H   0  0  0  0  0  0  0  0  0  0  0  0
   20.5747   18.8198   28.3610 H   0  0  0  0  0  0  0  0  0  0  0  0
  1  2  1  0  0  0  0
  1  3  1  0  0  0  0
  1  4  1  0  0  0  0
  1  5  1  0  0  0  0
  5  6  1  0  0  0  0
  5  7  1  0  0  0  0
  5  8  1  0  0  0  0
  8  9  1  0  0  0  0
  8 10  1  0  0  0  0
  8 11  1  0  0  0  0
 11 12  1  0  0  0  0
 11 13  1  0  0  0  0
 11 14  1  0  0  0  0
 14 15  1  0  0  0  0
 14 16  1  0  0  0  0
 14 17  1  0  0  0  0
 17 18  1  0  0  0  0
 17 19  1  0  0  0  0
 17 20  1  0  0  0  0
 20 21  1  0  0  0  0
 20 22  1  0  0  0  0
 20 23  1  0  0  0  0
 23 24  1  0  0  0  0
 23 25  1  0  0  0  0
 23 26  1  0  0  0  0
 26 27  1  0  0  0  0
 26 28  1  0  0  0  0
 26 29  1  0  0  0  0
M  END
> <VM2 Rank>
329

> <Conf_Id>
1351

> <Probability>
0.00

> <Sum Probability>
99.86

> <Delta G>
4.456

> <G>
62.604

> <E>
24.838

> <-TS>
37.767

> <U+W>
0.693

> <U>
52.368

> <W>
-51.675

> <W(PB)>
-54.138

> <W(SA)>
2.463

> <Valence>
6.262

> <Coulomb>
45.003

> <VdW>
1.103

> <VdW6>
-9.650

> <VdW12>
10.753

> <Bond>
0.297

> <Angle>
1.422

> <Pdih>
4.543

> <Idih>
0.000

> <Tether>
0.000

$$$$
VeraChem MOL file


 29 28  0  0  0  0  0  0  0  0999 V2000     
   20.4412   18.6419   19.8766 C   0  0  0  0  0  0  0  0  0  0  0  0
   21.4694   18.8207   20.2171 H   0  0  0  0  0  0  0  0  0  0  0  0
   20.4707   17.8504   19.1164 H   0  0  0  0  0  0  0  0  0  0  0  0
   20.0761   19.5584   19.3951 H   0  0  0  0  0  0  0  0  0  0  0  0
   19.5303   18.2333   21.0535 C   0  0  0  0  0  0  0  0  0  0  0  0
   19.9012   17.2970   21.4936 H   0  0  0  0  0  0  0  0  0  0  0  0
   18.5185   18.0279   20.6768 H   0  0  0  0  0  0  0  0  0  0  0  0
   19.4707   19.3313   22.1381 C   0  0  0  0  0  0  0  0  0  0  0  0
   20.4875   19.5332   22.4996 H   0  0  0  0  0  0  0  0  0  0  0  0
   19.0977   20.2647   21.6946 H   0  0  0  0  0  0  0  0  0  0  0  0
   18.5619   18.9211   23.3212 C   0  0  0  0  0  0  0  0  0  0  0  0
   18.9556   18.0086   23.7860 H   0  0  0  0  0  0  0  0  0  0  0  0
   17.5680   18.6593   22.9328 H   0  0  0  0  0  0  0  0  0  0  0  0
   18.3922   20.0377   24.3841 C   0  0  0  0  0  0  0  0  0  0  0  0
   17.9209   20.9071   23.9052 H   0  0  0  0  0  0  0  0  0  0  0  0
   17.6770   19.7099   25.1484 H   0  0  0  0  0  0  0  0  0  0  0  0
   19.7036   20.5087   25.0675 C   0  0  0  0  0  0  0  0  0  0  0  0
   19.4545   21.2831   25.8061 H   0  0  0  0  0  0  0  0  0  0  0  0
   20.3338   21.0115   24.3220 H   0  0  0  0  0  0  0  0  0  0  0  0
   20.5452   19.4072   25.7656 C   0  0  0  0  0  0  0  0  0  0  0  0
   20.8547   18.6352   25.0497 H   0  0  0  0  0  0  0  0  0  0  0  0
   21.4751   19.8728   26.1180 H   0  0  0  0  0  0  0  0  0  0  0  0
   19.8591   18.7616   26.9873 C   0  0  0  0  0  0  0  0  0  0  0  0
   19.3635   19.5334   27.5823 H   0  0  0  0  0  0  0  0  0  0  0  0
   20.6186   18.2863   27.6140 H   0  0  0  0  0  0  0  0  0  0  0  0
   18.8397   17.6953   26.6411 N   0  3  0  0  0  0  0  0  0  0  0  0
   18.0997   18.0656   26.0377 H   0  0  0  0  0  0  0  0  0  0  0  0
   18.3886   17.3138   27.4799 H   0  0  0  0  0  0  0  0  0  0  0  0
   19.2702   16.9068   26.1473 H   0  0  0  0  0  0  0  0  0  0  0  0
  1  2  1  0  0  0  0
  1  3  1  0  0  0  0
  1  4  1  0  0  0  0
  1  5  1  0  0  0  0
  5  6  1  0  0  0  0
  5  7  1  0  0  0  0
  5  8  1  0  0  0  0
  8  9  1  0  0  0  0
  8 10  1  0  0  0  0
  8 11  1  0  0  0  0
 11 12  1  0  0  0  0
 11 13  1  0  0  0  0
 11 14  1  0  0  0  0
 14 15  1  0  0  0  0
 14 16  1  0  0  0  0
 14 17  1  0  0  0  0
 17 18  1  0  0  0  0
 17 19  1  0  0  0  0
 17 20  1  0  0  0  0
 20 21  1  0  0  0  0
 20 22  1  0  0  0  0
 20 23  1  0  0  0  0
 23 24  1  0  0  0  0
 23 25  1  0  0  0  0
 23 26  1  0  0  0  0
 26 27  1  0  0  0  0
 26 28  1  0  0  0  0
 26 29  1  0  0  0  0
M  END
> <VM2 Rank>
330

> <Conf_Id>
2624

> <Probability>
0.00

> <Sum Probability>
99.87

> <Delta G>
4.475

> <G>
62.623

> <E>
24.453

> <-TS>
38.171

> <U+W>
0.308

> <U>
52.614

> <W>
-52.306

> <W(PB)>
-54.731

> <W(SA)>
2.425

> <Valence>
5.081

> <Coulomb>
47.116

> <VdW>
0.418

> <VdW6>
-10.638

> <VdW12>
11.055

> <Bond>
0.294

> <Angle>
1.796

> <Pdih>
2.991

> <Idih>
0.000

> <Tether>
0.000

$$$$
VeraChem MOL file


 29 28  0  0  0  0  0  0  0  0999 V2000     
   20.7535   20.1639   20.6954 C   0  0  0  0  0  0  0  0  0  0  0  0
   20.5485   19.8307   19.6697 H   0  0  0  0  0  0  0  0  0  0  0  0
   21.1807   21.1736   20.6398 H   0  0  0  0  0  0  0  0  0  0  0  0
   21.5193   19.5052   21.1223 H   0  0  0  0  0  0  0  0  0  0  0  0
   19.4627   20.1696   21.5460 C   0  0  0  0  0  0  0  0  0  0  0  0
   18.7729   20.9149   21.1259 H   0  0  0  0  0  0  0  0  0  0  0  0
   19.6956   20.5103   22.5618 H   0  0  0  0  0  0  0  0  0  0  0  0
   18.7441   18.7958   21.5755 C   0  0  0  0  0  0  0  0  0  0  0  0
   17.7304   18.9197   21.9804 H   0  0  0  0  0  0  0  0  0  0  0  0
   18.6061   18.4595   20.5386 H   0  0  0  0  0  0  0  0  0  0  0  0
   19.4850   17.6834   22.3668 C   0  0  0  0  0  0  0  0  0  0  0  0
   20.5710   17.8333   22.3311 H   0  0  0  0  0  0  0  0  0  0  0  0
   19.3043   16.7269   21.8573 H   0  0  0  0  0  0  0  0  0  0  0  0
   19.0253   17.5193   23.8385 C   0  0  0  0  0  0  0  0  0  0  0  0
   17.9579   17.2595   23.8609 H   0  0  0  0  0  0  0  0  0  0  0  0
   19.5579   16.6609   24.2707 H   0  0  0  0  0  0  0  0  0  0  0  0
   19.2718   18.7620   24.7246 C   0  0  0  0  0  0  0  0  0  0  0  0
   18.6424   19.5922   24.3786 H   0  0  0  0  0  0  0  0  0  0  0  0
   20.3179   19.0793   24.6212 H   0  0  0  0  0  0  0  0  0  0  0  0
   18.9520   18.4779   26.2112 C   0  0  0  0  0  0  0  0  0  0  0  0
   17.9176   18.1194   26.2982 H   0  0  0  0  0  0  0  0  0  0  0  0
   19.5960   17.6722   26.5881 H   0  0  0  0  0  0  0  0  0  0  0  0
   19.1133   19.7242   27.1025 C   0  0  0  0  0  0  0  0  0  0  0  0
   18.7954   19.4855   28.1211 H   0  0  0  0  0  0  0  0  0  0  0  0
   18.4776   20.5305   26.7267 H   0  0  0  0  0  0  0  0  0  0  0  0
   20.5364   20.2419   27.1746 N   0  3  0  0  0  0  0  0  0  0  0  0
   21.1799   19.5343   27.5440 H   0  0  0  0  0  0  0  0  0  0  0  0
   20.6120   21.0636   27.7842 H   0  0  0  0  0  0  0  0  0  0  0  0
   20.8864   20.5185   26.2521 H   0  0  0  0  0  0  0  0  0  0  0  0
  1  2  1  0  0  0  0
  1  3  1  0  0  0  0
  1  4  1  0  0  0  0
  1  5  1  0  0  0  0
  5  6  1  0  0  0  0
  5  7  1  0  0  0  0
  5  8  1  0  0  0  0
  8  9  1  0  0  0  0
  8 10  1  0  0  0  0
  8 11  1  0  0  0  0
 11 12  1  0  0  0  0
 11 13  1  0  0  0  0
 11 14  1  0  0  0  0
 14 15  1  0  0  0  0
 14 16  1  0  0  0  0
 14 17  1  0  0  0  0
 17 18  1  0  0  0  0
 17 19  1  0  0  0  0
 17 20  1  0  0  0  0
 20 21  1  0  0  0  0
 20 22  1  0  0  0  0
 20 23  1  0  0  0  0
 23 24  1  0  0  0  0
 23 25  1  0  0  0  0
 23 26  1  0  0  0  0
 26 27  1  0  0  0  0
 26 28  1  0  0  0  0
 26 29  1  0  0  0  0
M  END
> <VM2 Rank>
331

> <Conf_Id>
2653

> <Probability>
0.00

> <Sum Probability>
99.87

> <Delta G>
4.479

> <G>
62.627

> <E>
24.921

> <-TS>
37.705

> <U+W>
0.777

> <U>
53.031

> <W>
-52.254

> <W(PB)>
-54.696

> <W(SA)>
2.442

> <Valence>
6.405

> <Coulomb>
45.638

> <VdW>
0.988

> <VdW6>
-9.679

> <VdW12>
10.666

> <Bond>
0.299

> <Angle>
1.528

> <Pdih>
4.579

> <Idih>
0.000

> <Tether>
0.000

$$$$
VeraChem MOL file


 29 28  0  0  0  0  0  0  0  0999 V2000     
   20.0305   18.8145   19.5278 C   0  0  0  0  0  0  0  0  0  0  0  0
   21.0336   19.2606   19.5389 H   0  0  0  0  0  0  0  0  0  0  0  0
   20.1358   17.7410   19.3234 H   0  0  0  0  0  0  0  0  0  0  0  0
   19.4715   19.2624   18.6960 H   0  0  0  0  0  0  0  0  0  0  0  0
   19.3018   19.0561   20.8667 C   0  0  0  0  0  0  0  0  0  0  0  0
   18.2925   18.6245   20.8149 H   0  0  0  0  0  0  0  0  0  0  0  0
   19.1796   20.1372   21.0145 H   0  0  0  0  0  0  0  0  0  0  0  0
   20.0746   18.4372   22.0554 C   0  0  0  0  0  0  0  0  0  0  0  0
   20.2600   17.3749   21.8444 H   0  0  0  0  0  0  0  0  0  0  0  0
   21.0624   18.9105   22.1419 H   0  0  0  0  0  0  0  0  0  0  0  0
   19.3280   18.5440   23.4079 C   0  0  0  0  0  0  0  0  0  0  0  0
   19.8881   17.9611   24.1466 H   0  0  0  0  0  0  0  0  0  0  0  0
   18.3437   18.0640   23.3198 H   0  0  0  0  0  0  0  0  0  0  0  0
   19.1538   20.0029   23.9034 C   0  0  0  0  0  0  0  0  0  0  0  0
   20.1242   20.5175   23.9234 H   0  0  0  0  0  0  0  0  0  0  0  0
   18.5362   20.5461   23.1765 H   0  0  0  0  0  0  0  0  0  0  0  0
   18.4624   20.1194   25.2871 C   0  0  0  0  0  0  0  0  0  0  0  0
   17.7002   19.3372   25.4021 H   0  0  0  0  0  0  0  0  0  0  0  0
   17.9105   21.0693   25.3075 H   0  0  0  0  0  0  0  0  0  0  0  0
   19.4313   20.1264   26.4995 C   0  0  0  0  0  0  0  0  0  0  0  0
   20.1440   20.9541   26.3869 H   0  0  0  0  0  0  0  0  0  0  0  0
   18.8593   20.3433   27.4115 H   0  0  0  0  0  0  0  0  0  0  0  0
   20.2214   18.8215   26.7132 C   0  0  0  0  0  0  0  0  0  0  0  0
   20.8857   18.9382   27.5738 H   0  0  0  0  0  0  0  0  0  0  0  0
   20.8399   18.6148   25.8368 H   0  0  0  0  0  0  0  0  0  0  0  0
   19.3401   17.6160   26.9741 N   0  3  0  0  0  0  0  0  0  0  0  0
   18.7655   17.7419   27.8138 H   0  0  0  0  0  0  0  0  0  0  0  0
   19.8922   16.7626   27.1133 H   0  0  0  0  0  0  0  0  0  0  0  0
   18.7007   17.4413   26.1927 H   0  0  0  0  0  0  0  0  0  0  0  0
  1  2  1  0  0  0  0
  1  3  1  0  0  0  0
  1  4  1  0  0  0  0
  1  5  1  0  0  0  0
  5  6  1  0  0  0  0
  5  7  1  0  0  0  0
  5  8  1  0  0  0  0
  8  9  1  0  0  0  0
  8 10  1  0  0  0  0
  8 11  1  0  0  0  0
 11 12  1  0  0  0  0
 11 13  1  0  0  0  0
 11 14  1  0  0  0  0
 14 15  1  0  0  0  0
 14 16  1  0  0  0  0
 14 17  1  0  0  0  0
 17 18  1  0  0  0  0
 17 19  1  0  0  0  0
 17 20  1  0  0  0  0
 20 21  1  0  0  0  0
 20 22  1  0  0  0  0
 20 23  1  0  0  0  0
 23 24  1  0  0  0  0
 23 25  1  0  0  0  0
 23 26  1  0  0  0  0
 26 27  1  0  0  0  0
 26 28  1  0  0  0  0
 26 29  1  0  0  0  0
M  END
> <VM2 Rank>
332

> <Conf_Id>
859

> <Probability>
0.00

> <Sum Probability>
99.87

> <Delta G>
4.480

> <G>
62.628

> <E>
24.814

> <-TS>
37.814

> <U+W>
0.669

> <U>
53.045

> <W>
-52.376

> <W(PB)>
-54.825

> <W(SA)>
2.449

> <Valence>
5.932

> <Coulomb>
46.352

> <VdW>
0.761

> <VdW6>
-9.984

> <VdW12>
10.746

> <Bond>
0.298

> <Angle>
1.643

> <Pdih>
3.991

> <Idih>
0.000

> <Tether>
0.000

$$$$
VeraChem MOL file


 29 28  0  0  0  0  0  0  0  0999 V2000     
   21.4731   19.1074   21.0920 C   0  0  0  0  0  0  0  0  0  0  0  0
   22.0846   18.7469   21.9294 H   0  0  0  0  0  0  0  0  0  0  0  0
   21.4482   18.3233   20.3241 H   0  0  0  0  0  0  0  0  0  0  0  0
   21.9739   19.9845   20.6618 H   0  0  0  0  0  0  0  0  0  0  0  0
   20.0485   19.4694   21.5617 C   0  0  0  0  0  0  0  0  0  0  0  0
   19.4711   19.8564   20.7107 H   0  0  0  0  0  0  0  0  0  0  0  0
   20.1104   20.2825   22.2962 H   0  0  0  0  0  0  0  0  0  0  0  0
   19.3214   18.2465   22.1693 C   0  0  0  0  0  0  0  0  0  0  0  0
   19.2924   17.4458   21.4176 H   0  0  0  0  0  0  0  0  0  0  0  0
   19.8939   17.8403   23.0123 H   0  0  0  0  0  0  0  0  0  0  0  0
   17.8684   18.5487   22.6120 C   0  0  0  0  0  0  0  0  0  0  0  0
   17.4010   17.6120   22.9456 H   0  0  0  0  0  0  0  0  0  0  0  0
   17.2935   18.8695   21.7324 H   0  0  0  0  0  0  0  0  0  0  0  0
   17.7005   19.6153   23.7279 C   0  0  0  0  0  0  0  0  0  0  0  0
   18.0661   20.5940   23.3904 H   0  0  0  0  0  0  0  0  0  0  0  0
   16.6214   19.7503   23.8851 H   0  0  0  0  0  0  0  0  0  0  0  0
   18.3329   19.2368   25.0932 C   0  0  0  0  0  0  0  0  0  0  0  0
   18.3170   18.1463   25.2205 H   0  0  0  0  0  0  0  0  0  0  0  0
   17.6968   19.6448   25.8910 H   0  0  0  0  0  0  0  0  0  0  0  0
   19.7656   19.7928   25.2945 C   0  0  0  0  0  0  0  0  0  0  0  0
   20.4550   19.3858   24.5471 H   0  0  0  0  0  0  0  0  0  0  0  0
   19.7553   20.8809   25.1481 H   0  0  0  0  0  0  0  0  0  0  0  0
   20.3199   19.4991   26.7015 C   0  0  0  0  0  0  0  0  0  0  0  0
   19.6399   19.9021   27.4568 H   0  0  0  0  0  0  0  0  0  0  0  0
   21.2902   19.9892   26.8193 H   0  0  0  0  0  0  0  0  0  0  0  0
   20.5136   18.0221   26.9828 N   0  3  0  0  0  0  0  0  0  0  0  0
   20.8911   17.8602   27.9229 H   0  0  0  0  0  0  0  0  0  0  0  0
   21.1652   17.5906   26.3193 H   0  0  0  0  0  0  0  0  0  0  0  0
   19.6304   17.5060   26.9207 H   0  0  0  0  0  0  0  0  0  0  0  0
  1  2  1  0  0  0  0
  1  3  1  0  0  0  0
  1  4  1  0  0  0  0
  1  5  1  0  0  0  0
  5  6  1  0  0  0  0
  5  7  1  0  0  0  0
  5  8  1  0  0  0  0
  8  9  1  0  0  0  0
  8 10  1  0  0  0  0
  8 11  1  0  0  0  0
 11 12  1  0  0  0  0
 11 13  1  0  0  0  0
 11 14  1  0  0  0  0
 14 15  1  0  0  0  0
 14 16  1  0  0  0  0
 14 17  1  0  0  0  0
 17 18  1  0  0  0  0
 17 19  1  0  0  0  0
 17 20  1  0  0  0  0
 20 21  1  0  0  0  0
 20 22  1  0  0  0  0
 20 23  1  0  0  0  0
 23 24  1  0  0  0  0
 23 25  1  0  0  0  0
 23 26  1  0  0  0  0
 26 27  1  0  0  0  0
 26 28  1  0  0  0  0
 26 29  1  0  0  0  0
M  END
> <VM2 Rank>
333

> <Conf_Id>
2148

> <Probability>
0.00

> <Sum Probability>
99.88

> <Delta G>
4.482

> <G>
62.630

> <E>
24.486

> <-TS>
38.144

> <U+W>
0.342

> <U>
52.959

> <W>
-52.617

> <W(PB)>
-55.049

> <W(SA)>
2.431

> <Valence>
6.290

> <Coulomb>
46.161

> <VdW>
0.509

> <VdW6>
-10.494

> <VdW12>
11.002

> <Bond>
0.303

> <Angle>
1.848

> <Pdih>
4.138

> <Idih>
0.000

> <Tether>
0.000

$$$$
VeraChem MOL file


 29 28  0  0  0  0  0  0  0  0999 V2000     
   21.0350   17.8766   21.0653 C   0  0  0  0  0  0  0  0  0  0  0  0
   21.5226   18.5296   20.3297 H   0  0  0  0  0  0  0  0  0  0  0  0
   21.7244   17.7359   21.9080 H   0  0  0  0  0  0  0  0  0  0  0  0
   20.8748   16.8984   20.5936 H   0  0  0  0  0  0  0  0  0  0  0  0
   19.6956   18.4785   21.5398 C   0  0  0  0  0  0  0  0  0  0  0  0
   19.2188   17.7810   22.2402 H   0  0  0  0  0  0  0  0  0  0  0  0
   19.0160   18.5778   20.6819 H   0  0  0  0  0  0  0  0  0  0  0  0
   19.8964   19.8603   22.2057 C   0  0  0  0  0  0  0  0  0  0  0  0
   20.5845   19.7793   23.0561 H   0  0  0  0  0  0  0  0  0  0  0  0
   20.3909   20.5281   21.4869 H   0  0  0  0  0  0  0  0  0  0  0  0
   18.5732   20.5272   22.6562 C   0  0  0  0  0  0  0  0  0  0  0  0
   17.9376   20.6769   21.7726 H   0  0  0  0  0  0  0  0  0  0  0  0
   18.7983   21.5343   23.0331 H   0  0  0  0  0  0  0  0  0  0  0  0
   17.7531   19.7637   23.7312 C   0  0  0  0  0  0  0  0  0  0  0  0
   16.8296   20.3351   23.8981 H   0  0  0  0  0  0  0  0  0  0  0  0
   17.4226   18.7886   23.3501 H   0  0  0  0  0  0  0  0  0  0  0  0
   18.4631   19.6029   25.1013 C   0  0  0  0  0  0  0  0  0  0  0  0
   17.7011   19.6579   25.8913 H   0  0  0  0  0  0  0  0  0  0  0  0
   19.1384   20.4517   25.2718 H   0  0  0  0  0  0  0  0  0  0  0  0
   19.2185   18.2589   25.2604 C   0  0  0  0  0  0  0  0  0  0  0  0
   18.5244   17.4293   25.0718 H   0  0  0  0  0  0  0  0  0  0  0  0
   20.0200   18.1672   24.5197 H   0  0  0  0  0  0  0  0  0  0  0  0
   19.8143   18.0805   26.6697 C   0  0  0  0  0  0  0  0  0  0  0  0
   20.2540   17.0830   26.7547 H   0  0  0  0  0  0  0  0  0  0  0  0
   19.0225   18.1695   27.4184 H   0  0  0  0  0  0  0  0  0  0  0  0
   20.8949   19.0894   27.0054 N   0  3  0  0  0  0  0  0  0  0  0  0
   21.6814   19.0368   26.3500 H   0  0  0  0  0  0  0  0  0  0  0  0
   21.2768   18.9391   27.9456 H   0  0  0  0  0  0  0  0  0  0  0  0
   20.5383   20.0497   26.9759 H   0  0  0  0  0  0  0  0  0  0  0  0
  1  2  1  0  0  0  0
  1  3  1  0  0  0  0
  1  4  1  0  0  0  0
  1  5  1  0  0  0  0
  5  6  1  0  0  0  0
  5  7  1  0  0  0  0
  5  8  1  0  0  0  0
  8  9  1  0  0  0  0
  8 10  1  0  0  0  0
  8 11  1  0  0  0  0
 11 12  1  0  0  0  0
 11 13  1  0  0  0  0
 11 14  1  0  0  0  0
 14 15  1  0  0  0  0
 14 16  1  0  0  0  0
 14 17  1  0  0  0  0
 17 18  1  0  0  0  0
 17 19  1  0  0  0  0
 17 20  1  0  0  0  0
 20 21  1  0  0  0  0
 20 22  1  0  0  0  0
 20 23  1  0  0  0  0
 23 24  1  0  0  0  0
 23 25  1  0  0  0  0
 23 26  1  0  0  0  0
 26 27  1  0  0  0  0
 26 28  1  0  0  0  0
 26 29  1  0  0  0  0
M  END
> <VM2 Rank>
334

> <Conf_Id>
1594

> <Probability>
0.00

> <Sum Probability>
99.88

> <Delta G>
4.483

> <G>
62.631

> <E>
24.487

> <-TS>
38.144

> <U+W>
0.343

> <U>
52.960

> <W>
-52.618

> <W(PB)>
-55.012

> <W(SA)>
2.395

> <Valence>
6.290

> <Coulomb>
46.162

> <VdW>
0.509

> <VdW6>
-10.494

> <VdW12>
11.003

> <Bond>
0.303

> <Angle>
1.847

> <Pdih>
4.139

> <Idih>
0.000

> <Tether>
0.000

$$$$
VeraChem MOL file


 29 28  0  0  0  0  0  0  0  0999 V2000     
   21.3691   18.9570   20.8511 C   0  0  0  0  0  0  0  0  0  0  0  0
   22.0121   19.4364   21.6006 H   0  0  0  0  0  0  0  0  0  0  0  0
   21.8889   18.0628   20.4832 H   0  0  0  0  0  0  0  0  0  0  0  0
   21.2520   19.6497   20.0075 H   0  0  0  0  0  0  0  0  0  0  0  0
   19.9995   18.5813   21.4547 C   0  0  0  0  0  0  0  0  0  0  0  0
   20.1527   17.8576   22.2654 H   0  0  0  0  0  0  0  0  0  0  0  0
   19.3911   18.0759   20.6919 H   0  0  0  0  0  0  0  0  0  0  0  0
   19.2464   19.8276   21.9774 C   0  0  0  0  0  0  0  0  0  0  0  0
   19.8492   20.3524   22.7290 H   0  0  0  0  0  0  0  0  0  0  0  0
   19.1235   20.5370   21.1474 H   0  0  0  0  0  0  0  0  0  0  0  0
   17.8447   19.5055   22.5518 C   0  0  0  0  0  0  0  0  0  0  0  0
   17.2371   19.0485   21.7587 H   0  0  0  0  0  0  0  0  0  0  0  0
   17.3423   20.4499   22.8026 H   0  0  0  0  0  0  0  0  0  0  0  0
   17.8130   18.5779   23.7967 C   0  0  0  0  0  0  0  0  0  0  0  0
   16.7562   18.3982   24.0380 H   0  0  0  0  0  0  0  0  0  0  0  0
   18.2254   17.5889   23.5579 H   0  0  0  0  0  0  0  0  0  0  0  0
   18.4942   19.1624   25.0621 C   0  0  0  0  0  0  0  0  0  0  0  0
   17.9161   18.8382   25.9376 H   0  0  0  0  0  0  0  0  0  0  0  0
   18.4360   20.2595   25.0491 H   0  0  0  0  0  0  0  0  0  0  0  0
   19.9630   18.7040   25.2477 C   0  0  0  0  0  0  0  0  0  0  0  0
   20.0071   17.6092   25.3195 H   0  0  0  0  0  0  0  0  0  0  0  0
   20.5610   18.9808   24.3730 H   0  0  0  0  0  0  0  0  0  0  0  0
   20.6249   19.3252   26.4927 C   0  0  0  0  0  0  0  0  0  0  0  0
   20.5736   20.4156   26.4313 H   0  0  0  0  0  0  0  0  0  0  0  0
   21.6784   19.0346   26.5262 H   0  0  0  0  0  0  0  0  0  0  0  0
   19.9892   18.8971   27.8008 N   0  3  0  0  0  0  0  0  0  0  0  0
   20.4608   19.3177   28.6090 H   0  0  0  0  0  0  0  0  0  0  0  0
   20.0267   17.8803   27.9271 H   0  0  0  0  0  0  0  0  0  0  0  0
   19.0035   19.1729   27.8512 H   0  0  0  0  0  0  0  0  0  0  0  0
  1  2  1  0  0  0  0
  1  3  1  0  0  0  0
  1  4  1  0  0  0  0
  1  5  1  0  0  0  0
  5  6  1  0  0  0  0
  5  7  1  0  0  0  0
  5  8  1  0  0  0  0
  8  9  1  0  0  0  0
  8 10  1  0  0  0  0
  8 11  1  0  0  0  0
 11 12  1  0  0  0  0
 11 13  1  0  0  0  0
 11 14  1  0  0  0  0
 14 15  1  0  0  0  0
 14 16  1  0  0  0  0
 14 17  1  0  0  0  0
 17 18  1  0  0  0  0
 17 19  1  0  0  0  0
 17 20  1  0  0  0  0
 20 21  1  0  0  0  0
 20 22  1  0  0  0  0
 20 23  1  0  0  0  0
 23 24  1  0  0  0  0
 23 25  1  0  0  0  0
 23 26  1  0  0  0  0
 26 27  1  0  0  0  0
 26 28  1  0  0  0  0
 26 29  1  0  0  0  0
M  END
> <VM2 Rank>
335

> <Conf_Id>
1634

> <Probability>
0.00

> <Sum Probability>
99.88

> <Delta G>
4.485

> <G>
62.633

> <E>
24.491

> <-TS>
38.143

> <U+W>
0.346

> <U>
52.497

> <W>
-52.151

> <W(PB)>
-54.588

> <W(SA)>
2.437

> <Valence>
6.347

> <Coulomb>
45.529

> <VdW>
0.620

> <VdW6>
-10.347

> <VdW12>
10.967

> <Bond>
0.304

> <Angle>
1.794

> <Pdih>
4.250

> <Idih>
0.000

> <Tether>
0.000

$$$$
VeraChem MOL file


 29 28  0  0  0  0  0  0  0  0999 V2000     
   20.8510   19.8863   20.5617 C   0  0  0  0  0  0  0  0  0  0  0  0
   21.4808   19.9737   21.4557 H   0  0  0  0  0  0  0  0  0  0  0  0
   21.0610   18.9198   20.0855 H   0  0  0  0  0  0  0  0  0  0  0  0
   21.1562   20.6774   19.8647 H   0  0  0  0  0  0  0  0  0  0  0  0
   19.3509   20.0204   20.9084 C   0  0  0  0  0  0  0  0  0  0  0  0
   18.7729   20.0503   19.9743 H   0  0  0  0  0  0  0  0  0  0  0  0
   19.1724   20.9811   21.4113 H   0  0  0  0  0  0  0  0  0  0  0  0
   18.8164   18.8629   21.7860 C   0  0  0  0  0  0  0  0  0  0  0  0
   17.7293   18.9808   21.8940 H   0  0  0  0  0  0  0  0  0  0  0  0
   18.9738   17.9070   21.2675 H   0  0  0  0  0  0  0  0  0  0  0  0
   19.4604   18.8075   23.1919 C   0  0  0  0  0  0  0  0  0  0  0  0
   19.3551   19.7884   23.6672 H   0  0  0  0  0  0  0  0  0  0  0  0
   20.5360   18.6099   23.0977 H   0  0  0  0  0  0  0  0  0  0  0  0
   18.8180   17.7051   24.0693 C   0  0  0  0  0  0  0  0  0  0  0  0
   17.7420   17.8914   24.1894 H   0  0  0  0  0  0  0  0  0  0  0  0
   18.9019   16.7513   23.5302 H   0  0  0  0  0  0  0  0  0  0  0  0
   19.4849   17.5309   25.4590 C   0  0  0  0  0  0  0  0  0  0  0  0
   20.5722   17.6636   25.3816 H   0  0  0  0  0  0  0  0  0  0  0  0
   19.3409   16.4870   25.7704 H   0  0  0  0  0  0  0  0  0  0  0  0
   18.9007   18.4285   26.5824 C   0  0  0  0  0  0  0  0  0  0  0  0
   17.8258   18.2278   26.6828 H   0  0  0  0  0  0  0  0  0  0  0  0
   19.3522   18.1371   27.5400 H   0  0  0  0  0  0  0  0  0  0  0  0
   19.1028   19.9430   26.3860 C   0  0  0  0  0  0  0  0  0  0  0  0
   18.6625   20.4785   27.2314 H   0  0  0  0  0  0  0  0  0  0  0  0
   18.5910   20.2708   25.4785 H   0  0  0  0  0  0  0  0  0  0  0  0
   20.5589   20.3536   26.2903 N   0  3  0  0  0  0  0  0  0  0  0  0
   21.0793   20.1025   27.1373 H   0  0  0  0  0  0  0  0  0  0  0  0
   20.6621   21.3663   26.1634 H   0  0  0  0  0  0  0  0  0  0  0  0
   21.0261   19.8979   25.5004 H   0  0  0  0  0  0  0  0  0  0  0  0
  1  2  1  0  0  0  0
  1  3  1  0  0  0  0
  1  4  1  0  0  0  0
  1  5  1  0  0  0  0
  5  6  1  0  0  0  0
  5  7  1  0  0  0  0
  5  8  1  0  0  0  0
  8  9  1  0  0  0  0
  8 10  1  0  0  0  0
  8 11  1  0  0  0  0
 11 12  1  0  0  0  0
 11 13  1  0  0  0  0
 11 14  1  0  0  0  0
 14 15  1  0  0  0  0
 14 16  1  0  0  0  0
 14 17  1  0  0  0  0
 17 18  1  0  0  0  0
 17 19  1  0  0  0  0
 17 20  1  0  0  0  0
 20 21  1  0  0  0  0
 20 22  1  0  0  0  0
 20 23  1  0  0  0  0
 23 24  1  0  0  0  0
 23 25  1  0  0  0  0
 23 26  1  0  0  0  0
 26 27  1  0  0  0  0
 26 28  1  0  0  0  0
 26 29  1  0  0  0  0
M  END
> <VM2 Rank>
336

> <Conf_Id>
1050

> <Probability>
0.00

> <Sum Probability>
99.89

> <Delta G>
4.489

> <G>
62.637

> <E>
24.821

> <-TS>
37.816

> <U+W>
0.676

> <U>
53.088

> <W>
-52.412

> <W(PB)>
-54.872

> <W(SA)>
2.460

> <Valence>
5.783

> <Coulomb>
46.617

> <VdW>
0.688

> <VdW6>
-10.105

> <VdW12>
10.792

> <Bond>
0.290

> <Angle>
1.682

> <Pdih>
3.811

> <Idih>
0.000

> <Tether>
0.000

$$$$
VeraChem MOL file


 29 28  0  0  0  0  0  0  0  0999 V2000     
   21.0091   19.2641   20.1414 C   0  0  0  0  0  0  0  0  0  0  0  0
   21.0154   19.9786   19.3081 H   0  0  0  0  0  0  0  0  0  0  0  0
   21.8707   19.4879   20.7839 H   0  0  0  0  0  0  0  0  0  0  0  0
   21.1460   18.2581   19.7236 H   0  0  0  0  0  0  0  0  0  0  0  0
   19.6875   19.3615   20.9327 C   0  0  0  0  0  0  0  0  0  0  0  0
   18.8442   19.1641   20.2563 H   0  0  0  0  0  0  0  0  0  0  0  0
   19.5658   20.3894   21.2979 H   0  0  0  0  0  0  0  0  0  0  0  0
   19.6554   18.3610   22.1126 C   0  0  0  0  0  0  0  0  0  0  0  0
   19.8206   17.3490   21.7179 H   0  0  0  0  0  0  0  0  0  0  0  0
   20.4936   18.5642   22.7892 H   0  0  0  0  0  0  0  0  0  0  0  0
   18.3121   18.3676   22.8885 C   0  0  0  0  0  0  0  0  0  0  0  0
   18.2553   17.4777   23.5302 H   0  0  0  0  0  0  0  0  0  0  0  0
   17.4953   18.2564   22.1621 H   0  0  0  0  0  0  0  0  0  0  0  0
   18.0518   19.6378   23.7438 C   0  0  0  0  0  0  0  0  0  0  0  0
   18.5281   20.5187   23.2961 H   0  0  0  0  0  0  0  0  0  0  0  0
   16.9731   19.8454   23.7228 H   0  0  0  0  0  0  0  0  0  0  0  0
   18.4712   19.5127   25.2311 C   0  0  0  0  0  0  0  0  0  0  0  0
   17.9085   18.6923   25.6962 H   0  0  0  0  0  0  0  0  0  0  0  0
   18.1652   20.4299   25.7533 H   0  0  0  0  0  0  0  0  0  0  0  0
   19.9883   19.2960   25.4472 C   0  0  0  0  0  0  0  0  0  0  0  0
   20.2886   18.3126   25.0645 H   0  0  0  0  0  0  0  0  0  0  0  0
   20.5496   20.0481   24.8770 H   0  0  0  0  0  0  0  0  0  0  0  0
   20.3953   19.4021   26.9293 C   0  0  0  0  0  0  0  0  0  0  0  0
   20.1017   20.3790   27.3226 H   0  0  0  0  0  0  0  0  0  0  0  0
   21.4815   19.3118   27.0153 H   0  0  0  0  0  0  0  0  0  0  0  0
   19.7733   18.3352   27.8086 N   0  3  0  0  0  0  0  0  0  0  0  0
   18.7498   18.3863   27.7989 H   0  0  0  0  0  0  0  0  0  0  0  0
   20.0700   18.4270   28.7863 H   0  0  0  0  0  0  0  0  0  0  0  0
   20.0331   17.3916   27.5034 H   0  0  0  0  0  0  0  0  0  0  0  0
  1  2  1  0  0  0  0
  1  3  1  0  0  0  0
  1  4  1  0  0  0  0
  1  5  1  0  0  0  0
  5  6  1  0  0  0  0
  5  7  1  0  0  0  0
  5  8  1  0  0  0  0
  8  9  1  0  0  0  0
  8 10  1  0  0  0  0
  8 11  1  0  0  0  0
 11 12  1  0  0  0  0
 11 13  1  0  0  0  0
 11 14  1  0  0  0  0
 14 15  1  0  0  0  0
 14 16  1  0  0  0  0
 14 17  1  0  0  0  0
 17 18  1  0  0  0  0
 17 19  1  0  0  0  0
 17 20  1  0  0  0  0
 20 21  1  0  0  0  0
 20 22  1  0  0  0  0
 20 23  1  0  0  0  0
 23 24  1  0  0  0  0
 23 25  1  0  0  0  0
 23 26  1  0  0  0  0
 26 27  1  0  0  0  0
 26 28  1  0  0  0  0
 26 29  1  0  0  0  0
M  END
> <VM2 Rank>
337

> <Conf_Id>
1968

> <Probability>
0.00

> <Sum Probability>
99.89

> <Delta G>
4.503

> <G>
62.651

> <E>
24.940

> <-TS>
37.711

> <U+W>
0.795

> <U>
52.817

> <W>
-52.022

> <W(PB)>
-54.465

> <W(SA)>
2.444

> <Valence>
6.436

> <Coulomb>
45.404

> <VdW>
0.977

> <VdW6>
-9.703

> <VdW12>
10.681

> <Bond>
0.304

> <Angle>
1.504

> <Pdih>
4.628

> <Idih>
0.000

> <Tether>
0.000

$$$$
VeraChem MOL file


 29 28  0  0  0  0  0  0  0  0999 V2000     
   20.6445   17.6283   21.0210 C   0  0  0  0  0  0  0  0  0  0  0  0
   20.4747   17.0798   21.9557 H   0  0  0  0  0  0  0  0  0  0  0  0
   20.7392   16.8872   20.2168 H   0  0  0  0  0  0  0  0  0  0  0  0
   21.6016   18.1597   21.1022 H   0  0  0  0  0  0  0  0  0  0  0  0
   19.4884   18.6086   20.7189 C   0  0  0  0  0  0  0  0  0  0  0  0
   18.5383   18.0580   20.6769 H   0  0  0  0  0  0  0  0  0  0  0  0
   19.6401   19.0367   19.7182 H   0  0  0  0  0  0  0  0  0  0  0  0
   19.3784   19.7653   21.7415 C   0  0  0  0  0  0  0  0  0  0  0  0
   20.3236   20.3250   21.7649 H   0  0  0  0  0  0  0  0  0  0  0  0
   18.6111   20.4689   21.3903 H   0  0  0  0  0  0  0  0  0  0  0  0
   19.0168   19.2928   23.1699 C   0  0  0  0  0  0  0  0  0  0  0  0
   19.8081   18.6358   23.5426 H   0  0  0  0  0  0  0  0  0  0  0  0
   18.0952   18.6962   23.1322 H   0  0  0  0  0  0  0  0  0  0  0  0
   18.8187   20.4887   24.1332 C   0  0  0  0  0  0  0  0  0  0  0  0
   19.7329   21.0963   24.1796 H   0  0  0  0  0  0  0  0  0  0  0  0
   18.0425   21.1414   23.7100 H   0  0  0  0  0  0  0  0  0  0  0  0
   18.3769   20.0836   25.5639 C   0  0  0  0  0  0  0  0  0  0  0  0
   17.6849   19.2318   25.5244 H   0  0  0  0  0  0  0  0  0  0  0  0
   17.7915   20.9146   25.9812 H   0  0  0  0  0  0  0  0  0  0  0  0
   19.5400   19.8012   26.5522 C   0  0  0  0  0  0  0  0  0  0  0  0
   20.1787   20.6916   26.6219 H   0  0  0  0  0  0  0  0  0  0  0  0
   19.1232   19.6501   27.5568 H   0  0  0  0  0  0  0  0  0  0  0  0
   20.4223   18.5885   26.2000 C   0  0  0  0  0  0  0  0  0  0  0  0
   21.2030   18.4780   26.9574 H   0  0  0  0  0  0  0  0  0  0  0  0
   20.9106   18.7522   25.2369 H   0  0  0  0  0  0  0  0  0  0  0  0
   19.6582   17.2809   26.1344 N   0  3  0  0  0  0  0  0  0  0  0  0
   20.2711   16.4920   25.9015 H   0  0  0  0  0  0  0  0  0  0  0  0
   18.9192   17.3131   25.4253 H   0  0  0  0  0  0  0  0  0  0  0  0
   19.2105   17.0591   27.0297 H   0  0  0  0  0  0  0  0  0  0  0  0
  1  2  1  0  0  0  0
  1  3  1  0  0  0  0
  1  4  1  0  0  0  0
  1  5  1  0  0  0  0
  5  6  1  0  0  0  0
  5  7  1  0  0  0  0
  5  8  1  0  0  0  0
  8  9  1  0  0  0  0
  8 10  1  0  0  0  0
  8 11  1  0  0  0  0
 11 12  1  0  0  0  0
 11 13  1  0  0  0  0
 11 14  1  0  0  0  0
 14 15  1  0  0  0  0
 14 16  1  0  0  0  0
 14 17  1  0  0  0  0
 17 18  1  0  0  0  0
 17 19  1  0  0  0  0
 17 20  1  0  0  0  0
 20 21  1  0  0  0  0
 20 22  1  0  0  0  0
 20 23  1  0  0  0  0
 23 24  1  0  0  0  0
 23 25  1  0  0  0  0
 23 26  1  0  0  0  0
 26 27  1  0  0  0  0
 26 28  1  0  0  0  0
 26 29  1  0  0  0  0
M  END
> <VM2 Rank>
338

> <Conf_Id>
2571

> <Probability>
0.00

> <Sum Probability>
99.89

> <Delta G>
4.504

> <G>
62.652

> <E>
24.827

> <-TS>
37.826

> <U+W>
0.682

> <U>
53.213

> <W>
-52.531

> <W(PB)>
-54.961

> <W(SA)>
2.430

> <Valence>
5.781

> <Coulomb>
46.780

> <VdW>
0.652

> <VdW6>
-10.174

> <VdW12>
10.827

> <Bond>
0.293

> <Angle>
1.656

> <Pdih>
3.831

> <Idih>
0.000

> <Tether>
0.000

$$$$
VeraChem MOL file


 29 28  0  0  0  0  0  0  0  0999 V2000     
   20.5058   19.7079   20.1525 C   0  0  0  0  0  0  0  0  0  0  0  0
   21.0274   18.8632   19.6841 H   0  0  0  0  0  0  0  0  0  0  0  0
   20.5226   20.5447   19.4423 H   0  0  0  0  0  0  0  0  0  0  0  0
   21.0795   20.0095   21.0359 H   0  0  0  0  0  0  0  0  0  0  0  0
   19.0491   19.3278   20.5065 C   0  0  0  0  0  0  0  0  0  0  0  0
   18.5354   19.0514   19.5751 H   0  0  0  0  0  0  0  0  0  0  0  0
   18.5109   20.2012   20.9004 H   0  0  0  0  0  0  0  0  0  0  0  0
   18.9489   18.1401   21.4980 C   0  0  0  0  0  0  0  0  0  0  0  0
   18.0817   17.5289   21.2122 H   0  0  0  0  0  0  0  0  0  0  0  0
   19.8219   17.4816   21.3919 H   0  0  0  0  0  0  0  0  0  0  0  0
   18.7647   18.5439   22.9838 C   0  0  0  0  0  0  0  0  0  0  0  0
   18.6340   17.6229   23.5657 H   0  0  0  0  0  0  0  0  0  0  0  0
   17.8305   19.1114   23.0937 H   0  0  0  0  0  0  0  0  0  0  0  0
   19.9381   19.3671   23.5703 C   0  0  0  0  0  0  0  0  0  0  0  0
   20.8855   18.8351   23.4082 H   0  0  0  0  0  0  0  0  0  0  0  0
   20.0139   20.3181   23.0280 H   0  0  0  0  0  0  0  0  0  0  0  0
   19.7744   19.6931   25.0752 C   0  0  0  0  0  0  0  0  0  0  0  0
   18.8199   20.2128   25.2324 H   0  0  0  0  0  0  0  0  0  0  0  0
   20.5637   20.4010   25.3641 H   0  0  0  0  0  0  0  0  0  0  0  0
   19.8612   18.4476   25.9926 C   0  0  0  0  0  0  0  0  0  0  0  0
   19.0184   17.7708   25.8053 H   0  0  0  0  0  0  0  0  0  0  0  0
   20.7752   17.8858   25.7586 H   0  0  0  0  0  0  0  0  0  0  0  0
   19.8854   18.8169   27.4881 C   0  0  0  0  0  0  0  0  0  0  0  0
   20.7244   19.4889   27.6879 H   0  0  0  0  0  0  0  0  0  0  0  0
   20.0243   17.9107   28.0840 H   0  0  0  0  0  0  0  0  0  0  0  0
   18.6165   19.4936   27.9679 N   0  3  0  0  0  0  0  0  0  0  0  0
   18.4445   20.3725   27.4697 H   0  0  0  0  0  0  0  0  0  0  0  0
   18.6593   19.7179   28.9681 H   0  0  0  0  0  0  0  0  0  0  0  0
   17.7925   18.8995   27.8286 H   0  0  0  0  0  0  0  0  0  0  0  0
  1  2  1  0  0  0  0
  1  3  1  0  0  0  0
  1  4  1  0  0  0  0
  1  5  1  0  0  0  0
  5  6  1  0  0  0  0
  5  7  1  0  0  0  0
  5  8  1  0  0  0  0
  8  9  1  0  0  0  0
  8 10  1  0  0  0  0
  8 11  1  0  0  0  0
 11 12  1  0  0  0  0
 11 13  1  0  0  0  0
 11 14  1  0  0  0  0
 14 15  1  0  0  0  0
 14 16  1  0  0  0  0
 14 17  1  0  0  0  0
 17 18  1  0  0  0  0
 17 19  1  0  0  0  0
 17 20  1  0  0  0  0
 20 21  1  0  0  0  0
 20 22  1  0  0  0  0
 20 23  1  0  0  0  0
 23 24  1  0  0  0  0
 23 25  1  0  0  0  0
 23 26  1  0  0  0  0
 26 27  1  0  0  0  0
 26 28  1  0  0  0  0
 26 29  1  0  0  0  0
M  END
> <VM2 Rank>
339

> <Conf_Id>
2241

> <Probability>
0.00

> <Sum Probability>
99.89

> <Delta G>
4.505

> <G>
62.653

> <E>
24.959

> <-TS>
37.693

> <U+W>
0.815

> <U>
52.595

> <W>
-51.780

> <W(PB)>
-54.223

> <W(SA)>
2.442

> <Valence>
6.347

> <Coulomb>
45.124

> <VdW>
1.124

> <VdW6>
-9.586

> <VdW12>
10.710

> <Bond>
0.296

> <Angle>
1.512

> <Pdih>
4.539

> <Idih>
0.000

> <Tether>
0.000

$$$$
VeraChem MOL file


 29 28  0  0  0  0  0  0  0  0999 V2000     
   20.1247   19.0763   19.5339 C   0  0  0  0  0  0  0  0  0  0  0  0
   20.8869   19.8493   19.3705 H   0  0  0  0  0  0  0  0  0  0  0  0
   20.6206   18.0971   19.5139 H   0  0  0  0  0  0  0  0  0  0  0  0
   19.4203   19.1148   18.6928 H   0  0  0  0  0  0  0  0  0  0  0  0
   19.3880   19.2970   20.8721 C   0  0  0  0  0  0  0  0  0  0  0  0
   18.6086   18.5311   20.9789 H   0  0  0  0  0  0  0  0  0  0  0  0
   18.8787   20.2705   20.8511 H   0  0  0  0  0  0  0  0  0  0  0  0
   20.3610   19.2419   22.0736 C   0  0  0  0  0  0  0  0  0  0  0  0
   20.8267   18.2482   22.1279 H   0  0  0  0  0  0  0  0  0  0  0  0
   21.1784   19.9558   21.9020 H   0  0  0  0  0  0  0  0  0  0  0  0
   19.6953   19.5778   23.4309 C   0  0  0  0  0  0  0  0  0  0  0  0
   19.2368   20.5746   23.3752 H   0  0  0  0  0  0  0  0  0  0  0  0
   20.4870   19.6463   24.1843 H   0  0  0  0  0  0  0  0  0  0  0  0
   18.6317   18.5388   23.8707 C   0  0  0  0  0  0  0  0  0  0  0  0
   17.8201   18.5372   23.1317 H   0  0  0  0  0  0  0  0  0  0  0  0
   19.0584   17.5265   23.8565 H   0  0  0  0  0  0  0  0  0  0  0  0
   18.0029   18.8305   25.2584 C   0  0  0  0  0  0  0  0  0  0  0  0
   16.9746   18.4435   25.2489 H   0  0  0  0  0  0  0  0  0  0  0  0
   17.9053   19.9130   25.4153 H   0  0  0  0  0  0  0  0  0  0  0  0
   18.7321   18.1644   26.4555 C   0  0  0  0  0  0  0  0  0  0  0  0
   18.1393   18.3219   27.3663 H   0  0  0  0  0  0  0  0  0  0  0  0
   18.7624   17.0778   26.3000 H   0  0  0  0  0  0  0  0  0  0  0  0
   20.1663   18.6659   26.7092 C   0  0  0  0  0  0  0  0  0  0  0  0
   20.7881   18.4700   25.8327 H   0  0  0  0  0  0  0  0  0  0  0  0
   20.5953   18.1212   27.5547 H   0  0  0  0  0  0  0  0  0  0  0  0
   20.2421   20.1454   27.0308 N   0  3  0  0  0  0  0  0  0  0  0  0
   19.8679   20.7161   26.2665 H   0  0  0  0  0  0  0  0  0  0  0  0
   21.2073   20.4512   27.1958 H   0  0  0  0  0  0  0  0  0  0  0  0
   19.7058   20.3776   27.8732 H   0  0  0  0  0  0  0  0  0  0  0  0
  1  2  1  0  0  0  0
  1  3  1  0  0  0  0
  1  4  1  0  0  0  0
  1  5  1  0  0  0  0
  5  6  1  0  0  0  0
  5  7  1  0  0  0  0
  5  8  1  0  0  0  0
  8  9  1  0  0  0  0
  8 10  1  0  0  0  0
  8 11  1  0  0  0  0
 11 12  1  0  0  0  0
 11 13  1  0  0  0  0
 11 14  1  0  0  0  0
 14 15  1  0  0  0  0
 14 16  1  0  0  0  0
 14 17  1  0  0  0  0
 17 18  1  0  0  0  0
 17 19  1  0  0  0  0
 17 20  1  0  0  0  0
 20 21  1  0  0  0  0
 20 22  1  0  0  0  0
 20 23  1  0  0  0  0
 23 24  1  0  0  0  0
 23 25  1  0  0  0  0
 23 26  1  0  0  0  0
 26 27  1  0  0  0  0
 26 28  1  0  0  0  0
 26 29  1  0  0  0  0
M  END
> <VM2 Rank>
340

> <Conf_Id>
243

> <Probability>
0.00

> <Sum Probability>
99.90

> <Delta G>
4.516

> <G>
62.664

> <E>
24.849

> <-TS>
37.815

> <U+W>
0.705

> <U>
53.045

> <W>
-52.341

> <W(PB)>
-54.798

> <W(SA)>
2.457

> <Valence>
5.932

> <Coulomb>
46.352

> <VdW>
0.761

> <VdW6>
-9.985

> <VdW12>
10.746

> <Bond>
0.298

> <Angle>
1.641

> <Pdih>
3.993

> <Idih>
0.000

> <Tether>
0.000

$$$$
VeraChem MOL file


 29 28  0  0  0  0  0  0  0  0999 V2000     
   21.2291   18.7324   21.4254 C   0  0  0  0  0  0  0  0  0  0  0  0
   20.9669   17.7571   21.8533 H   0  0  0  0  0  0  0  0  0  0  0  0
   22.0678   18.5720   20.7356 H   0  0  0  0  0  0  0  0  0  0  0  0
   21.5788   19.3877   22.2336 H   0  0  0  0  0  0  0  0  0  0  0  0
   20.0299   19.3575   20.6802 C   0  0  0  0  0  0  0  0  0  0  0  0
   19.6558   18.6470   19.9300 H   0  0  0  0  0  0  0  0  0  0  0  0
   20.3830   20.2341   20.1192 H   0  0  0  0  0  0  0  0  0  0  0  0
   18.8665   19.8020   21.6028 C   0  0  0  0  0  0  0  0  0  0  0  0
   19.2131   20.5884   22.2842 H   0  0  0  0  0  0  0  0  0  0  0  0
   18.1073   20.2784   20.9673 H   0  0  0  0  0  0  0  0  0  0  0  0
   18.1808   18.6482   22.3848 C   0  0  0  0  0  0  0  0  0  0  0  0
   18.2483   17.7214   21.7988 H   0  0  0  0  0  0  0  0  0  0  0  0
   17.1068   18.8653   22.4664 H   0  0  0  0  0  0  0  0  0  0  0  0
   18.7361   18.3991   23.8116 C   0  0  0  0  0  0  0  0  0  0  0  0
   18.3159   17.4548   24.1842 H   0  0  0  0  0  0  0  0  0  0  0  0
   19.8216   18.2565   23.7752 H   0  0  0  0  0  0  0  0  0  0  0  0
   18.3821   19.5282   24.8131 C   0  0  0  0  0  0  0  0  0  0  0  0
   17.2967   19.6982   24.7971 H   0  0  0  0  0  0  0  0  0  0  0  0
   18.8487   20.4728   24.5055 H   0  0  0  0  0  0  0  0  0  0  0  0
   18.8111   19.2037   26.2631 C   0  0  0  0  0  0  0  0  0  0  0  0
   18.4527   20.0009   26.9278 H   0  0  0  0  0  0  0  0  0  0  0  0
   18.3249   18.2762   26.5938 H   0  0  0  0  0  0  0  0  0  0  0  0
   20.3381   19.0707   26.4141 C   0  0  0  0  0  0  0  0  0  0  0  0
   20.8220   19.9947   26.0865 H   0  0  0  0  0  0  0  0  0  0  0  0
   20.7020   18.2507   25.7898 H   0  0  0  0  0  0  0  0  0  0  0  0
   20.7704   18.7962   27.8398 N   0  3  0  0  0  0  0  0  0  0  0  0
   21.7897   18.7112   27.9193 H   0  0  0  0  0  0  0  0  0  0  0  0
   20.3686   17.9240   28.1993 H   0  0  0  0  0  0  0  0  0  0  0  0
   20.4826   19.5463   28.4770 H   0  0  0  0  0  0  0  0  0  0  0  0
  1  2  1  0  0  0  0
  1  3  1  0  0  0  0
  1  4  1  0  0  0  0
  1  5  1  0  0  0  0
  5  6  1  0  0  0  0
  5  7  1  0  0  0  0
  5  8  1  0  0  0  0
  8  9  1  0  0  0  0
  8 10  1  0  0  0  0
  8 11  1  0  0  0  0
 11 12  1  0  0  0  0
 11 13  1  0  0  0  0
 11 14  1  0  0  0  0
 14 15  1  0  0  0  0
 14 16  1  0  0  0  0
 14 17  1  0  0  0  0
 17 18  1  0  0  0  0
 17 19  1  0  0  0  0
 17 20  1  0  0  0  0
 20 21  1  0  0  0  0
 20 22  1  0  0  0  0
 20 23  1  0  0  0  0
 23 24  1  0  0  0  0
 23 25  1  0  0  0  0
 23 26  1  0  0  0  0
 26 27  1  0  0  0  0
 26 28  1  0  0  0  0
 26 29  1  0  0  0  0
M  END
> <VM2 Rank>
341

> <Conf_Id>
627

> <Probability>
0.00

> <Sum Probability>
99.90

> <Delta G>
4.521

> <G>
62.669

> <E>
25.029

> <-TS>
37.640

> <U+W>
0.884

> <U>
52.951

> <W>
-52.067

> <W(PB)>
-54.508

> <W(SA)>
2.441

> <Valence>
6.563

> <Coulomb>
45.468

> <VdW>
0.920

> <VdW6>
-9.773

> <VdW12>
10.693

> <Bond>
0.311

> <Angle>
1.606

> <Pdih>
4.646

> <Idih>
0.000

> <Tether>
0.000

$$$$
VeraChem MOL file


 29 28  0  0  0  0  0  0  0  0999 V2000     
   21.1434   18.2801   22.0408 C   0  0  0  0  0  0  0  0  0  0  0  0
   21.8208   19.1431   22.0060 H   0  0  0  0  0  0  0  0  0  0  0  0
   20.8446   18.1241   23.0822 H   0  0  0  0  0  0  0  0  0  0  0  0
   21.7139   17.3965   21.7268 H   0  0  0  0  0  0  0  0  0  0  0  0
   19.9265   18.4933   21.1108 C   0  0  0  0  0  0  0  0  0  0  0  0
   19.2682   17.6140   21.1371 H   0  0  0  0  0  0  0  0  0  0  0  0
   20.3004   18.5592   20.0795 H   0  0  0  0  0  0  0  0  0  0  0  0
   19.1187   19.7807   21.4198 C   0  0  0  0  0  0  0  0  0  0  0  0
   19.7827   20.5709   21.7937 H   0  0  0  0  0  0  0  0  0  0  0  0
   18.7234   20.1632   20.4686 H   0  0  0  0  0  0  0  0  0  0  0  0
   17.9065   19.5822   22.3698 C   0  0  0  0  0  0  0  0  0  0  0  0
   17.2189   18.8540   21.9181 H   0  0  0  0  0  0  0  0  0  0  0  0
   17.3460   20.5257   22.4227 H   0  0  0  0  0  0  0  0  0  0  0  0
   18.2380   19.1230   23.8111 C   0  0  0  0  0  0  0  0  0  0  0  0
   17.2928   18.9868   24.3544 H   0  0  0  0  0  0  0  0  0  0  0  0
   18.7095   18.1336   23.7819 H   0  0  0  0  0  0  0  0  0  0  0  0
   19.1187   20.1325   24.5901 C   0  0  0  0  0  0  0  0  0  0  0  0
   18.6374   21.1199   24.5693 H   0  0  0  0  0  0  0  0  0  0  0  0
   20.0911   20.2519   24.0953 H   0  0  0  0  0  0  0  0  0  0  0  0
   19.3484   19.7218   26.0631 C   0  0  0  0  0  0  0  0  0  0  0  0
   19.8973   20.5232   26.5752 H   0  0  0  0  0  0  0  0  0  0  0  0
   18.3817   19.6255   26.5751 H   0  0  0  0  0  0  0  0  0  0  0  0
   20.1385   18.4065   26.1950 C   0  0  0  0  0  0  0  0  0  0  0  0
   21.1020   18.5037   25.6875 H   0  0  0  0  0  0  0  0  0  0  0  0
   19.5819   17.5914   25.7254 H   0  0  0  0  0  0  0  0  0  0  0  0
   20.4054   18.0178   27.6345 N   0  3  0  0  0  0  0  0  0  0  0  0
   20.9512   18.7321   28.1278 H   0  0  0  0  0  0  0  0  0  0  0  0
   20.9322   17.1400   27.7011 H   0  0  0  0  0  0  0  0  0  0  0  0
   19.5357   17.8853   28.1615 H   0  0  0  0  0  0  0  0  0  0  0  0
  1  2  1  0  0  0  0
  1  3  1  0  0  0  0
  1  4  1  0  0  0  0
  1  5  1  0  0  0  0
  5  6  1  0  0  0  0
  5  7  1  0  0  0  0
  5  8  1  0  0  0  0
  8  9  1  0  0  0  0
  8 10  1  0  0  0  0
  8 11  1  0  0  0  0
 11 12  1  0  0  0  0
 11 13  1  0  0  0  0
 11 14  1  0  0  0  0
 14 15  1  0  0  0  0
 14 16  1  0  0  0  0
 14 17  1  0  0  0  0
 17 18  1  0  0  0  0
 17 19  1  0  0  0  0
 17 20  1  0  0  0  0
 20 21  1  0  0  0  0
 20 22  1  0  0  0  0
 20 23  1  0  0  0  0
 23 24  1  0  0  0  0
 23 25  1  0  0  0  0
 23 26  1  0  0  0  0
 26 27  1  0  0  0  0
 26 28  1  0  0  0  0
 26 29  1  0  0  0  0
M  END
> <VM2 Rank>
342

> <Conf_Id>
1169

> <Probability>
0.00

> <Sum Probability>
99.90

> <Delta G>
4.521

> <G>
62.669

> <E>
24.481

> <-TS>
38.188

> <U+W>
0.337

> <U>
52.714

> <W>
-52.378

> <W(PB)>
-54.792

> <W(SA)>
2.414

> <Valence>
6.446

> <Coulomb>
45.880

> <VdW>
0.388

> <VdW6>
-10.677

> <VdW12>
11.065

> <Bond>
0.301

> <Angle>
1.937

> <Pdih>
4.208

> <Idih>
0.000

> <Tether>
0.000

$$$$
VeraChem MOL file


 29 28  0  0  0  0  0  0  0  0999 V2000     
   21.2883   18.6862   22.0501 C   0  0  0  0  0  0  0  0  0  0  0  0
   22.2936   19.0210   21.7634 H   0  0  0  0  0  0  0  0  0  0  0  0
   21.1409   18.9546   23.1010 H   0  0  0  0  0  0  0  0  0  0  0  0
   21.2671   17.5916   21.9714 H   0  0  0  0  0  0  0  0  0  0  0  0
   20.2244   19.3282   21.1297 C   0  0  0  0  0  0  0  0  0  0  0  0
   20.4869   19.0817   20.0913 H   0  0  0  0  0  0  0  0  0  0  0  0
   20.2707   20.4238   21.2003 H   0  0  0  0  0  0  0  0  0  0  0  0
   18.7800   18.8315   21.3986 C   0  0  0  0  0  0  0  0  0  0  0  0
   18.2455   18.8236   20.4386 H   0  0  0  0  0  0  0  0  0  0  0  0
   18.7889   17.7853   21.7314 H   0  0  0  0  0  0  0  0  0  0  0  0
   17.9535   19.7142   22.3728 C   0  0  0  0  0  0  0  0  0  0  0  0
   16.9219   19.3370   22.3961 H   0  0  0  0  0  0  0  0  0  0  0  0
   17.8882   20.7303   21.9601 H   0  0  0  0  0  0  0  0  0  0  0  0
   18.4803   19.8025   23.8263 C   0  0  0  0  0  0  0  0  0  0  0  0
   19.4718   20.2705   23.8297 H   0  0  0  0  0  0  0  0  0  0  0  0
   17.8270   20.4843   24.3878 H   0  0  0  0  0  0  0  0  0  0  0  0
   18.5125   18.4336   24.5521 C   0  0  0  0  0  0  0  0  0  0  0  0
   19.1969   17.7456   24.0393 H   0  0  0  0  0  0  0  0  0  0  0  0
   17.5154   17.9753   24.4991 H   0  0  0  0  0  0  0  0  0  0  0  0
   18.9295   18.5475   26.0368 C   0  0  0  0  0  0  0  0  0  0  0  0
   18.2347   19.2133   26.5659 H   0  0  0  0  0  0  0  0  0  0  0  0
   18.8403   17.5601   26.5090 H   0  0  0  0  0  0  0  0  0  0  0  0
   20.3716   19.0597   26.2094 C   0  0  0  0  0  0  0  0  0  0  0  0
   20.4630   20.0607   25.7802 H   0  0  0  0  0  0  0  0  0  0  0  0
   21.0632   18.3949   25.6849 H   0  0  0  0  0  0  0  0  0  0  0  0
   20.8038   19.1346   27.6593 N   0  3  0  0  0  0  0  0  0  0  0  0
   20.2069   19.7666   28.2032 H   0  0  0  0  0  0  0  0  0  0  0  0
   21.7662   19.4776   27.7530 H   0  0  0  0  0  0  0  0  0  0  0  0
   20.7676   18.2174   28.1163 H   0  0  0  0  0  0  0  0  0  0  0  0
  1  2  1  0  0  0  0
  1  3  1  0  0  0  0
  1  4  1  0  0  0  0
  1  5  1  0  0  0  0
  5  6  1  0  0  0  0
  5  7  1  0  0  0  0
  5  8  1  0  0  0  0
  8  9  1  0  0  0  0
  8 10  1  0  0  0  0
  8 11  1  0  0  0  0
 11 12  1  0  0  0  0
 11 13  1  0  0  0  0
 11 14  1  0  0  0  0
 14 15  1  0  0  0  0
 14 16  1  0  0  0  0
 14 17  1  0  0  0  0
 17 18  1  0  0  0  0
 17 19  1  0  0  0  0
 17 20  1  0  0  0  0
 20 21  1  0  0  0  0
 20 22  1  0  0  0  0
 20 23  1  0  0  0  0
 23 24  1  0  0  0  0
 23 25  1  0  0  0  0
 23 26  1  0  0  0  0
 26 27  1  0  0  0  0
 26 28  1  0  0  0  0
 26 29  1  0  0  0  0
M  END
> <VM2 Rank>
343

> <Conf_Id>
1811

> <Probability>
0.00

> <Sum Probability>
99.90

> <Delta G>
4.524

> <G>
62.672

> <E>
24.483

> <-TS>
38.188

> <U+W>
0.339

> <U>
52.715

> <W>
-52.376

> <W(PB)>
-54.771

> <W(SA)>
2.395

> <Valence>
6.446

> <Coulomb>
45.880

> <VdW>
0.389

> <VdW6>
-10.678

> <VdW12>
11.066

> <Bond>
0.301

> <Angle>
1.936

> <Pdih>
4.208

> <Idih>
0.000

> <Tether>
0.000

$$$$
VeraChem MOL file


 29 28  0  0  0  0  0  0  0  0999 V2000     
   20.0822   18.5049   20.0162 C   0  0  0  0  0  0  0  0  0  0  0  0
   18.9931   18.5298   19.8858 H   0  0  0  0  0  0  0  0  0  0  0  0
   20.5368   18.6648   19.0300 H   0  0  0  0  0  0  0  0  0  0  0  0
   20.3650   17.5008   20.3579 H   0  0  0  0  0  0  0  0  0  0  0  0
   20.5582   19.5855   21.0132 C   0  0  0  0  0  0  0  0  0  0  0  0
   20.2428   20.5776   20.6611 H   0  0  0  0  0  0  0  0  0  0  0  0
   21.6570   19.5984   21.0250 H   0  0  0  0  0  0  0  0  0  0  0  0
   20.0477   19.3553   22.4559 C   0  0  0  0  0  0  0  0  0  0  0  0
   20.3960   18.3742   22.8035 H   0  0  0  0  0  0  0  0  0  0  0  0
   20.5051   20.1073   23.1133 H   0  0  0  0  0  0  0  0  0  0  0  0
   18.5071   19.4392   22.5813 C   0  0  0  0  0  0  0  0  0  0  0  0
   18.0455   18.5915   22.0578 H   0  0  0  0  0  0  0  0  0  0  0  0
   18.1568   20.3449   22.0675 H   0  0  0  0  0  0  0  0  0  0  0  0
   17.9863   19.4779   24.0411 C   0  0  0  0  0  0  0  0  0  0  0  0
   18.3582   20.3782   24.5466 H   0  0  0  0  0  0  0  0  0  0  0  0
   16.8950   19.5980   23.9957 H   0  0  0  0  0  0  0  0  0  0  0  0
   18.2925   18.2039   24.8753 C   0  0  0  0  0  0  0  0  0  0  0  0
   18.3268   17.3282   24.2127 H   0  0  0  0  0  0  0  0  0  0  0  0
   17.4522   18.0231   25.5600 H   0  0  0  0  0  0  0  0  0  0  0  0
   19.5908   18.2718   25.7189 C   0  0  0  0  0  0  0  0  0  0  0  0
   19.7628   17.2892   26.1779 H   0  0  0  0  0  0  0  0  0  0  0  0
   20.4586   18.4706   25.0807 H   0  0  0  0  0  0  0  0  0  0  0  0
   19.5187   19.3330   26.8331 C   0  0  0  0  0  0  0  0  0  0  0  0
   18.6613   19.1290   27.4801 H   0  0  0  0  0  0  0  0  0  0  0  0
   19.3904   20.3256   26.3943 H   0  0  0  0  0  0  0  0  0  0  0  0
   20.7606   19.3665   27.7000 N   0  3  0  0  0  0  0  0  0  0  0  0
   20.9242   18.4685   28.1672 H   0  0  0  0  0  0  0  0  0  0  0  0
   20.6921   20.0779   28.4360 H   0  0  0  0  0  0  0  0  0  0  0  0
   21.6017   19.5810   27.1542 H   0  0  0  0  0  0  0  0  0  0  0  0
  1  2  1  0  0  0  0
  1  3  1  0  0  0  0
  1  4  1  0  0  0  0
  1  5  1  0  0  0  0
  5  6  1  0  0  0  0
  5  7  1  0  0  0  0
  5  8  1  0  0  0  0
  8  9  1  0  0  0  0
  8 10  1  0  0  0  0
  8 11  1  0  0  0  0
 11 12  1  0  0  0  0
 11 13  1  0  0  0  0
 11 14  1  0  0  0  0
 14 15  1  0  0  0  0
 14 16  1  0  0  0  0
 14 17  1  0  0  0  0
 17 18  1  0  0  0  0
 17 19  1  0  0  0  0
 17 20  1  0  0  0  0
 20 21  1  0  0  0  0
 20 22  1  0  0  0  0
 20 23  1  0  0  0  0
 23 24  1  0  0  0  0
 23 25  1  0  0  0  0
 23 26  1  0  0  0  0
 26 27  1  0  0  0  0
 26 28  1  0  0  0  0
 26 29  1  0  0  0  0
M  END
> <VM2 Rank>
344

> <Conf_Id>
308

> <Probability>
0.00

> <Sum Probability>
99.91

> <Delta G>
4.525

> <G>
62.673

> <E>
24.946

> <-TS>
37.727

> <U+W>
0.801

> <U>
53.070

> <W>
-52.269

> <W(PB)>
-54.714

> <W(SA)>
2.445

> <Valence>
6.477

> <Coulomb>
45.680

> <VdW>
0.913

> <VdW6>
-9.819

> <VdW12>
10.732

> <Bond>
0.300

> <Angle>
1.628

> <Pdih>
4.549

> <Idih>
0.000

> <Tether>
0.000

$$$$
VeraChem MOL file


 29 28  0  0  0  0  0  0  0  0999 V2000     
   19.9200   18.0611   20.1157 C   0  0  0  0  0  0  0  0  0  0  0  0
   20.1620   17.4302   20.9782 H   0  0  0  0  0  0  0  0  0  0  0  0
   19.4150   17.4305   19.3727 H   0  0  0  0  0  0  0  0  0  0  0  0
   20.8644   18.4048   19.6740 H   0  0  0  0  0  0  0  0  0  0  0  0
   19.0253   19.2609   20.5050 C   0  0  0  0  0  0  0  0  0  0  0  0
   18.0511   18.9084   20.8714 H   0  0  0  0  0  0  0  0  0  0  0  0
   18.8145   19.8362   19.5926 H   0  0  0  0  0  0  0  0  0  0  0  0
   19.6832   20.2049   21.5442 C   0  0  0  0  0  0  0  0  0  0  0  0
   20.7774   20.1682   21.4520 H   0  0  0  0  0  0  0  0  0  0  0  0
   19.4005   21.2370   21.2951 H   0  0  0  0  0  0  0  0  0  0  0  0
   19.2646   19.9494   23.0152 C   0  0  0  0  0  0  0  0  0  0  0  0
   18.1803   20.0950   23.1158 H   0  0  0  0  0  0  0  0  0  0  0  0
   19.7362   20.7222   23.6349 H   0  0  0  0  0  0  0  0  0  0  0  0
   19.6467   18.5478   23.5520 C   0  0  0  0  0  0  0  0  0  0  0  0
   19.1128   17.7848   22.9715 H   0  0  0  0  0  0  0  0  0  0  0  0
   20.7195   18.3683   23.3977 H   0  0  0  0  0  0  0  0  0  0  0  0
   19.2929   18.3389   25.0450 C   0  0  0  0  0  0  0  0  0  0  0  0
   19.4540   17.2809   25.2944 H   0  0  0  0  0  0  0  0  0  0  0  0
   18.2224   18.5327   25.1950 H   0  0  0  0  0  0  0  0  0  0  0  0
   20.1335   19.2125   26.0097 C   0  0  0  0  0  0  0  0  0  0  0  0
   21.2002   19.0797   25.7853 H   0  0  0  0  0  0  0  0  0  0  0  0
   19.9100   20.2762   25.8611 H   0  0  0  0  0  0  0  0  0  0  0  0
   19.8978   18.8521   27.4889 C   0  0  0  0  0  0  0  0  0  0  0  0
   20.5693   19.4425   28.1183 H   0  0  0  0  0  0  0  0  0  0  0  0
   20.1211   17.7940   27.6502 H   0  0  0  0  0  0  0  0  0  0  0  0
   18.4800   19.1104   27.9592 N   0  3  0  0  0  0  0  0  0  0  0  0
   18.3574   18.8702   28.9491 H   0  0  0  0  0  0  0  0  0  0  0  0
   17.7987   18.5581   27.4291 H   0  0  0  0  0  0  0  0  0  0  0  0
   18.2184   20.0963   27.8551 H   0  0  0  0  0  0  0  0  0  0  0  0
  1  2  1  0  0  0  0
  1  3  1  0  0  0  0
  1  4  1  0  0  0  0
  1  5  1  0  0  0  0
  5  6  1  0  0  0  0
  5  7  1  0  0  0  0
  5  8  1  0  0  0  0
  8  9  1  0  0  0  0
  8 10  1  0  0  0  0
  8 11  1  0  0  0  0
 11 12  1  0  0  0  0
 11 13  1  0  0  0  0
 11 14  1  0  0  0  0
 14 15  1  0  0  0  0
 14 16  1  0  0  0  0
 14 17  1  0  0  0  0
 17 18  1  0  0  0  0
 17 19  1  0  0  0  0
 17 20  1  0  0  0  0
 20 21  1  0  0  0  0
 20 22  1  0  0  0  0
 20 23  1  0  0  0  0
 23 24  1  0  0  0  0
 23 25  1  0  0  0  0
 23 26  1  0  0  0  0
 26 27  1  0  0  0  0
 26 28  1  0  0  0  0
 26 29  1  0  0  0  0
M  END
> <VM2 Rank>
345

> <Conf_Id>
248

> <Probability>
0.00

> <Sum Probability>
99.91

> <Delta G>
4.532

> <G>
62.680

> <E>
24.987

> <-TS>
37.693

> <U+W>
0.842

> <U>
52.595

> <W>
-51.753

> <W(PB)>
-54.234

> <W(SA)>
2.481

> <Valence>
6.347

> <Coulomb>
45.125

> <VdW>
1.124

> <VdW6>
-9.586

> <VdW12>
10.710

> <Bond>
0.296

> <Angle>
1.512

> <Pdih>
4.539

> <Idih>
0.000

> <Tether>
0.000

$$$$
VeraChem MOL file


 29 28  0  0  0  0  0  0  0  0999 V2000     
   20.9024   19.3806   20.3003 C   0  0  0  0  0  0  0  0  0  0  0  0
   21.4132   19.5236   21.2590 H   0  0  0  0  0  0  0  0  0  0  0  0
   21.2251   18.4162   19.8870 H   0  0  0  0  0  0  0  0  0  0  0  0
   21.2483   20.1677   19.6178 H   0  0  0  0  0  0  0  0  0  0  0  0
   19.3638   19.4297   20.4476 C   0  0  0  0  0  0  0  0  0  0  0  0
   18.9236   19.2932   19.4498 H   0  0  0  0  0  0  0  0  0  0  0  0
   19.0434   20.4251   20.7853 H   0  0  0  0  0  0  0  0  0  0  0  0
   18.8027   18.3337   21.3899 C   0  0  0  0  0  0  0  0  0  0  0  0
   17.8461   17.9851   20.9767 H   0  0  0  0  0  0  0  0  0  0  0  0
   19.4630   17.4555   21.3873 H   0  0  0  0  0  0  0  0  0  0  0  0
   18.5398   18.7970   22.8463 C   0  0  0  0  0  0  0  0  0  0  0  0
   18.0790   17.9590   23.3838 H   0  0  0  0  0  0  0  0  0  0  0  0
   17.7955   19.6051   22.8424 H   0  0  0  0  0  0  0  0  0  0  0  0
   19.8062   19.2688   23.6029 C   0  0  0  0  0  0  0  0  0  0  0  0
   20.5807   18.4911   23.5577 H   0  0  0  0  0  0  0  0  0  0  0  0
   20.2159   20.1512   23.0953 H   0  0  0  0  0  0  0  0  0  0  0  0
   19.5412   19.6550   25.0791 C   0  0  0  0  0  0  0  0  0  0  0  0
   18.7391   20.4047   25.1257 H   0  0  0  0  0  0  0  0  0  0  0  0
   20.4434   20.1443   25.4692 H   0  0  0  0  0  0  0  0  0  0  0  0
   19.1841   18.4481   25.9830 C   0  0  0  0  0  0  0  0  0  0  0  0
   18.2598   17.9759   25.6289 H   0  0  0  0  0  0  0  0  0  0  0  0
   19.9712   17.6850   25.9205 H   0  0  0  0  0  0  0  0  0  0  0  0
   18.9754   18.8510   27.4556 C   0  0  0  0  0  0  0  0  0  0  0  0
   18.6326   17.9819   28.0237 H   0  0  0  0  0  0  0  0  0  0  0  0
   18.2064   19.6255   27.5201 H   0  0  0  0  0  0  0  0  0  0  0  0
   20.2284   19.3740   28.1303 N   0  3  0  0  0  0  0  0  0  0  0  0
   20.9832   18.6801   28.1213 H   0  0  0  0  0  0  0  0  0  0  0  0
   20.0581   19.6193   29.1118 H   0  0  0  0  0  0  0  0  0  0  0  0
   20.5851   20.2161   27.6679 H   0  0  0  0  0  0  0  0  0  0  0  0
  1  2  1  0  0  0  0
  1  3  1  0  0  0  0
  1  4  1  0  0  0  0
  1  5  1  0  0  0  0
  5  6  1  0  0  0  0
  5  7  1  0  0  0  0
  5  8  1  0  0  0  0
  8  9  1  0  0  0  0
  8 10  1  0  0  0  0
  8 11  1  0  0  0  0
 11 12  1  0  0  0  0
 11 13  1  0  0  0  0
 11 14  1  0  0  0  0
 14 15  1  0  0  0  0
 14 16  1  0  0  0  0
 14 17  1  0  0  0  0
 17 18  1  0  0  0  0
 17 19  1  0  0  0  0
 17 20  1  0  0  0  0
 20 21  1  0  0  0  0
 20 22  1  0  0  0  0
 20 23  1  0  0  0  0
 23 24  1  0  0  0  0
 23 25  1  0  0  0  0
 23 26  1  0  0  0  0
 26 27  1  0  0  0  0
 26 28  1  0  0  0  0
 26 29  1  0  0  0  0
M  END
> <VM2 Rank>
346

> <Conf_Id>
958

> <Probability>
0.00

> <Sum Probability>
99.91

> <Delta G>
4.534

> <G>
62.682

> <E>
25.035

> <-TS>
37.648

> <U+W>
0.890

> <U>
52.563

> <W>
-51.673

> <W(PB)>
-54.120

> <W(SA)>
2.448

> <Valence>
6.390

> <Coulomb>
44.996

> <VdW>
1.177

> <VdW6>
-9.539

> <VdW12>
10.716

> <Bond>
0.302

> <Angle>
1.557

> <Pdih>
4.532

> <Idih>
0.000

> <Tether>
0.000

$$$$
VeraChem MOL file


 29 28  0  0  0  0  0  0  0  0999 V2000     
   19.9055   19.8745   20.3034 C   0  0  0  0  0  0  0  0  0  0  0  0
   19.7507   20.2141   19.2712 H   0  0  0  0  0  0  0  0  0  0  0  0
   19.4666   20.6301   20.9667 H   0  0  0  0  0  0  0  0  0  0  0  0
   20.9872   19.8346   20.4854 H   0  0  0  0  0  0  0  0  0  0  0  0
   19.2532   18.4917   20.5200 C   0  0  0  0  0  0  0  0  0  0  0  0
   19.6073   17.8083   19.7356 H   0  0  0  0  0  0  0  0  0  0  0  0
   18.1662   18.5762   20.3821 H   0  0  0  0  0  0  0  0  0  0  0  0
   19.5530   17.8539   21.9006 C   0  0  0  0  0  0  0  0  0  0  0  0
   19.0835   16.8605   21.9145 H   0  0  0  0  0  0  0  0  0  0  0  0
   20.6314   17.6732   22.0075 H   0  0  0  0  0  0  0  0  0  0  0  0
   19.0186   18.6581   23.1142 C   0  0  0  0  0  0  0  0  0  0  0  0
   18.6755   17.9420   23.8724 H   0  0  0  0  0  0  0  0  0  0  0  0
   18.1342   19.2398   22.8202 H   0  0  0  0  0  0  0  0  0  0  0  0
   20.0854   19.5823   23.7552 C   0  0  0  0  0  0  0  0  0  0  0  0
   20.9084   18.9725   24.1514 H   0  0  0  0  0  0  0  0  0  0  0  0
   20.5349   20.2221   22.9867 H   0  0  0  0  0  0  0  0  0  0  0  0
   19.5197   20.4954   24.8733 C   0  0  0  0  0  0  0  0  0  0  0  0
   18.7718   21.1733   24.4394 H   0  0  0  0  0  0  0  0  0  0  0  0
   20.3291   21.1380   25.2465 H   0  0  0  0  0  0  0  0  0  0  0  0
   18.8837   19.7451   26.0698 C   0  0  0  0  0  0  0  0  0  0  0  0
   18.5401   20.4825   26.8074 H   0  0  0  0  0  0  0  0  0  0  0  0
   17.9896   19.2008   25.7402 H   0  0  0  0  0  0  0  0  0  0  0  0
   19.8634   18.7714   26.7504 C   0  0  0  0  0  0  0  0  0  0  0  0
   20.7485   19.3167   27.0890 H   0  0  0  0  0  0  0  0  0  0  0  0
   20.1810   18.0080   26.0354 H   0  0  0  0  0  0  0  0  0  0  0  0
   19.2615   18.0656   27.9480 N   0  3  0  0  0  0  0  0  0  0  0  0
   18.9659   18.7282   28.6725 H   0  0  0  0  0  0  0  0  0  0  0  0
   19.9297   17.4220   28.3863 H   0  0  0  0  0  0  0  0  0  0  0  0
   18.4378   17.5119   27.6907 H   0  0  0  0  0  0  0  0  0  0  0  0
  1  2  1  0  0  0  0
  1  3  1  0  0  0  0
  1  4  1  0  0  0  0
  1  5  1  0  0  0  0
  5  6  1  0  0  0  0
  5  7  1  0  0  0  0
  5  8  1  0  0  0  0
  8  9  1  0  0  0  0
  8 10  1  0  0  0  0
  8 11  1  0  0  0  0
 11 12  1  0  0  0  0
 11 13  1  0  0  0  0
 11 14  1  0  0  0  0
 14 15  1  0  0  0  0
 14 16  1  0  0  0  0
 14 17  1  0  0  0  0
 17 18  1  0  0  0  0
 17 19  1  0  0  0  0
 17 20  1  0  0  0  0
 20 21  1  0  0  0  0
 20 22  1  0  0  0  0
 20 23  1  0  0  0  0
 23 24  1  0  0  0  0
 23 25  1  0  0  0  0
 23 26  1  0  0  0  0
 26 27  1  0  0  0  0
 26 28  1  0  0  0  0
 26 29  1  0  0  0  0
M  END
> <VM2 Rank>
347

> <Conf_Id>
606

> <Probability>
0.00

> <Sum Probability>
99.92

> <Delta G>
4.535

> <G>
62.683

> <E>
24.759

> <-TS>
37.924

> <U+W>
0.614

> <U>
52.669

> <W>
-52.054

> <W(PB)>
-54.506

> <W(SA)>
2.452

> <Valence>
6.354

> <Coulomb>
45.455

> <VdW>
0.860

> <VdW6>
-10.069

> <VdW12>
10.929

> <Bond>
0.298

> <Angle>
1.597

> <Pdih>
4.458

> <Idih>
0.000

> <Tether>
0.000

$$$$
VeraChem MOL file


 29 28  0  0  0  0  0  0  0  0999 V2000     
   20.4399   17.7753   20.9515 C   0  0  0  0  0  0  0  0  0  0  0  0
   20.6555   18.2773   19.9995 H   0  0  0  0  0  0  0  0  0  0  0  0
   21.2519   18.0047   21.6526 H   0  0  0  0  0  0  0  0  0  0  0  0
   20.4538   16.6926   20.7715 H   0  0  0  0  0  0  0  0  0  0  0  0
   19.0678   18.2135   21.5112 C   0  0  0  0  0  0  0  0  0  0  0  0
   18.8793   17.7086   22.4680 H   0  0  0  0  0  0  0  0  0  0  0  0
   18.2801   17.8671   20.8279 H   0  0  0  0  0  0  0  0  0  0  0  0
   18.9350   19.7485   21.6800 C   0  0  0  0  0  0  0  0  0  0  0  0
   19.0225   20.2218   20.6924 H   0  0  0  0  0  0  0  0  0  0  0  0
   17.9204   19.9818   22.0292 H   0  0  0  0  0  0  0  0  0  0  0  0
   19.9714   20.4009   22.6343 C   0  0  0  0  0  0  0  0  0  0  0  0
   19.7673   21.4789   22.6897 H   0  0  0  0  0  0  0  0  0  0  0  0
   20.9742   20.3141   22.1955 H   0  0  0  0  0  0  0  0  0  0  0  0
   19.9994   19.8206   24.0714 C   0  0  0  0  0  0  0  0  0  0  0  0
   20.3052   18.7691   24.0275 H   0  0  0  0  0  0  0  0  0  0  0  0
   20.7743   20.3495   24.6432 H   0  0  0  0  0  0  0  0  0  0  0  0
   18.6441   19.9514   24.8094 C   0  0  0  0  0  0  0  0  0  0  0  0
   17.8970   19.3011   24.3350 H   0  0  0  0  0  0  0  0  0  0  0  0
   18.2752   20.9797   24.6933 H   0  0  0  0  0  0  0  0  0  0  0  0
   18.7076   19.6284   26.3239 C   0  0  0  0  0  0  0  0  0  0  0  0
   19.4133   20.3006   26.8298 H   0  0  0  0  0  0  0  0  0  0  0  0
   17.7217   19.8460   26.7558 H   0  0  0  0  0  0  0  0  0  0  0  0
   19.0488   18.1597   26.6499 C   0  0  0  0  0  0  0  0  0  0  0  0
   18.5273   17.4947   25.9562 H   0  0  0  0  0  0  0  0  0  0  0  0
   18.7053   17.9308   27.6623 H   0  0  0  0  0  0  0  0  0  0  0  0
   20.5300   17.8398   26.6035 N   0  3  0  0  0  0  0  0  0  0  0  0
   20.9285   18.0225   25.6783 H   0  0  0  0  0  0  0  0  0  0  0  0
   20.7133   16.8548   26.8245 H   0  0  0  0  0  0  0  0  0  0  0  0
   21.0598   18.4012   27.2784 H   0  0  0  0  0  0  0  0  0  0  0  0
  1  2  1  0  0  0  0
  1  3  1  0  0  0  0
  1  4  1  0  0  0  0
  1  5  1  0  0  0  0
  5  6  1  0  0  0  0
  5  7  1  0  0  0  0
  5  8  1  0  0  0  0
  8  9  1  0  0  0  0
  8 10  1  0  0  0  0
  8 11  1  0  0  0  0
 11 12  1  0  0  0  0
 11 13  1  0  0  0  0
 11 14  1  0  0  0  0
 14 15  1  0  0  0  0
 14 16  1  0  0  0  0
 14 17  1  0  0  0  0
 17 18  1  0  0  0  0
 17 19  1  0  0  0  0
 17 20  1  0  0  0  0
 20 21  1  0  0  0  0
 20 22  1  0  0  0  0
 20 23  1  0  0  0  0
 23 24  1  0  0  0  0
 23 25  1  0  0  0  0
 23 26  1  0  0  0  0
 26 27  1  0  0  0  0
 26 28  1  0  0  0  0
 26 29  1  0  0  0  0
M  END
> <VM2 Rank>
348

> <Conf_Id>
1055

> <Probability>
0.00

> <Sum Probability>
99.92

> <Delta G>
4.548

> <G>
62.696

> <E>
24.584

> <-TS>
38.112

> <U+W>
0.439

> <U>
53.073

> <W>
-52.634

> <W(PB)>
-55.037

> <W(SA)>
2.404

> <Valence>
5.506

> <Coulomb>
46.959

> <VdW>
0.608

> <VdW6>
-11.164

> <VdW12>
11.771

> <Bond>
0.325

> <Angle>
1.842

> <Pdih>
3.339

> <Idih>
0.000

> <Tether>
0.000

$$$$
VeraChem MOL file


 29 28  0  0  0  0  0  0  0  0999 V2000     
   19.4617   20.5336   20.5422 C   0  0  0  0  0  0  0  0  0  0  0  0
   18.3929   20.3977   20.7470 H   0  0  0  0  0  0  0  0  0  0  0  0
   19.6473   21.6123   20.4590 H   0  0  0  0  0  0  0  0  0  0  0  0
   19.6836   20.0800   19.5676 H   0  0  0  0  0  0  0  0  0  0  0  0
   20.3416   19.9182   21.6544 C   0  0  0  0  0  0  0  0  0  0  0  0
   20.1042   20.3939   22.6134 H   0  0  0  0  0  0  0  0  0  0  0  0
   21.3915   20.1646   21.4435 H   0  0  0  0  0  0  0  0  0  0  0  0
   20.2079   18.3767   21.7554 C   0  0  0  0  0  0  0  0  0  0  0  0
   20.3656   17.9527   20.7541 H   0  0  0  0  0  0  0  0  0  0  0  0
   21.0227   17.9765   22.3742 H   0  0  0  0  0  0  0  0  0  0  0  0
   18.8453   17.8716   22.3035 C   0  0  0  0  0  0  0  0  0  0  0  0
   18.5952   16.9369   21.7830 H   0  0  0  0  0  0  0  0  0  0  0  0
   18.0383   18.5712   22.0532 H   0  0  0  0  0  0  0  0  0  0  0  0
   18.8295   17.5746   23.8251 C   0  0  0  0  0  0  0  0  0  0  0  0
   17.8472   17.1551   24.0826 H   0  0  0  0  0  0  0  0  0  0  0  0
   19.5654   16.7910   24.0521 H   0  0  0  0  0  0  0  0  0  0  0  0
   19.1001   18.8085   24.7169 C   0  0  0  0  0  0  0  0  0  0  0  0
   18.4237   19.6254   24.4298 H   0  0  0  0  0  0  0  0  0  0  0  0
   20.1257   19.1595   24.5494 H   0  0  0  0  0  0  0  0  0  0  0  0
   18.9089   18.4842   26.2173 C   0  0  0  0  0  0  0  0  0  0  0  0
   17.8926   18.1015   26.3805 H   0  0  0  0  0  0  0  0  0  0  0  0
   19.5976   17.6842   26.5202 H   0  0  0  0  0  0  0  0  0  0  0  0
   19.1171   19.7132   27.1229 C   0  0  0  0  0  0  0  0  0  0  0  0
   18.8840   19.4452   28.1570 H   0  0  0  0  0  0  0  0  0  0  0  0
   18.4395   20.5149   26.8172 H   0  0  0  0  0  0  0  0  0  0  0  0
   20.5319   20.2574   27.0973 N   0  3  0  0  0  0  0  0  0  0  0  0
   20.6398   21.0656   27.7200 H   0  0  0  0  0  0  0  0  0  0  0  0
   20.8038   20.5632   26.1579 H   0  0  0  0  0  0  0  0  0  0  0  0
   21.2151   19.5543   27.3978 H   0  0  0  0  0  0  0  0  0  0  0  0
  1  2  1  0  0  0  0
  1  3  1  0  0  0  0
  1  4  1  0  0  0  0
  1  5  1  0  0  0  0
  5  6  1  0  0  0  0
  5  7  1  0  0  0  0
  5  8  1  0  0  0  0
  8  9  1  0  0  0  0
  8 10  1  0  0  0  0
  8 11  1  0  0  0  0
 11 12  1  0  0  0  0
 11 13  1  0  0  0  0
 11 14  1  0  0  0  0
 14 15  1  0  0  0  0
 14 16  1  0  0  0  0
 14 17  1  0  0  0  0
 17 18  1  0  0  0  0
 17 19  1  0  0  0  0
 17 20  1  0  0  0  0
 20 21  1  0  0  0  0
 20 22  1  0  0  0  0
 20 23  1  0  0  0  0
 23 24  1  0  0  0  0
 23 25  1  0  0  0  0
 23 26  1  0  0  0  0
 26 27  1  0  0  0  0
 26 28  1  0  0  0  0
 26 29  1  0  0  0  0
M  END
> <VM2 Rank>
349

> <Conf_Id>
2272

> <Probability>
0.00

> <Sum Probability>
99.92

> <Delta G>
4.549

> <G>
62.697

> <E>
24.980

> <-TS>
37.718

> <U+W>
0.835

> <U>
53.239

> <W>
-52.404

> <W(PB)>
-54.857

> <W(SA)>
2.453

> <Valence>
6.409

> <Coulomb>
45.846

> <VdW>
0.985

> <VdW6>
-9.690

> <VdW12>
10.675

> <Bond>
0.300

> <Angle>
1.493

> <Pdih>
4.616

> <Idih>
0.000

> <Tether>
0.000

$$$$
VeraChem MOL file


 29 28  0  0  0  0  0  0  0  0999 V2000     
   20.3529   19.2644   20.0332 C   0  0  0  0  0  0  0  0  0  0  0  0
   19.4953   19.9389   19.9173 H   0  0  0  0  0  0  0  0  0  0  0  0
   21.2020   19.8490   20.4102 H   0  0  0  0  0  0  0  0  0  0  0  0
   20.6178   18.8923   19.0351 H   0  0  0  0  0  0  0  0  0  0  0  0
   20.0244   18.0879   20.9798 C   0  0  0  0  0  0  0  0  0  0  0  0
   20.8672   17.3827   20.9756 H   0  0  0  0  0  0  0  0  0  0  0  0
   19.1577   17.5336   20.5932 H   0  0  0  0  0  0  0  0  0  0  0  0
   19.7542   18.5317   22.4376 C   0  0  0  0  0  0  0  0  0  0  0  0
   19.6237   17.6347   23.0582 H   0  0  0  0  0  0  0  0  0  0  0  0
   20.6395   19.0568   22.8188 H   0  0  0  0  0  0  0  0  0  0  0  0
   18.5061   19.4360   22.5812 C   0  0  0  0  0  0  0  0  0  0  0  0
   17.6693   18.9772   22.0368 H   0  0  0  0  0  0  0  0  0  0  0  0
   18.6920   20.4046   22.0984 H   0  0  0  0  0  0  0  0  0  0  0  0
   18.0574   19.6774   24.0455 C   0  0  0  0  0  0  0  0  0  0  0  0
   17.1368   20.2763   24.0107 H   0  0  0  0  0  0  0  0  0  0  0  0
   17.7691   18.7257   24.5096 H   0  0  0  0  0  0  0  0  0  0  0  0
   19.0882   20.4365   24.9253 C   0  0  0  0  0  0  0  0  0  0  0  0
   18.5418   21.0805   25.6284 H   0  0  0  0  0  0  0  0  0  0  0  0
   19.6778   21.1188   24.2976 H   0  0  0  0  0  0  0  0  0  0  0  0
   20.0391   19.5297   25.7471 C   0  0  0  0  0  0  0  0  0  0  0  0
   20.5949   18.8527   25.0893 H   0  0  0  0  0  0  0  0  0  0  0  0
   20.7870   20.1631   26.2423 H   0  0  0  0  0  0  0  0  0  0  0  0
   19.2965   18.7098   26.8190 C   0  0  0  0  0  0  0  0  0  0  0  0
   18.5760   18.0402   26.3430 H   0  0  0  0  0  0  0  0  0  0  0  0
   18.7520   19.3839   27.4857 H   0  0  0  0  0  0  0  0  0  0  0  0
   20.2252   17.8644   27.6664 N   0  3  0  0  0  0  0  0  0  0  0  0
   20.7491   17.1885   27.1008 H   0  0  0  0  0  0  0  0  0  0  0  0
   19.7118   17.3279   28.3744 H   0  0  0  0  0  0  0  0  0  0  0  0
   20.9129   18.4374   28.1666 H   0  0  0  0  0  0  0  0  0  0  0  0
  1  2  1  0  0  0  0
  1  3  1  0  0  0  0
  1  4  1  0  0  0  0
  1  5  1  0  0  0  0
  5  6  1  0  0  0  0
  5  7  1  0  0  0  0
  5  8  1  0  0  0  0
  8  9  1  0  0  0  0
  8 10  1  0  0  0  0
  8 11  1  0  0  0  0
 11 12  1  0  0  0  0
 11 13  1  0  0  0  0
 11 14  1  0  0  0  0
 14 15  1  0  0  0  0
 14 16  1  0  0  0  0
 14 17  1  0  0  0  0
 17 18  1  0  0  0  0
 17 19  1  0  0  0  0
 17 20  1  0  0  0  0
 20 21  1  0  0  0  0
 20 22  1  0  0  0  0
 20 23  1  0  0  0  0
 23 24  1  0  0  0  0
 23 25  1  0  0  0  0
 23 26  1  0  0  0  0
 26 27  1  0  0  0  0
 26 28  1  0  0  0  0
 26 29  1  0  0  0  0
M  END
> <VM2 Rank>
350

> <Conf_Id>
2304

> <Probability>
0.00

> <Sum Probability>
99.92

> <Delta G>
4.550

> <G>
62.698

> <E>
24.971

> <-TS>
37.727

> <U+W>
0.826

> <U>
53.070

> <W>
-52.244

> <W(PB)>
-54.711

> <W(SA)>
2.467

> <Valence>
6.477

> <Coulomb>
45.680

> <VdW>
0.913

> <VdW6>
-9.819

> <VdW12>
10.732

> <Bond>
0.300

> <Angle>
1.629

> <Pdih>
4.549

> <Idih>
0.000

> <Tether>
0.000

$$$$
VeraChem MOL file


 29 28  0  0  0  0  0  0  0  0999 V2000     
   20.7736   18.1670   20.8929 C   0  0  0  0  0  0  0  0  0  0  0  0
   21.3220   18.0952   19.9447 H   0  0  0  0  0  0  0  0  0  0  0  0
   21.3944   17.7115   21.6752 H   0  0  0  0  0  0  0  0  0  0  0  0
   19.8581   17.5715   20.7900 H   0  0  0  0  0  0  0  0  0  0  0  0
   20.4569   19.6430   21.2238 C   0  0  0  0  0  0  0  0  0  0  0  0
   19.8117   20.0677   20.4421 H   0  0  0  0  0  0  0  0  0  0  0  0
   21.3920   20.2198   21.1978 H   0  0  0  0  0  0  0  0  0  0  0  0
   19.7958   19.8316   22.6102 C   0  0  0  0  0  0  0  0  0  0  0  0
   20.4594   19.4211   23.3790 H   0  0  0  0  0  0  0  0  0  0  0  0
   19.7186   20.9084   22.8135 H   0  0  0  0  0  0  0  0  0  0  0  0
   18.3839   19.1981   22.7075 C   0  0  0  0  0  0  0  0  0  0  0  0
   18.4308   18.1135   22.5454 H   0  0  0  0  0  0  0  0  0  0  0  0
   17.7737   19.6017   21.8878 H   0  0  0  0  0  0  0  0  0  0  0  0
   17.6566   19.4953   24.0453 C   0  0  0  0  0  0  0  0  0  0  0  0
   17.9549   20.4773   24.4361 H   0  0  0  0  0  0  0  0  0  0  0  0
   16.5825   19.5835   23.8311 H   0  0  0  0  0  0  0  0  0  0  0  0
   17.8180   18.3993   25.1331 C   0  0  0  0  0  0  0  0  0  0  0  0
   17.4170   17.4514   24.7486 H   0  0  0  0  0  0  0  0  0  0  0  0
   17.1856   18.6646   25.9916 H   0  0  0  0  0  0  0  0  0  0  0  0
   19.2611   18.1631   25.6381 C   0  0  0  0  0  0  0  0  0  0  0  0
   19.2415   17.3804   26.4080 H   0  0  0  0  0  0  0  0  0  0  0  0
   19.8837   17.7729   24.8237 H   0  0  0  0  0  0  0  0  0  0  0  0
   19.8961   19.4335   26.2336 C   0  0  0  0  0  0  0  0  0  0  0  0
   19.2846   19.7949   27.0647 H   0  0  0  0  0  0  0  0  0  0  0  0
   19.9395   20.2168   25.4727 H   0  0  0  0  0  0  0  0  0  0  0  0
   21.3020   19.2072   26.7503 N   0  3  0  0  0  0  0  0  0  0  0  0
   21.3256   18.5003   27.4927 H   0  0  0  0  0  0  0  0  0  0  0  0
   21.7062   20.0649   27.1423 H   0  0  0  0  0  0  0  0  0  0  0  0
   21.9353   18.8887   26.0098 H   0  0  0  0  0  0  0  0  0  0  0  0
  1  2  1  0  0  0  0
  1  3  1  0  0  0  0
  1  4  1  0  0  0  0
  1  5  1  0  0  0  0
  5  6  1  0  0  0  0
  5  7  1  0  0  0  0
  5  8  1  0  0  0  0
  8  9  1  0  0  0  0
  8 10  1  0  0  0  0
  8 11  1  0  0  0  0
 11 12  1  0  0  0  0
 11 13  1  0  0  0  0
 11 14  1  0  0  0  0
 14 15  1  0  0  0  0
 14 16  1  0  0  0  0
 14 17  1  0  0  0  0
 17 18  1  0  0  0  0
 17 19  1  0  0  0  0
 17 20  1  0  0  0  0
 20 21  1  0  0  0  0
 20 22  1  0  0  0  0
 20 23  1  0  0  0  0
 23 24  1  0  0  0  0
 23 25  1  0  0  0  0
 23 26  1  0  0  0  0
 26 27  1  0  0  0  0
 26 28  1  0  0  0  0
 26 29  1  0  0  0  0
M  END
> <VM2 Rank>
351

> <Conf_Id>
2332

> <Probability>
0.00

> <Sum Probability>
99.93

> <Delta G>
4.557

> <G>
62.705

> <E>
24.684

> <-TS>
38.020

> <U+W>
0.540

> <U>
53.377

> <W>
-52.838

> <W(PB)>
-55.258

> <W(SA)>
2.420

> <Valence>
6.393

> <Coulomb>
46.521

> <VdW>
0.464

> <VdW6>
-10.599

> <VdW12>
11.063

> <Bond>
0.301

> <Angle>
1.794

> <Pdih>
4.298

> <Idih>
0.000

> <Tether>
0.000

$$$$
VeraChem MOL file


 29 28  0  0  0  0  0  0  0  0999 V2000     
   20.9724   18.8845   20.3740 C   0  0  0  0  0  0  0  0  0  0  0  0
   22.0527   18.6909   20.3960 H   0  0  0  0  0  0  0  0  0  0  0  0
   20.5260   18.2181   19.6245 H   0  0  0  0  0  0  0  0  0  0  0  0
   20.8222   19.9205   20.0433 H   0  0  0  0  0  0  0  0  0  0  0  0
   20.3486   18.6516   21.7662 C   0  0  0  0  0  0  0  0  0  0  0  0
   20.8509   19.3011   22.4917 H   0  0  0  0  0  0  0  0  0  0  0  0
   20.5424   17.6168   22.0809 H   0  0  0  0  0  0  0  0  0  0  0  0
   18.8240   18.9164   21.7577 C   0  0  0  0  0  0  0  0  0  0  0  0
   18.6182   19.9482   21.4418 H   0  0  0  0  0  0  0  0  0  0  0  0
   18.3731   18.2704   20.9917 H   0  0  0  0  0  0  0  0  0  0  0  0
   18.1225   18.6221   23.1100 C   0  0  0  0  0  0  0  0  0  0  0  0
   18.6109   17.7849   23.6254 H   0  0  0  0  0  0  0  0  0  0  0  0
   17.1065   18.2687   22.8860 H   0  0  0  0  0  0  0  0  0  0  0  0
   17.9789   19.8466   24.0537 C   0  0  0  0  0  0  0  0  0  0  0  0
   17.4428   20.6434   23.5201 H   0  0  0  0  0  0  0  0  0  0  0  0
   17.3243   19.5676   24.8902 H   0  0  0  0  0  0  0  0  0  0  0  0
   19.2984   20.4316   24.6207 C   0  0  0  0  0  0  0  0  0  0  0  0
   19.0500   21.2848   25.2669 H   0  0  0  0  0  0  0  0  0  0  0  0
   19.8968   20.8518   23.8027 H   0  0  0  0  0  0  0  0  0  0  0  0
   20.1552   19.4296   25.4344 C   0  0  0  0  0  0  0  0  0  0  0  0
   20.4954   18.6099   24.7901 H   0  0  0  0  0  0  0  0  0  0  0  0
   21.0601   19.9420   25.7868 H   0  0  0  0  0  0  0  0  0  0  0  0
   19.4001   18.8516   26.6454 C   0  0  0  0  0  0  0  0  0  0  0  0
   18.5182   18.3041   26.3029 H   0  0  0  0  0  0  0  0  0  0  0  0
   19.0698   19.6659   27.2959 H   0  0  0  0  0  0  0  0  0  0  0  0
   20.2439   17.9039   27.4730 N   0  3  0  0  0  0  0  0  0  0  0  0
   20.5647   17.0996   26.9240 H   0  0  0  0  0  0  0  0  0  0  0  0
   19.7225   17.5308   28.2739 H   0  0  0  0  0  0  0  0  0  0  0  0
   21.0786   18.3658   27.8490 H   0  0  0  0  0  0  0  0  0  0  0  0
  1  2  1  0  0  0  0
  1  3  1  0  0  0  0
  1  4  1  0  0  0  0
  1  5  1  0  0  0  0
  5  6  1  0  0  0  0
  5  7  1  0  0  0  0
  5  8  1  0  0  0  0
  8  9  1  0  0  0  0
  8 10  1  0  0  0  0
  8 11  1  0  0  0  0
 11 12  1  0  0  0  0
 11 13  1  0  0  0  0
 11 14  1  0  0  0  0
 14 15  1  0  0  0  0
 14 16  1  0  0  0  0
 14 17  1  0  0  0  0
 17 18  1  0  0  0  0
 17 19  1  0  0  0  0
 17 20  1  0  0  0  0
 20 21  1  0  0  0  0
 20 22  1  0  0  0  0
 20 23  1  0  0  0  0
 23 24  1  0  0  0  0
 23 25  1  0  0  0  0
 23 26  1  0  0  0  0
 26 27  1  0  0  0  0
 26 28  1  0  0  0  0
 26 29  1  0  0  0  0
M  END
> <VM2 Rank>
352

> <Conf_Id>
288

> <Probability>
0.00

> <Sum Probability>
99.93

> <Delta G>
4.557

> <G>
62.705

> <E>
24.541

> <-TS>
38.165

> <U+W>
0.396

> <U>
52.906

> <W>
-52.510

> <W(PB)>
-54.925

> <W(SA)>
2.415

> <Valence>
6.462

> <Coulomb>
45.981

> <VdW>
0.463

> <VdW6>
-10.554

> <VdW12>
11.017

> <Bond>
0.308

> <Angle>
2.049

> <Pdih>
4.105

> <Idih>
0.000

> <Tether>
0.000

$$$$
VeraChem MOL file


 29 28  0  0  0  0  0  0  0  0999 V2000     
   20.7702   18.2856   21.0074 C   0  0  0  0  0  0  0  0  0  0  0  0
   21.3403   17.3484   20.9692 H   0  0  0  0  0  0  0  0  0  0  0  0
   20.7701   18.7196   19.9992 H   0  0  0  0  0  0  0  0  0  0  0  0
   21.3053   18.9726   21.6737 H   0  0  0  0  0  0  0  0  0  0  0  0
   19.3274   18.0224   21.4956 C   0  0  0  0  0  0  0  0  0  0  0  0
   19.3392   17.5694   22.4950 H   0  0  0  0  0  0  0  0  0  0  0  0
   18.8669   17.2735   20.8363 H   0  0  0  0  0  0  0  0  0  0  0  0
   18.4387   19.2899   21.4925 C   0  0  0  0  0  0  0  0  0  0  0  0
   18.3752   19.6695   20.4635 H   0  0  0  0  0  0  0  0  0  0  0  0
   17.4141   19.0030   21.7664 H   0  0  0  0  0  0  0  0  0  0  0  0
   18.8991   20.4485   22.4180 C   0  0  0  0  0  0  0  0  0  0  0  0
   18.2133   21.2898   22.2477 H   0  0  0  0  0  0  0  0  0  0  0  0
   19.8883   20.8174   22.1168 H   0  0  0  0  0  0  0  0  0  0  0  0
   18.8760   20.1196   23.9341 C   0  0  0  0  0  0  0  0  0  0  0  0
   18.5869   21.0295   24.4781 H   0  0  0  0  0  0  0  0  0  0  0  0
   18.0909   19.3805   24.1409 H   0  0  0  0  0  0  0  0  0  0  0  0
   20.2427   19.6433   24.4898 C   0  0  0  0  0  0  0  0  0  0  0  0
   21.0081   20.3953   24.2541 H   0  0  0  0  0  0  0  0  0  0  0  0
   20.5597   18.7170   23.9974 H   0  0  0  0  0  0  0  0  0  0  0  0
   20.2262   19.4194   26.0199 C   0  0  0  0  0  0  0  0  0  0  0  0
   21.2438   19.1799   26.3560 H   0  0  0  0  0  0  0  0  0  0  0  0
   19.9382   20.3499   26.5270 H   0  0  0  0  0  0  0  0  0  0  0  0
   19.2764   18.2830   26.4423 C   0  0  0  0  0  0  0  0  0  0  0  0
   19.5644   17.3564   25.9384 H   0  0  0  0  0  0  0  0  0  0  0  0
   18.2519   18.5293   26.1520 H   0  0  0  0  0  0  0  0  0  0  0  0
   19.2873   18.0265   27.9352 N   0  3  0  0  0  0  0  0  0  0  0  0
   18.9994   18.8547   28.4668 H   0  0  0  0  0  0  0  0  0  0  0  0
   20.2195   17.7617   28.2703 H   0  0  0  0  0  0  0  0  0  0  0  0
   18.6489   17.2669   28.1961 H   0  0  0  0  0  0  0  0  0  0  0  0
  1  2  1  0  0  0  0
  1  3  1  0  0  0  0
  1  4  1  0  0  0  0
  1  5  1  0  0  0  0
  5  6  1  0  0  0  0
  5  7  1  0  0  0  0
  5  8  1  0  0  0  0
  8  9  1  0  0  0  0
  8 10  1  0  0  0  0
  8 11  1  0  0  0  0
 11 12  1  0  0  0  0
 11 13  1  0  0  0  0
 11 14  1  0  0  0  0
 14 15  1  0  0  0  0
 14 16  1  0  0  0  0
 14 17  1  0  0  0  0
 17 18  1  0  0  0  0
 17 19  1  0  0  0  0
 17 20  1  0  0  0  0
 20 21  1  0  0  0  0
 20 22  1  0  0  0  0
 20 23  1  0  0  0  0
 23 24  1  0  0  0  0
 23 25  1  0  0  0  0
 23 26  1  0  0  0  0
 26 27  1  0  0  0  0
 26 28  1  0  0  0  0
 26 29  1  0  0  0  0
M  END
> <VM2 Rank>
353

> <Conf_Id>
1049

> <Probability>
0.00

> <Sum Probability>
99.93

> <Delta G>
4.586

> <G>
62.734

> <E>
24.641

> <-TS>
38.093

> <U+W>
0.497

> <U>
52.578

> <W>
-52.082

> <W(PB)>
-54.479

> <W(SA)>
2.398

> <Valence>
6.481

> <Coulomb>
45.486

> <VdW>
0.611

> <VdW6>
-10.292

> <VdW12>
10.903

> <Bond>
0.300

> <Angle>
1.869

> <Pdih>
4.312

> <Idih>
0.000

> <Tether>
0.000

$$$$
VeraChem MOL file


 29 28  0  0  0  0  0  0  0  0999 V2000     
   20.4312   18.0576   20.2707 C   0  0  0  0  0  0  0  0  0  0  0  0
   20.7232   17.5862   21.2157 H   0  0  0  0  0  0  0  0  0  0  0  0
   20.2115   17.2569   19.5527 H   0  0  0  0  0  0  0  0  0  0  0  0
   21.2966   18.6166   19.8915 H   0  0  0  0  0  0  0  0  0  0  0  0
   19.2058   18.9860   20.4377 C   0  0  0  0  0  0  0  0  0  0  0  0
   18.3238   18.4046   20.7401 H   0  0  0  0  0  0  0  0  0  0  0  0
   18.9650   19.4094   19.4524 H   0  0  0  0  0  0  0  0  0  0  0  0
   19.4502   20.1515   21.4306 C   0  0  0  0  0  0  0  0  0  0  0  0
   20.5168   20.4141   21.4535 H   0  0  0  0  0  0  0  0  0  0  0  0
   18.9351   21.0422   21.0451 H   0  0  0  0  0  0  0  0  0  0  0  0
   18.9331   19.9013   22.8710 C   0  0  0  0  0  0  0  0  0  0  0  0
   17.8458   19.7462   22.8454 H   0  0  0  0  0  0  0  0  0  0  0  0
   19.0978   20.8198   23.4478 H   0  0  0  0  0  0  0  0  0  0  0  0
   19.6058   18.7059   23.5903 C   0  0  0  0  0  0  0  0  0  0  0  0
   19.3731   17.7841   23.0424 H   0  0  0  0  0  0  0  0  0  0  0  0
   20.6981   18.8205   23.5652 H   0  0  0  0  0  0  0  0  0  0  0  0
   19.1354   18.5158   25.0536 C   0  0  0  0  0  0  0  0  0  0  0  0
   19.5203   17.5517   25.4113 H   0  0  0  0  0  0  0  0  0  0  0  0
   18.0396   18.4400   25.0817 H   0  0  0  0  0  0  0  0  0  0  0  0
   19.6080   19.6401   26.0097 C   0  0  0  0  0  0  0  0  0  0  0  0
   20.7010   19.7366   25.9662 H   0  0  0  0  0  0  0  0  0  0  0  0
   19.1944   20.6034   25.6876 H   0  0  0  0  0  0  0  0  0  0  0  0
   19.1712   19.4013   27.4680 C   0  0  0  0  0  0  0  0  0  0  0  0
   18.0850   19.2844   27.5126 H   0  0  0  0  0  0  0  0  0  0  0  0
   19.4461   20.2683   28.0748 H   0  0  0  0  0  0  0  0  0  0  0  0
   19.8032   18.1785   28.1035 N   0  3  0  0  0  0  0  0  0  0  0  0
   20.8267   18.2399   28.1112 H   0  0  0  0  0  0  0  0  0  0  0  0
   19.5546   17.3195   27.6031 H   0  0  0  0  0  0  0  0  0  0  0  0
   19.5026   18.0571   29.0769 H   0  0  0  0  0  0  0  0  0  0  0  0
  1  2  1  0  0  0  0
  1  3  1  0  0  0  0
  1  4  1  0  0  0  0
  1  5  1  0  0  0  0
  5  6  1  0  0  0  0
  5  7  1  0  0  0  0
  5  8  1  0  0  0  0
  8  9  1  0  0  0  0
  8 10  1  0  0  0  0
  8 11  1  0  0  0  0
 11 12  1  0  0  0  0
 11 13  1  0  0  0  0
 11 14  1  0  0  0  0
 14 15  1  0  0  0  0
 14 16  1  0  0  0  0
 14 17  1  0  0  0  0
 17 18  1  0  0  0  0
 17 19  1  0  0  0  0
 17 20  1  0  0  0  0
 20 21  1  0  0  0  0
 20 22  1  0  0  0  0
 20 23  1  0  0  0  0
 23 24  1  0  0  0  0
 23 25  1  0  0  0  0
 23 26  1  0  0  0  0
 26 27  1  0  0  0  0
 26 28  1  0  0  0  0
 26 29  1  0  0  0  0
M  END
> <VM2 Rank>
354

> <Conf_Id>
1281

> <Probability>
0.00

> <Sum Probability>
99.93

> <Delta G>
4.597

> <G>
62.745

> <E>
25.098

> <-TS>
37.647

> <U+W>
0.953

> <U>
52.563

> <W>
-51.610

> <W(PB)>
-54.113

> <W(SA)>
2.503

> <Valence>
6.390

> <Coulomb>
44.996

> <VdW>
1.177

> <VdW6>
-9.539

> <VdW12>
10.716

> <Bond>
0.302

> <Angle>
1.557

> <Pdih>
4.532

> <Idih>
0.000

> <Tether>
0.000

$$$$
VeraChem MOL file


 29 28  0  0  0  0  0  0  0  0999 V2000     
   21.0968   18.4999   21.3623 C   0  0  0  0  0  0  0  0  0  0  0  0
   21.6785   19.4258   21.2673 H   0  0  0  0  0  0  0  0  0  0  0  0
   21.0685   18.2236   22.4215 H   0  0  0  0  0  0  0  0  0  0  0  0
   21.6411   17.7090   20.8303 H   0  0  0  0  0  0  0  0  0  0  0  0
   19.6802   18.6728   20.7668 C   0  0  0  0  0  0  0  0  0  0  0  0
   19.1180   17.7316   20.8411 H   0  0  0  0  0  0  0  0  0  0  0  0
   19.7904   18.8742   19.6920 H   0  0  0  0  0  0  0  0  0  0  0  0
   18.8721   19.8345   21.4013 C   0  0  0  0  0  0  0  0  0  0  0  0
   19.5433   20.6473   21.7077 H   0  0  0  0  0  0  0  0  0  0  0  0
   18.2367   20.2674   20.6164 H   0  0  0  0  0  0  0  0  0  0  0  0
   17.9355   19.4204   22.5687 C   0  0  0  0  0  0  0  0  0  0  0  0
   17.2097   18.6859   22.1935 H   0  0  0  0  0  0  0  0  0  0  0  0
   17.3430   20.2956   22.8689 H   0  0  0  0  0  0  0  0  0  0  0  0
   18.6248   18.8350   23.8262 C   0  0  0  0  0  0  0  0  0  0  0  0
   17.8387   18.5398   24.5336 H   0  0  0  0  0  0  0  0  0  0  0  0
   19.1533   17.9096   23.5656 H   0  0  0  0  0  0  0  0  0  0  0  0
   19.5886   19.8301   24.5212 C   0  0  0  0  0  0  0  0  0  0  0  0
   19.0389   20.7369   24.8089 H   0  0  0  0  0  0  0  0  0  0  0  0
   20.3653   20.1505   23.8154 H   0  0  0  0  0  0  0  0  0  0  0  0
   20.2831   19.2304   25.7663 C   0  0  0  0  0  0  0  0  0  0  0  0
   20.8474   18.3337   25.4775 H   0  0  0  0  0  0  0  0  0  0  0  0
   21.0159   19.9538   26.1478 H   0  0  0  0  0  0  0  0  0  0  0  0
   19.2916   18.8791   26.8911 C   0  0  0  0  0  0  0  0  0  0  0  0
   18.5839   18.1241   26.5392 H   0  0  0  0  0  0  0  0  0  0  0  0
   18.7293   19.7718   27.1780 H   0  0  0  0  0  0  0  0  0  0  0  0
   19.9714   18.3359   28.1312 N   0  3  0  0  0  0  0  0  0  0  0  0
   20.4975   17.4782   27.9334 H   0  0  0  0  0  0  0  0  0  0  0  0
   19.2946   18.1085   28.8680 H   0  0  0  0  0  0  0  0  0  0  0  0
   20.6324   19.0105   28.5306 H   0  0  0  0  0  0  0  0  0  0  0  0
  1  2  1  0  0  0  0
  1  3  1  0  0  0  0
  1  4  1  0  0  0  0
  1  5  1  0  0  0  0
  5  6  1  0  0  0  0
  5  7  1  0  0  0  0
  5  8  1  0  0  0  0
  8  9  1  0  0  0  0
  8 10  1  0  0  0  0
  8 11  1  0  0  0  0
 11 12  1  0  0  0  0
 11 13  1  0  0  0  0
 11 14  1  0  0  0  0
 14 15  1  0  0  0  0
 14 16  1  0  0  0  0
 14 17  1  0  0  0  0
 17 18  1  0  0  0  0
 17 19  1  0  0  0  0
 17 20  1  0  0  0  0
 20 21  1  0  0  0  0
 20 22  1  0  0  0  0
 20 23  1  0  0  0  0
 23 24  1  0  0  0  0
 23 25  1  0  0  0  0
 23 26  1  0  0  0  0
 26 27  1  0  0  0  0
 26 28  1  0  0  0  0
 26 29  1  0  0  0  0
M  END
> <VM2 Rank>
355

> <Conf_Id>
842

> <Probability>
0.00

> <Sum Probability>
99.94

> <Delta G>
4.604

> <G>
62.752

> <E>
24.632

> <-TS>
38.121

> <U+W>
0.487

> <U>
52.469

> <W>
-51.982

> <W(PB)>
-54.381

> <W(SA)>
2.399

> <Valence>
6.500

> <Coulomb>
45.340

> <VdW>
0.629

> <VdW6>
-10.352

> <VdW12>
10.981

> <Bond>
0.305

> <Angle>
1.982

> <Pdih>
4.214

> <Idih>
0.000

> <Tether>
0.000

$$$$
VeraChem MOL file


 29 28  0  0  0  0  0  0  0  0999 V2000     
   20.9516   18.1244   20.4638 C   0  0  0  0  0  0  0  0  0  0  0  0
   21.5068   18.9507   20.0011 H   0  0  0  0  0  0  0  0  0  0  0  0
   21.6591   17.3060   20.6499 H   0  0  0  0  0  0  0  0  0  0  0  0
   20.2051   17.7675   19.7423 H   0  0  0  0  0  0  0  0  0  0  0  0
   20.2805   18.5739   21.7789 C   0  0  0  0  0  0  0  0  0  0  0  0
   21.0526   18.9007   22.4892 H   0  0  0  0  0  0  0  0  0  0  0  0
   19.7696   17.7119   22.2272 H   0  0  0  0  0  0  0  0  0  0  0  0
   19.2695   19.7185   21.5409 C   0  0  0  0  0  0  0  0  0  0  0  0
   19.7646   20.5188   20.9739 H   0  0  0  0  0  0  0  0  0  0  0  0
   18.4504   19.3558   20.9048 H   0  0  0  0  0  0  0  0  0  0  0  0
   18.6830   20.3344   22.8373 C   0  0  0  0  0  0  0  0  0  0  0  0
   18.0261   21.1631   22.5391 H   0  0  0  0  0  0  0  0  0  0  0  0
   19.4863   20.7950   23.4253 H   0  0  0  0  0  0  0  0  0  0  0  0
   17.8503   19.3508   23.7043 C   0  0  0  0  0  0  0  0  0  0  0  0
   17.0050   19.8965   24.1459 H   0  0  0  0  0  0  0  0  0  0  0  0
   17.3984   18.5867   23.0571 H   0  0  0  0  0  0  0  0  0  0  0  0
   18.6353   18.6604   24.8504 C   0  0  0  0  0  0  0  0  0  0  0  0
   19.5341   18.1739   24.4557 H   0  0  0  0  0  0  0  0  0  0  0  0
   18.0084   17.8579   25.2632 H   0  0  0  0  0  0  0  0  0  0  0  0
   19.0186   19.6274   25.9990 C   0  0  0  0  0  0  0  0  0  0  0  0
   19.7051   20.4040   25.6403 H   0  0  0  0  0  0  0  0  0  0  0  0
   18.1178   20.1455   26.3538 H   0  0  0  0  0  0  0  0  0  0  0  0
   19.6627   18.8991   27.1941 C   0  0  0  0  0  0  0  0  0  0  0  0
   18.9862   18.1222   27.5601 H   0  0  0  0  0  0  0  0  0  0  0  0
   19.8334   19.6127   28.0048 H   0  0  0  0  0  0  0  0  0  0  0  0
   20.9925   18.2490   26.8663 N   0  3  0  0  0  0  0  0  0  0  0  0
   21.6801   18.9347   26.5374 H   0  0  0  0  0  0  0  0  0  0  0  0
   20.8966   17.5389   26.1337 H   0  0  0  0  0  0  0  0  0  0  0  0
   21.4003   17.7838   27.6847 H   0  0  0  0  0  0  0  0  0  0  0  0
  1  2  1  0  0  0  0
  1  3  1  0  0  0  0
  1  4  1  0  0  0  0
  1  5  1  0  0  0  0
  5  6  1  0  0  0  0
  5  7  1  0  0  0  0
  5  8  1  0  0  0  0
  8  9  1  0  0  0  0
  8 10  1  0  0  0  0
  8 11  1  0  0  0  0
 11 12  1  0  0  0  0
 11 13  1  0  0  0  0
 11 14  1  0  0  0  0
 14 15  1  0  0  0  0
 14 16  1  0  0  0  0
 14 17  1  0  0  0  0
 17 18  1  0  0  0  0
 17 19  1  0  0  0  0
 17 20  1  0  0  0  0
 20 21  1  0  0  0  0
 20 22  1  0  0  0  0
 20 23  1  0  0  0  0
 23 24  1  0  0  0  0
 23 25  1  0  0  0  0
 23 26  1  0  0  0  0
 26 27  1  0  0  0  0
 26 28  1  0  0  0  0
 26 29  1  0  0  0  0
M  END
> <VM2 Rank>
356

> <Conf_Id>
2291

> <Probability>
0.00

> <Sum Probability>
99.94

> <Delta G>
4.617

> <G>
62.765

> <E>
25.065

> <-TS>
37.700

> <U+W>
0.921

> <U>
53.509

> <W>
-52.588

> <W(PB)>
-55.019

> <W(SA)>
2.431

> <Valence>
6.433

> <Coulomb>
46.138

> <VdW>
0.938

> <VdW6>
-9.756

> <VdW12>
10.694

> <Bond>
0.309

> <Angle>
1.514

> <Pdih>
4.610

> <Idih>
0.000

> <Tether>
0.000

$$$$
VeraChem MOL file


 29 28  0  0  0  0  0  0  0  0999 V2000     
   20.7226   19.6679   20.4761 C   0  0  0  0  0  0  0  0  0  0  0  0
   21.6064   19.0235   20.3818 H   0  0  0  0  0  0  0  0  0  0  0  0
   20.6664   20.2899   19.5734 H   0  0  0  0  0  0  0  0  0  0  0  0
   20.8823   20.3350   21.3304 H   0  0  0  0  0  0  0  0  0  0  0  0
   19.4377   18.8213   20.6309 C   0  0  0  0  0  0  0  0  0  0  0  0
   19.3378   18.1907   19.7364 H   0  0  0  0  0  0  0  0  0  0  0  0
   18.5512   19.4704   20.6432 H   0  0  0  0  0  0  0  0  0  0  0  0
   19.4538   17.9061   21.8823 C   0  0  0  0  0  0  0  0  0  0  0  0
   18.9628   16.9590   21.6191 H   0  0  0  0  0  0  0  0  0  0  0  0
   20.4867   17.6398   22.1454 H   0  0  0  0  0  0  0  0  0  0  0  0
   18.7209   18.4819   23.1215 C   0  0  0  0  0  0  0  0  0  0  0  0
   18.7434   17.7155   23.9064 H   0  0  0  0  0  0  0  0  0  0  0  0
   17.6617   18.6416   22.8776 H   0  0  0  0  0  0  0  0  0  0  0  0
   19.3276   19.7989   23.6652 C   0  0  0  0  0  0  0  0  0  0  0  0
   20.4013   19.6651   23.8523 H   0  0  0  0  0  0  0  0  0  0  0  0
   19.2428   20.5763   22.8954 H   0  0  0  0  0  0  0  0  0  0  0  0
   18.6257   20.3271   24.9434 C   0  0  0  0  0  0  0  0  0  0  0  0
   17.5717   20.5375   24.7151 H   0  0  0  0  0  0  0  0  0  0  0  0
   19.0740   21.2929   25.2146 H   0  0  0  0  0  0  0  0  0  0  0  0
   18.6965   19.3845   26.1709 C   0  0  0  0  0  0  0  0  0  0  0  0
   18.2111   19.8781   27.0232 H   0  0  0  0  0  0  0  0  0  0  0  0
   18.1206   18.4705   25.9788 H   0  0  0  0  0  0  0  0  0  0  0  0
   20.1408   19.0169   26.5583 C   0  0  0  0  0  0  0  0  0  0  0  0
   20.7107   19.9277   26.7605 H   0  0  0  0  0  0  0  0  0  0  0  0
   20.6204   18.4858   25.7320 H   0  0  0  0  0  0  0  0  0  0  0  0
   20.2184   18.1334   27.7864 N   0  3  0  0  0  0  0  0  0  0  0  0
   19.8072   18.5867   28.6091 H   0  0  0  0  0  0  0  0  0  0  0  0
   21.1881   17.9002   28.0272 H   0  0  0  0  0  0  0  0  0  0  0  0
   19.7223   17.2464   27.6506 H   0  0  0  0  0  0  0  0  0  0  0  0
  1  2  1  0  0  0  0
  1  3  1  0  0  0  0
  1  4  1  0  0  0  0
  1  5  1  0  0  0  0
  5  6  1  0  0  0  0
  5  7  1  0  0  0  0
  5  8  1  0  0  0  0
  8  9  1  0  0  0  0
  8 10  1  0  0  0  0
  8 11  1  0  0  0  0
 11 12  1  0  0  0  0
 11 13  1  0  0  0  0
 11 14  1  0  0  0  0
 14 15  1  0  0  0  0
 14 16  1  0  0  0  0
 14 17  1  0  0  0  0
 17 18  1  0  0  0  0
 17 19  1  0  0  0  0
 17 20  1  0  0  0  0
 20 21  1  0  0  0  0
 20 22  1  0  0  0  0
 20 23  1  0  0  0  0
 23 24  1  0  0  0  0
 23 25  1  0  0  0  0
 23 26  1  0  0  0  0
 26 27  1  0  0  0  0
 26 28  1  0  0  0  0
 26 29  1  0  0  0  0
M  END
> <VM2 Rank>
357

> <Conf_Id>
538

> <Probability>
0.00

> <Sum Probability>
99.94

> <Delta G>
4.651

> <G>
62.799

> <E>
24.974

> <-TS>
37.826

> <U+W>
0.829

> <U>
52.892

> <W>
-52.063

> <W(PB)>
-54.519

> <W(SA)>
2.456

> <Valence>
6.463

> <Coulomb>
45.485

> <VdW>
0.944

> <VdW6>
-9.991

> <VdW12>
10.935

> <Bond>
0.305

> <Angle>
1.766

> <Pdih>
4.392

> <Idih>
0.000

> <Tether>
0.000

$$$$
VeraChem MOL file


 29 28  0  0  0  0  0  0  0  0999 V2000     
   21.1233   18.5743   21.3641 C   0  0  0  0  0  0  0  0  0  0  0  0
   21.2610   18.7640   22.4338 H   0  0  0  0  0  0  0  0  0  0  0  0
   20.9904   17.4938   21.2242 H   0  0  0  0  0  0  0  0  0  0  0  0
   22.0525   18.8637   20.8564 H   0  0  0  0  0  0  0  0  0  0  0  0
   19.9248   19.3593   20.7822 C   0  0  0  0  0  0  0  0  0  0  0  0
   19.8982   19.1764   19.6988 H   0  0  0  0  0  0  0  0  0  0  0  0
   20.0829   20.4401   20.9017 H   0  0  0  0  0  0  0  0  0  0  0  0
   18.5556   18.9456   21.3814 C   0  0  0  0  0  0  0  0  0  0  0  0
   17.8007   19.0432   20.5889 H   0  0  0  0  0  0  0  0  0  0  0  0
   18.5577   17.8801   21.6458 H   0  0  0  0  0  0  0  0  0  0  0  0
   18.0748   19.8117   22.5774 C   0  0  0  0  0  0  0  0  0  0  0  0
   17.0584   19.4967   22.8509 H   0  0  0  0  0  0  0  0  0  0  0  0
   17.9819   20.8537   22.2419 H   0  0  0  0  0  0  0  0  0  0  0  0
   18.9611   19.7794   23.8473 C   0  0  0  0  0  0  0  0  0  0  0  0
   19.9590   20.1720   23.6162 H   0  0  0  0  0  0  0  0  0  0  0  0
   18.5285   20.4766   24.5768 H   0  0  0  0  0  0  0  0  0  0  0  0
   19.0692   18.3725   24.4887 C   0  0  0  0  0  0  0  0  0  0  0  0
   19.4785   17.6617   23.7599 H   0  0  0  0  0  0  0  0  0  0  0  0
   18.0662   18.0067   24.7480 H   0  0  0  0  0  0  0  0  0  0  0  0
   19.9688   18.3485   25.7465 C   0  0  0  0  0  0  0  0  0  0  0  0
   20.0741   17.3104   26.0888 H   0  0  0  0  0  0  0  0  0  0  0  0
   20.9769   18.6974   25.4855 H   0  0  0  0  0  0  0  0  0  0  0  0
   19.4068   19.2025   26.8983 C   0  0  0  0  0  0  0  0  0  0  0  0
   18.4030   18.8555   27.1577 H   0  0  0  0  0  0  0  0  0  0  0  0
   19.3405   20.2479   26.5865 H   0  0  0  0  0  0  0  0  0  0  0  0
   20.2595   19.1443   28.1491 N   0  3  0  0  0  0  0  0  0  0  0  0
   20.3398   18.1887   28.5122 H   0  0  0  0  0  0  0  0  0  0  0  0
   19.8685   19.7189   28.9038 H   0  0  0  0  0  0  0  0  0  0  0  0
   21.2119   19.4834   27.9779 H   0  0  0  0  0  0  0  0  0  0  0  0
  1  2  1  0  0  0  0
  1  3  1  0  0  0  0
  1  4  1  0  0  0  0
  1  5  1  0  0  0  0
  5  6  1  0  0  0  0
  5  7  1  0  0  0  0
  5  8  1  0  0  0  0
  8  9  1  0  0  0  0
  8 10  1  0  0  0  0
  8 11  1  0  0  0  0
 11 12  1  0  0  0  0
 11 13  1  0  0  0  0
 11 14  1  0  0  0  0
 14 15  1  0  0  0  0
 14 16  1  0  0  0  0
 14 17  1  0  0  0  0
 17 18  1  0  0  0  0
 17 19  1  0  0  0  0
 17 20  1  0  0  0  0
 20 21  1  0  0  0  0
 20 22  1  0  0  0  0
 20 23  1  0  0  0  0
 23 24  1  0  0  0  0
 23 25  1  0  0  0  0
 23 26  1  0  0  0  0
 26 27  1  0  0  0  0
 26 28  1  0  0  0  0
 26 29  1  0  0  0  0
M  END
> <VM2 Rank>
358

> <Conf_Id>
490

> <Probability>
0.00

> <Sum Probability>
99.94

> <Delta G>
4.662

> <G>
62.810

> <E>
24.689

> <-TS>
38.121

> <U+W>
0.545

> <U>
52.469

> <W>
-51.924

> <W(PB)>
-54.343

> <W(SA)>
2.419

> <Valence>
6.500

> <Coulomb>
45.340

> <VdW>
0.629

> <VdW6>
-10.352

> <VdW12>
10.981

> <Bond>
0.305

> <Angle>
1.982

> <Pdih>
4.214

> <Idih>
0.000

> <Tether>
0.000

$$$$
VeraChem MOL file


 29 28  0  0  0  0  0  0  0  0999 V2000     
   20.1075   17.9418   20.4374 C   0  0  0  0  0  0  0  0  0  0  0  0
   19.6834   17.5318   19.5117 H   0  0  0  0  0  0  0  0  0  0  0  0
   21.2008   17.8856   20.3561 H   0  0  0  0  0  0  0  0  0  0  0  0
   19.7976   17.2907   21.2623 H   0  0  0  0  0  0  0  0  0  0  0  0
   19.6449   19.4030   20.6439 C   0  0  0  0  0  0  0  0  0  0  0  0
   18.5475   19.4605   20.6430 H   0  0  0  0  0  0  0  0  0  0  0  0
   19.9787   19.9897   19.7766 H   0  0  0  0  0  0  0  0  0  0  0  0
   20.2182   20.0514   21.9302 C   0  0  0  0  0  0  0  0  0  0  0  0
   21.1831   19.5941   22.1890 H   0  0  0  0  0  0  0  0  0  0  0  0
   20.4401   21.1052   21.7118 H   0  0  0  0  0  0  0  0  0  0  0  0
   19.2689   20.0198   23.1559 C   0  0  0  0  0  0  0  0  0  0  0  0
   18.3507   20.5753   22.9208 H   0  0  0  0  0  0  0  0  0  0  0  0
   19.7597   20.5677   23.9702 H   0  0  0  0  0  0  0  0  0  0  0  0
   18.8990   18.5956   23.6383 C   0  0  0  0  0  0  0  0  0  0  0  0
   18.3529   18.0780   22.8396 H   0  0  0  0  0  0  0  0  0  0  0  0
   19.8128   18.0131   23.8154 H   0  0  0  0  0  0  0  0  0  0  0  0
   18.0032   18.5798   24.9044 C   0  0  0  0  0  0  0  0  0  0  0  0
   17.7363   17.5382   25.1307 H   0  0  0  0  0  0  0  0  0  0  0  0
   17.0568   19.0920   24.6827 H   0  0  0  0  0  0  0  0  0  0  0  0
   18.6364   19.2159   26.1671 C   0  0  0  0  0  0  0  0  0  0  0  0
   18.7705   20.2949   26.0196 H   0  0  0  0  0  0  0  0  0  0  0  0
   17.9363   19.1068   27.0060 H   0  0  0  0  0  0  0  0  0  0  0  0
   19.9823   18.5723   26.5484 C   0  0  0  0  0  0  0  0  0  0  0  0
   20.7013   18.7130   25.7371 H   0  0  0  0  0  0  0  0  0  0  0  0
   19.8455   17.4992   26.7063 H   0  0  0  0  0  0  0  0  0  0  0  0
   20.5835   19.1585   27.8093 N   0  3  0  0  0  0  0  0  0  0  0  0
   20.7615   20.1639   27.7158 H   0  0  0  0  0  0  0  0  0  0  0  0
   21.4789   18.7167   28.0454 H   0  0  0  0  0  0  0  0  0  0  0  0
   19.9668   19.0349   28.6191 H   0  0  0  0  0  0  0  0  0  0  0  0
  1  2  1  0  0  0  0
  1  3  1  0  0  0  0
  1  4  1  0  0  0  0
  1  5  1  0  0  0  0
  5  6  1  0  0  0  0
  5  7  1  0  0  0  0
  5  8  1  0  0  0  0
  8  9  1  0  0  0  0
  8 10  1  0  0  0  0
  8 11  1  0  0  0  0
 11 12  1  0  0  0  0
 11 13  1  0  0  0  0
 11 14  1  0  0  0  0
 14 15  1  0  0  0  0
 14 16  1  0  0  0  0
 14 17  1  0  0  0  0
 17 18  1  0  0  0  0
 17 19  1  0  0  0  0
 17 20  1  0  0  0  0
 20 21  1  0  0  0  0
 20 22  1  0  0  0  0
 20 23  1  0  0  0  0
 23 24  1  0  0  0  0
 23 25  1  0  0  0  0
 23 26  1  0  0  0  0
 26 27  1  0  0  0  0
 26 28  1  0  0  0  0
 26 29  1  0  0  0  0
M  END
> <VM2 Rank>
359

> <Conf_Id>
266

> <Probability>
0.00

> <Sum Probability>
99.94

> <Delta G>
4.664

> <G>
62.812

> <E>
24.987

> <-TS>
37.825

> <U+W>
0.842

> <U>
52.892

> <W>
-52.050

> <W(PB)>
-54.499

> <W(SA)>
2.449

> <Valence>
6.463

> <Coulomb>
45.485

> <VdW>
0.944

> <VdW6>
-9.991

> <VdW12>
10.936

> <Bond>
0.305

> <Angle>
1.765

> <Pdih>
4.392

> <Idih>
0.000

> <Tether>
0.000

$$$$
VeraChem MOL file


 29 28  0  0  0  0  0  0  0  0999 V2000     
   20.9893   18.6868   20.7696 C   0  0  0  0  0  0  0  0  0  0  0  0
   21.6474   19.5651   20.7477 H   0  0  0  0  0  0  0  0  0  0  0  0
   21.2042   18.1175   21.6825 H   0  0  0  0  0  0  0  0  0  0  0  0
   21.2493   18.0500   19.9142 H   0  0  0  0  0  0  0  0  0  0  0  0
   19.5032   19.1048   20.7013 C   0  0  0  0  0  0  0  0  0  0  0  0
   18.8648   18.2127   20.7489 H   0  0  0  0  0  0  0  0  0  0  0  0
   19.3086   19.5587   19.7196 H   0  0  0  0  0  0  0  0  0  0  0  0
   19.0950   20.1185   21.8010 C   0  0  0  0  0  0  0  0  0  0  0  0
   19.6454   21.0551   21.6365 H   0  0  0  0  0  0  0  0  0  0  0  0
   18.0327   20.3690   21.6754 H   0  0  0  0  0  0  0  0  0  0  0  0
   19.3354   19.6561   23.2619 C   0  0  0  0  0  0  0  0  0  0  0  0
   19.0453   20.4847   23.9194 H   0  0  0  0  0  0  0  0  0  0  0  0
   20.4067   19.4860   23.4305 H   0  0  0  0  0  0  0  0  0  0  0  0
   18.5298   18.3934   23.6555 C   0  0  0  0  0  0  0  0  0  0  0  0
   17.4553   18.6068   23.5735 H   0  0  0  0  0  0  0  0  0  0  0  0
   18.7376   17.5889   22.9389 H   0  0  0  0  0  0  0  0  0  0  0  0
   18.8419   17.8465   25.0727 C   0  0  0  0  0  0  0  0  0  0  0  0
   19.8884   17.5199   25.1249 H   0  0  0  0  0  0  0  0  0  0  0  0
   18.2436   16.9354   25.2113 H   0  0  0  0  0  0  0  0  0  0  0  0
   18.5115   18.8157   26.2392 C   0  0  0  0  0  0  0  0  0  0  0  0
   17.6001   19.3809   26.0033 H   0  0  0  0  0  0  0  0  0  0  0  0
   18.2761   18.2267   27.1356 H   0  0  0  0  0  0  0  0  0  0  0  0
   19.6475   19.7975   26.5964 C   0  0  0  0  0  0  0  0  0  0  0  0
   19.2939   20.4931   27.3623 H   0  0  0  0  0  0  0  0  0  0  0  0
   19.9379   20.3793   25.7199 H   0  0  0  0  0  0  0  0  0  0  0  0
   20.8904   19.1186   27.1375 N   0  3  0  0  0  0  0  0  0  0  0  0
   20.6893   18.5775   27.9848 H   0  0  0  0  0  0  0  0  0  0  0  0
   21.6196   19.7977   27.3816 H   0  0  0  0  0  0  0  0  0  0  0  0
   21.2972   18.4722   26.4546 H   0  0  0  0  0  0  0  0  0  0  0  0
  1  2  1  0  0  0  0
  1  3  1  0  0  0  0
  1  4  1  0  0  0  0
  1  5  1  0  0  0  0
  5  6  1  0  0  0  0
  5  7  1  0  0  0  0
  5  8  1  0  0  0  0
  8  9  1  0  0  0  0
  8 10  1  0  0  0  0
  8 11  1  0  0  0  0
 11 12  1  0  0  0  0
 11 13  1  0  0  0  0
 11 14  1  0  0  0  0
 14 15  1  0  0  0  0
 14 16  1  0  0  0  0
 14 17  1  0  0  0  0
 17 18  1  0  0  0  0
 17 19  1  0  0  0  0
 17 20  1  0  0  0  0
 20 21  1  0  0  0  0
 20 22  1  0  0  0  0
 20 23  1  0  0  0  0
 23 24  1  0  0  0  0
 23 25  1  0  0  0  0
 23 26  1  0  0  0  0
 26 27  1  0  0  0  0
 26 28  1  0  0  0  0
 26 29  1  0  0  0  0
M  END
> <VM2 Rank>
360

> <Conf_Id>
2623

> <Probability>
0.00

> <Sum Probability>
99.95

> <Delta G>
4.709

> <G>
62.857

> <E>
24.891

> <-TS>
37.966

> <U+W>
0.747

> <U>
53.257

> <W>
-52.510

> <W(PB)>
-54.910

> <W(SA)>
2.400

> <Valence>
6.240

> <Coulomb>
46.087

> <VdW>
0.930

> <VdW6>
-10.705

> <VdW12>
11.635

> <Bond>
0.336

> <Angle>
2.087

> <Pdih>
3.818

> <Idih>
0.000

> <Tether>
0.000

$$$$
VeraChem MOL file


 29 28  0  0  0  0  0  0  0  0999 V2000     
   20.9566   18.7445   20.6808 C   0  0  0  0  0  0  0  0  0  0  0  0
   21.2288   18.0168   21.4553 H   0  0  0  0  0  0  0  0  0  0  0  0
   20.5366   18.1971   19.8272 H   0  0  0  0  0  0  0  0  0  0  0  0
   21.8807   19.2328   20.3456 H   0  0  0  0  0  0  0  0  0  0  0  0
   19.9539   19.7917   21.2156 C   0  0  0  0  0  0  0  0  0  0  0  0
   19.7939   20.5556   20.4420 H   0  0  0  0  0  0  0  0  0  0  0  0
   20.3906   20.3196   22.0740 H   0  0  0  0  0  0  0  0  0  0  0  0
   18.5814   19.1852   21.6024 C   0  0  0  0  0  0  0  0  0  0  0  0
   17.9090   19.9944   21.9157 H   0  0  0  0  0  0  0  0  0  0  0  0
   18.1198   18.7537   20.7037 H   0  0  0  0  0  0  0  0  0  0  0  0
   18.6280   18.0932   22.7055 C   0  0  0  0  0  0  0  0  0  0  0  0
   19.1368   17.2045   22.3088 H   0  0  0  0  0  0  0  0  0  0  0  0
   17.6007   17.7706   22.9237 H   0  0  0  0  0  0  0  0  0  0  0  0
   19.3157   18.5102   24.0316 C   0  0  0  0  0  0  0  0  0  0  0  0
   19.3112   17.6350   24.6920 H   0  0  0  0  0  0  0  0  0  0  0  0
   20.3694   18.7557   23.8456 H   0  0  0  0  0  0  0  0  0  0  0  0
   18.6157   19.6924   24.7473 C   0  0  0  0  0  0  0  0  0  0  0  0
   17.5852   19.4081   25.0011 H   0  0  0  0  0  0  0  0  0  0  0  0
   18.5388   20.5426   24.0577 H   0  0  0  0  0  0  0  0  0  0  0  0
   19.3431   20.1895   26.0227 C   0  0  0  0  0  0  0  0  0  0  0  0
   20.3550   20.5367   25.7747 H   0  0  0  0  0  0  0  0  0  0  0  0
   18.8047   21.0717   26.3936 H   0  0  0  0  0  0  0  0  0  0  0  0
   19.4031   19.1604   27.1704 C   0  0  0  0  0  0  0  0  0  0  0  0
   18.4634   18.6038   27.2200 H   0  0  0  0  0  0  0  0  0  0  0  0
   19.5336   19.6910   28.1175 H   0  0  0  0  0  0  0  0  0  0  0  0
   20.5465   18.1708   27.0587 N   0  3  0  0  0  0  0  0  0  0  0  0
   20.4942   17.6259   26.1934 H   0  0  0  0  0  0  0  0  0  0  0  0
   20.5491   17.5035   27.8380 H   0  0  0  0  0  0  0  0  0  0  0  0
   21.4571   18.6420   27.0656 H   0  0  0  0  0  0  0  0  0  0  0  0
  1  2  1  0  0  0  0
  1  3  1  0  0  0  0
  1  4  1  0  0  0  0
  1  5  1  0  0  0  0
  5  6  1  0  0  0  0
  5  7  1  0  0  0  0
  5  8  1  0  0  0  0
  8  9  1  0  0  0  0
  8 10  1  0  0  0  0
  8 11  1  0  0  0  0
 11 12  1  0  0  0  0
 11 13  1  0  0  0  0
 11 14  1  0  0  0  0
 14 15  1  0  0  0  0
 14 16  1  0  0  0  0
 14 17  1  0  0  0  0
 17 18  1  0  0  0  0
 17 19  1  0  0  0  0
 17 20  1  0  0  0  0
 20 21  1  0  0  0  0
 20 22  1  0  0  0  0
 20 23  1  0  0  0  0
 23 24  1  0  0  0  0
 23 25  1  0  0  0  0
 23 26  1  0  0  0  0
 26 27  1  0  0  0  0
 26 28  1  0  0  0  0
 26 29  1  0  0  0  0
M  END
> <VM2 Rank>
361

> <Conf_Id>
843

> <Probability>
0.00

> <Sum Probability>
99.95

> <Delta G>
4.712

> <G>
62.860

> <E>
24.807

> <-TS>
38.053

> <U+W>
0.663

> <U>
53.073

> <W>
-52.410

> <W(PB)>
-54.809

> <W(SA)>
2.398

> <Valence>
5.710

> <Coulomb>
46.606

> <VdW>
0.757

> <VdW6>
-10.974

> <VdW12>
11.731

> <Bond>
0.336

> <Angle>
2.045

> <Pdih>
3.329

> <Idih>
0.000

> <Tether>
0.000

$$$$
VeraChem MOL file


 29 28  0  0  0  0  0  0  0  0999 V2000     
   20.8696   18.5001   20.6754 C   0  0  0  0  0  0  0  0  0  0  0  0
   20.9022   19.2230   19.8500 H   0  0  0  0  0  0  0  0  0  0  0  0
   21.5296   18.8608   21.4742 H   0  0  0  0  0  0  0  0  0  0  0  0
   21.2816   17.5514   20.3082 H   0  0  0  0  0  0  0  0  0  0  0  0
   19.4233   18.3024   21.1824 C   0  0  0  0  0  0  0  0  0  0  0  0
   19.4158   17.5840   22.0130 H   0  0  0  0  0  0  0  0  0  0  0  0
   18.8273   17.8430   20.3816 H   0  0  0  0  0  0  0  0  0  0  0  0
   18.7378   19.6241   21.6123 C   0  0  0  0  0  0  0  0  0  0  0  0
   18.6657   20.2853   20.7379 H   0  0  0  0  0  0  0  0  0  0  0  0
   17.7009   19.4104   21.9026 H   0  0  0  0  0  0  0  0  0  0  0  0
   19.4485   20.3960   22.7570 C   0  0  0  0  0  0  0  0  0  0  0  0
   18.8534   21.2864   23.0022 H   0  0  0  0  0  0  0  0  0  0  0  0
   20.4101   20.7779   22.3887 H   0  0  0  0  0  0  0  0  0  0  0  0
   19.6990   19.5862   24.0557 C   0  0  0  0  0  0  0  0  0  0  0  0
   20.3630   18.7375   23.8453 H   0  0  0  0  0  0  0  0  0  0  0  0
   20.2393   20.2402   24.7503 H   0  0  0  0  0  0  0  0  0  0  0  0
   18.3993   19.0852   24.7337 C   0  0  0  0  0  0  0  0  0  0  0  0
   17.8122   18.5032   24.0121 H   0  0  0  0  0  0  0  0  0  0  0  0
   17.7770   19.9464   25.0131 H   0  0  0  0  0  0  0  0  0  0  0  0
   18.6307   18.1902   25.9780 C   0  0  0  0  0  0  0  0  0  0  0  0
   17.6506   17.8331   26.3212 H   0  0  0  0  0  0  0  0  0  0  0  0
   19.1987   17.2917   25.7022 H   0  0  0  0  0  0  0  0  0  0  0  0
   19.3114   18.9031   27.1646 C   0  0  0  0  0  0  0  0  0  0  0  0
   19.0639   18.3724   28.0880 H   0  0  0  0  0  0  0  0  0  0  0  0
   18.9345   19.9259   27.2496 H   0  0  0  0  0  0  0  0  0  0  0  0
   20.8244   18.9507   27.0760 N   0  3  0  0  0  0  0  0  0  0  0  0
   21.2321   18.0102   27.0512 H   0  0  0  0  0  0  0  0  0  0  0  0
   21.2372   19.4345   27.8810 H   0  0  0  0  0  0  0  0  0  0  0  0
   21.1404   19.4398   26.2338 H   0  0  0  0  0  0  0  0  0  0  0  0
  1  2  1  0  0  0  0
  1  3  1  0  0  0  0
  1  4  1  0  0  0  0
  1  5  1  0  0  0  0
  5  6  1  0  0  0  0
  5  7  1  0  0  0  0
  5  8  1  0  0  0  0
  8  9  1  0  0  0  0
  8 10  1  0  0  0  0
  8 11  1  0  0  0  0
 11 12  1  0  0  0  0
 11 13  1  0  0  0  0
 11 14  1  0  0  0  0
 14 15  1  0  0  0  0
 14 16  1  0  0  0  0
 14 17  1  0  0  0  0
 17 18  1  0  0  0  0
 17 19  1  0  0  0  0
 17 20  1  0  0  0  0
 20 21  1  0  0  0  0
 20 22  1  0  0  0  0
 20 23  1  0  0  0  0
 23 24  1  0  0  0  0
 23 25  1  0  0  0  0
 23 26  1  0  0  0  0
 26 27  1  0  0  0  0
 26 28  1  0  0  0  0
 26 29  1  0  0  0  0
M  END
> <VM2 Rank>
362

> <Conf_Id>
845

> <Probability>
0.00

> <Sum Probability>
99.95

> <Delta G>
4.715

> <G>
62.863

> <E>
24.810

> <-TS>
38.053

> <U+W>
0.665

> <U>
53.074

> <W>
-52.408

> <W(PB)>
-54.805

> <W(SA)>
2.397

> <Valence>
5.710

> <Coulomb>
46.607

> <VdW>
0.757

> <VdW6>
-10.975

> <VdW12>
11.732

> <Bond>
0.336

> <Angle>
2.046

> <Pdih>
3.328

> <Idih>
0.000

> <Tether>
0.000

$$$$
VeraChem MOL file


 29 28  0  0  0  0  0  0  0  0999 V2000     
   20.6637   19.0638   20.0609 C   0  0  0  0  0  0  0  0  0  0  0  0
   21.6583   19.1388   20.5194 H   0  0  0  0  0  0  0  0  0  0  0  0
   20.7910   18.6606   19.0479 H   0  0  0  0  0  0  0  0  0  0  0  0
   20.2528   20.0759   19.9624 H   0  0  0  0  0  0  0  0  0  0  0  0
   19.7357   18.1497   20.8930 C   0  0  0  0  0  0  0  0  0  0  0  0
   20.1255   17.1230   20.8520 H   0  0  0  0  0  0  0  0  0  0  0  0
   18.7376   18.1179   20.4343 H   0  0  0  0  0  0  0  0  0  0  0  0
   19.6177   18.5744   22.3769 C   0  0  0  0  0  0  0  0  0  0  0  0
   19.0673   17.7875   22.9078 H   0  0  0  0  0  0  0  0  0  0  0  0
   20.6188   18.6200   22.8270 H   0  0  0  0  0  0  0  0  0  0  0  0
   18.8884   19.9259   22.5765 C   0  0  0  0  0  0  0  0  0  0  0  0
   17.8664   19.8508   22.1804 H   0  0  0  0  0  0  0  0  0  0  0  0
   19.3890   20.7034   21.9857 H   0  0  0  0  0  0  0  0  0  0  0  0
   18.8368   20.4113   24.0482 C   0  0  0  0  0  0  0  0  0  0  0  0
   19.8550   20.5966   24.4137 H   0  0  0  0  0  0  0  0  0  0  0  0
   18.3405   21.3916   24.0536 H   0  0  0  0  0  0  0  0  0  0  0  0
   18.0617   19.4752   25.0152 C   0  0  0  0  0  0  0  0  0  0  0  0
   17.2966   18.9178   24.4576 H   0  0  0  0  0  0  0  0  0  0  0  0
   17.5089   20.0929   25.7367 H   0  0  0  0  0  0  0  0  0  0  0  0
   18.9531   18.4881   25.8105 C   0  0  0  0  0  0  0  0  0  0  0  0
   18.3052   17.7905   26.3576 H   0  0  0  0  0  0  0  0  0  0  0  0
   19.5599   17.8803   25.1299 H   0  0  0  0  0  0  0  0  0  0  0  0
   19.8732   19.2039   26.8174 C   0  0  0  0  0  0  0  0  0  0  0  0
   19.2697   19.7983   27.5086 H   0  0  0  0  0  0  0  0  0  0  0  0
   20.5527   19.8766   26.2882 H   0  0  0  0  0  0  0  0  0  0  0  0
   20.7136   18.2457   27.6364 N   0  3  0  0  0  0  0  0  0  0  0  0
   21.3261   17.6739   27.0455 H   0  0  0  0  0  0  0  0  0  0  0  0
   20.1333   17.6011   28.1834 H   0  0  0  0  0  0  0  0  0  0  0  0
   21.3173   18.7417   28.3014 H   0  0  0  0  0  0  0  0  0  0  0  0
  1  2  1  0  0  0  0
  1  3  1  0  0  0  0
  1  4  1  0  0  0  0
  1  5  1  0  0  0  0
  5  6  1  0  0  0  0
  5  7  1  0  0  0  0
  5  8  1  0  0  0  0
  8  9  1  0  0  0  0
  8 10  1  0  0  0  0
  8 11  1  0  0  0  0
 11 12  1  0  0  0  0
 11 13  1  0  0  0  0
 11 14  1  0  0  0  0
 14 15  1  0  0  0  0
 14 16  1  0  0  0  0
 14 17  1  0  0  0  0
 17 18  1  0  0  0  0
 17 19  1  0  0  0  0
 17 20  1  0  0  0  0
 20 21  1  0  0  0  0
 20 22  1  0  0  0  0
 20 23  1  0  0  0  0
 23 24  1  0  0  0  0
 23 25  1  0  0  0  0
 23 26  1  0  0  0  0
 26 27  1  0  0  0  0
 26 28  1  0  0  0  0
 26 29  1  0  0  0  0
M  END
> <VM2 Rank>
363

> <Conf_Id>
1337

> <Probability>
0.00

> <Sum Probability>
99.95

> <Delta G>
4.715

> <G>
62.863

> <E>
25.168

> <-TS>
37.696

> <U+W>
1.023

> <U>
53.294

> <W>
-52.271

> <W(PB)>
-54.757

> <W(SA)>
2.485

> <Valence>
6.666

> <Coulomb>
45.624

> <VdW>
1.005

> <VdW6>
-9.687

> <VdW12>
10.692

> <Bond>
0.305

> <Angle>
1.640

> <Pdih>
4.721

> <Idih>
0.000

> <Tether>
0.000

$$$$
VeraChem MOL file


 29 28  0  0  0  0  0  0  0  0999 V2000     
   20.2492   19.0214   20.0690 C   0  0  0  0  0  0  0  0  0  0  0  0
   19.2190   19.3651   19.9138 H   0  0  0  0  0  0  0  0  0  0  0  0
   20.8674   19.4657   19.2783 H   0  0  0  0  0  0  0  0  0  0  0  0
   20.2721   17.9314   19.9405 H   0  0  0  0  0  0  0  0  0  0  0  0
   20.7796   19.4279   21.4625 C   0  0  0  0  0  0  0  0  0  0  0  0
   20.7153   20.5189   21.5785 H   0  0  0  0  0  0  0  0  0  0  0  0
   21.8474   19.1749   21.5217 H   0  0  0  0  0  0  0  0  0  0  0  0
   20.0399   18.7334   22.6312 C   0  0  0  0  0  0  0  0  0  0  0  0
   20.1238   17.6437   22.5196 H   0  0  0  0  0  0  0  0  0  0  0  0
   20.5613   18.9854   23.5609 H   0  0  0  0  0  0  0  0  0  0  0  0
   18.5452   19.1310   22.7364 C   0  0  0  0  0  0  0  0  0  0  0  0
   18.0301   18.7888   21.8293 H   0  0  0  0  0  0  0  0  0  0  0  0
   18.4404   20.2244   22.7517 H   0  0  0  0  0  0  0  0  0  0  0  0
   17.8204   18.5089   23.9588 C   0  0  0  0  0  0  0  0  0  0  0  0
   16.7890   18.2797   23.6573 H   0  0  0  0  0  0  0  0  0  0  0  0
   18.2679   17.5404   24.2195 H   0  0  0  0  0  0  0  0  0  0  0  0
   17.7393   19.4316   25.2048 C   0  0  0  0  0  0  0  0  0  0  0  0
   17.1113   18.9420   25.9620 H   0  0  0  0  0  0  0  0  0  0  0  0
   17.2118   20.3559   24.9319 H   0  0  0  0  0  0  0  0  0  0  0  0
   19.0948   19.8014   25.8522 C   0  0  0  0  0  0  0  0  0  0  0  0
   19.7007   20.3842   25.1475 H   0  0  0  0  0  0  0  0  0  0  0  0
   18.9075   20.4599   26.7107 H   0  0  0  0  0  0  0  0  0  0  0  0
   19.8774   18.5653   26.3335 C   0  0  0  0  0  0  0  0  0  0  0  0
   20.0858   17.9062   25.4870 H   0  0  0  0  0  0  0  0  0  0  0  0
   19.2778   18.0112   27.0607 H   0  0  0  0  0  0  0  0  0  0  0  0
   21.1981   18.9172   26.9866 N   0  3  0  0  0  0  0  0  0  0  0  0
   21.8202   19.4201   26.3454 H   0  0  0  0  0  0  0  0  0  0  0  0
   21.7029   18.0806   27.2996 H   0  0  0  0  0  0  0  0  0  0  0  0
   21.0684   19.5130   27.8109 H   0  0  0  0  0  0  0  0  0  0  0  0
  1  2  1  0  0  0  0
  1  3  1  0  0  0  0
  1  4  1  0  0  0  0
  1  5  1  0  0  0  0
  5  6  1  0  0  0  0
  5  7  1  0  0  0  0
  5  8  1  0  0  0  0
  8  9  1  0  0  0  0
  8 10  1  0  0  0  0
  8 11  1  0  0  0  0
 11 12  1  0  0  0  0
 11 13  1  0  0  0  0
 11 14  1  0  0  0  0
 14 15  1  0  0  0  0
 14 16  1  0  0  0  0
 14 17  1  0  0  0  0
 17 18  1  0  0  0  0
 17 19  1  0  0  0  0
 17 20  1  0  0  0  0
 20 21  1  0  0  0  0
 20 22  1  0  0  0  0
 20 23  1  0  0  0  0
 23 24  1  0  0  0  0
 23 25  1  0  0  0  0
 23 26  1  0  0  0  0
 26 27  1  0  0  0  0
 26 28  1  0  0  0  0
 26 29  1  0  0  0  0
M  END
> <VM2 Rank>
364

> <Conf_Id>
1369

> <Probability>
0.00

> <Sum Probability>
99.95

> <Delta G>
4.759

> <G>
62.907

> <E>
24.856

> <-TS>
38.051

> <U+W>
0.712

> <U>
53.465

> <W>
-52.753

> <W(PB)>
-55.178

> <W(SA)>
2.425

> <Valence>
6.490

> <Coulomb>
46.407

> <VdW>
0.567

> <VdW6>
-10.393

> <VdW12>
10.961

> <Bond>
0.299

> <Angle>
1.747

> <Pdih>
4.444

> <Idih>
0.000

> <Tether>
0.000

$$$$
VeraChem MOL file


 29 28  0  0  0  0  0  0  0  0999 V2000     
   19.7027   19.1966   20.1513 C   0  0  0  0  0  0  0  0  0  0  0  0
   19.9321   18.1427   20.3519 H   0  0  0  0  0  0  0  0  0  0  0  0
   19.0374   19.2299   19.2789 H   0  0  0  0  0  0  0  0  0  0  0  0
   20.6364   19.7069   19.8819 H   0  0  0  0  0  0  0  0  0  0  0  0
   19.0328   19.8717   21.3692 C   0  0  0  0  0  0  0  0  0  0  0  0
   18.1112   19.3345   21.6300 H   0  0  0  0  0  0  0  0  0  0  0  0
   18.7200   20.8856   21.0833 H   0  0  0  0  0  0  0  0  0  0  0  0
   19.9619   19.9720   22.6053 C   0  0  0  0  0  0  0  0  0  0  0  0
   20.8304   20.5927   22.3458 H   0  0  0  0  0  0  0  0  0  0  0  0
   19.4356   20.5184   23.3980 H   0  0  0  0  0  0  0  0  0  0  0  0
   20.4716   18.6135   23.1582 C   0  0  0  0  0  0  0  0  0  0  0  0
   21.1287   18.7939   24.0177 H   0  0  0  0  0  0  0  0  0  0  0  0
   21.1171   18.1410   22.4061 H   0  0  0  0  0  0  0  0  0  0  0  0
   19.3626   17.6056   23.5586 C   0  0  0  0  0  0  0  0  0  0  0  0
   18.8184   17.3001   22.6551 H   0  0  0  0  0  0  0  0  0  0  0  0
   19.8401   16.6895   23.9324 H   0  0  0  0  0  0  0  0  0  0  0  0
   18.3337   18.0993   24.6114 C   0  0  0  0  0  0  0  0  0  0  0  0
   17.5681   17.3173   24.7093 H   0  0  0  0  0  0  0  0  0  0  0  0
   17.7989   18.9865   24.2472 H   0  0  0  0  0  0  0  0  0  0  0  0
   18.9191   18.3649   26.0215 C   0  0  0  0  0  0  0  0  0  0  0  0
   18.1134   18.2509   26.7590 H   0  0  0  0  0  0  0  0  0  0  0  0
   19.6722   17.6041   26.2659 H   0  0  0  0  0  0  0  0  0  0  0  0
   19.5161   19.7756   26.1820 C   0  0  0  0  0  0  0  0  0  0  0  0
   18.7494   20.5244   25.9657 H   0  0  0  0  0  0  0  0  0  0  0  0
   20.3411   19.9191   25.4824 H   0  0  0  0  0  0  0  0  0  0  0  0
   20.0435   20.0388   27.5775 N   0  3  0  0  0  0  0  0  0  0  0  0
   19.3076   19.9519   28.2862 H   0  0  0  0  0  0  0  0  0  0  0  0
   20.4336   20.9836   27.6658 H   0  0  0  0  0  0  0  0  0  0  0  0
   20.7884   19.3824   27.8339 H   0  0  0  0  0  0  0  0  0  0  0  0
  1  2  1  0  0  0  0
  1  3  1  0  0  0  0
  1  4  1  0  0  0  0
  1  5  1  0  0  0  0
  5  6  1  0  0  0  0
  5  7  1  0  0  0  0
  5  8  1  0  0  0  0
  8  9  1  0  0  0  0
  8 10  1  0  0  0  0
  8 11  1  0  0  0  0
 11 12  1  0  0  0  0
 11 13  1  0  0  0  0
 11 14  1  0  0  0  0
 14 15  1  0  0  0  0
 14 16  1  0  0  0  0
 14 17  1  0  0  0  0
 17 18  1  0  0  0  0
 17 19  1  0  0  0  0
 17 20  1  0  0  0  0
 20 21  1  0  0  0  0
 20 22  1  0  0  0  0
 20 23  1  0  0  0  0
 23 24  1  0  0  0  0
 23 25  1  0  0  0  0
 23 26  1  0  0  0  0
 26 27  1  0  0  0  0
 26 28  1  0  0  0  0
 26 29  1  0  0  0  0
M  END
> <VM2 Rank>
365

> <Conf_Id>
1287

> <Probability>
0.00

> <Sum Probability>
99.96

> <Delta G>
4.770

> <G>
62.918

> <E>
24.347

> <-TS>
38.571

> <U+W>
0.202

> <U>
52.862

> <W>
-52.660

> <W(PB)>
-55.038

> <W(SA)>
2.379

> <Valence>
6.386

> <Coulomb>
46.094

> <VdW>
0.382

> <VdW6>
-11.635

> <VdW12>
12.017

> <Bond>
0.346

> <Angle>
2.394

> <Pdih>
3.645

> <Idih>
0.000

> <Tether>
0.000

$$$$
VeraChem MOL file


 29 28  0  0  0  0  0  0  0  0999 V2000     
   20.1546   18.7567   20.0631 C   0  0  0  0  0  0  0  0  0  0  0  0
   20.8634   19.5905   19.9772 H   0  0  0  0  0  0  0  0  0  0  0  0
   20.3634   18.0531   19.2468 H   0  0  0  0  0  0  0  0  0  0  0  0
   19.1415   19.1485   19.9091 H   0  0  0  0  0  0  0  0  0  0  0  0
   20.2889   18.0518   21.4319 C   0  0  0  0  0  0  0  0  0  0  0  0
   21.2751   17.5699   21.4859 H   0  0  0  0  0  0  0  0  0  0  0  0
   19.5476   17.2440   21.5058 H   0  0  0  0  0  0  0  0  0  0  0  0
   20.1390   19.0109   22.6373 C   0  0  0  0  0  0  0  0  0  0  0  0
   20.3704   18.4495   23.5490 H   0  0  0  0  0  0  0  0  0  0  0  0
   20.8947   19.8052   22.5676 H   0  0  0  0  0  0  0  0  0  0  0  0
   18.7285   19.6445   22.7479 C   0  0  0  0  0  0  0  0  0  0  0  0
   17.9555   18.8644   22.7213 H   0  0  0  0  0  0  0  0  0  0  0  0
   18.5587   20.2710   21.8625 H   0  0  0  0  0  0  0  0  0  0  0  0
   18.5434   20.5357   24.0041 C   0  0  0  0  0  0  0  0  0  0  0  0
   19.4988   20.9914   24.2967 H   0  0  0  0  0  0  0  0  0  0  0  0
   17.8939   21.3774   23.7265 H   0  0  0  0  0  0  0  0  0  0  0  0
   17.8792   19.8239   25.2135 C   0  0  0  0  0  0  0  0  0  0  0  0
   16.8899   19.4534   24.9116 H   0  0  0  0  0  0  0  0  0  0  0  0
   17.6919   20.5698   25.9983 H   0  0  0  0  0  0  0  0  0  0  0  0
   18.6859   18.6547   25.8265 C   0  0  0  0  0  0  0  0  0  0  0  0
   18.1120   18.2296   26.6606 H   0  0  0  0  0  0  0  0  0  0  0  0
   18.7965   17.8486   25.0906 H   0  0  0  0  0  0  0  0  0  0  0  0
   20.0668   19.0967   26.3455 C   0  0  0  0  0  0  0  0  0  0  0  0
   19.9426   19.8756   27.1026 H   0  0  0  0  0  0  0  0  0  0  0  0
   20.6572   19.5084   25.5230 H   0  0  0  0  0  0  0  0  0  0  0  0
   20.8578   17.9631   26.9652 N   0  3  0  0  0  0  0  0  0  0  0  0
   20.3688   17.5515   27.7671 H   0  0  0  0  0  0  0  0  0  0  0  0
   21.7734   18.2785   27.3041 H   0  0  0  0  0  0  0  0  0  0  0  0
   21.0305   17.2061   26.2958 H   0  0  0  0  0  0  0  0  0  0  0  0
  1  2  1  0  0  0  0
  1  3  1  0  0  0  0
  1  4  1  0  0  0  0
  1  5  1  0  0  0  0
  5  6  1  0  0  0  0
  5  7  1  0  0  0  0
  5  8  1  0  0  0  0
  8  9  1  0  0  0  0
  8 10  1  0  0  0  0
  8 11  1  0  0  0  0
 11 12  1  0  0  0  0
 11 13  1  0  0  0  0
 11 14  1  0  0  0  0
 14 15  1  0  0  0  0
 14 16  1  0  0  0  0
 14 17  1  0  0  0  0
 17 18  1  0  0  0  0
 17 19  1  0  0  0  0
 17 20  1  0  0  0  0
 20 21  1  0  0  0  0
 20 22  1  0  0  0  0
 20 23  1  0  0  0  0
 23 24  1  0  0  0  0
 23 25  1  0  0  0  0
 23 26  1  0  0  0  0
 26 27  1  0  0  0  0
 26 28  1  0  0  0  0
 26 29  1  0  0  0  0
M  END
> <VM2 Rank>
366

> <Conf_Id>
1348

> <Probability>
0.00

> <Sum Probability>
99.96

> <Delta G>
4.771

> <G>
62.919

> <E>
24.868

> <-TS>
38.051

> <U+W>
0.724

> <U>
53.465

> <W>
-52.741

> <W(PB)>
-55.177

> <W(SA)>
2.436

> <Valence>
6.490

> <Coulomb>
46.407

> <VdW>
0.567

> <VdW6>
-10.393

> <VdW12>
10.960

> <Bond>
0.299

> <Angle>
1.747

> <Pdih>
4.445

> <Idih>
0.000

> <Tether>
0.000

$$$$
VeraChem MOL file


 29 28  0  0  0  0  0  0  0  0999 V2000     
   19.6200   18.9640   20.1461 C   0  0  0  0  0  0  0  0  0  0  0  0
   20.0256   17.9899   19.8436 H   0  0  0  0  0  0  0  0  0  0  0  0
   19.0953   19.3927   19.2825 H   0  0  0  0  0  0  0  0  0  0  0  0
   20.4604   19.6274   20.3850 H   0  0  0  0  0  0  0  0  0  0  0  0
   18.6571   18.8158   21.3456 C   0  0  0  0  0  0  0  0  0  0  0  0
   17.7785   18.2394   21.0242 H   0  0  0  0  0  0  0  0  0  0  0  0
   18.2781   19.8034   21.6405 H   0  0  0  0  0  0  0  0  0  0  0  0
   19.2968   18.1026   22.5636 C   0  0  0  0  0  0  0  0  0  0  0  0
   18.5325   17.9803   23.3413 H   0  0  0  0  0  0  0  0  0  0  0  0
   19.5820   17.0838   22.2675 H   0  0  0  0  0  0  0  0  0  0  0  0
   20.5419   18.8111   23.1626 C   0  0  0  0  0  0  0  0  0  0  0  0
   21.3513   18.7992   22.4208 H   0  0  0  0  0  0  0  0  0  0  0  0
   20.9254   18.2224   24.0049 H   0  0  0  0  0  0  0  0  0  0  0  0
   20.3126   20.2760   23.6182 C   0  0  0  0  0  0  0  0  0  0  0  0
   21.2560   20.6693   24.0212 H   0  0  0  0  0  0  0  0  0  0  0  0
   20.0963   20.8920   22.7353 H   0  0  0  0  0  0  0  0  0  0  0  0
   19.1883   20.5015   24.6650 C   0  0  0  0  0  0  0  0  0  0  0  0
   18.2186   20.1664   24.2736 H   0  0  0  0  0  0  0  0  0  0  0  0
   19.0870   21.5866   24.8047 H   0  0  0  0  0  0  0  0  0  0  0  0
   19.4548   19.8703   26.0552 C   0  0  0  0  0  0  0  0  0  0  0  0
   20.5156   19.9744   26.3188 H   0  0  0  0  0  0  0  0  0  0  0  0
   18.8917   20.4381   26.8078 H   0  0  0  0  0  0  0  0  0  0  0  0
   19.0247   18.3944   26.1512 C   0  0  0  0  0  0  0  0  0  0  0  0
   19.5837   17.7902   25.4349 H   0  0  0  0  0  0  0  0  0  0  0  0
   17.9605   18.3072   25.9163 H   0  0  0  0  0  0  0  0  0  0  0  0
   19.2479   17.8024   27.5276 N   0  3  0  0  0  0  0  0  0  0  0  0
   18.9525   16.8209   27.5730 H   0  0  0  0  0  0  0  0  0  0  0  0
   18.7221   18.3062   28.2494 H   0  0  0  0  0  0  0  0  0  0  0  0
   20.2362   17.8303   27.7992 H   0  0  0  0  0  0  0  0  0  0  0  0
  1  2  1  0  0  0  0
  1  3  1  0  0  0  0
  1  4  1  0  0  0  0
  1  5  1  0  0  0  0
  5  6  1  0  0  0  0
  5  7  1  0  0  0  0
  5  8  1  0  0  0  0
  8  9  1  0  0  0  0
  8 10  1  0  0  0  0
  8 11  1  0  0  0  0
 11 12  1  0  0  0  0
 11 13  1  0  0  0  0
 11 14  1  0  0  0  0
 14 15  1  0  0  0  0
 14 16  1  0  0  0  0
 14 17  1  0  0  0  0
 17 18  1  0  0  0  0
 17 19  1  0  0  0  0
 17 20  1  0  0  0  0
 20 21  1  0  0  0  0
 20 22  1  0  0  0  0
 20 23  1  0  0  0  0
 23 24  1  0  0  0  0
 23 25  1  0  0  0  0
 23 26  1  0  0  0  0
 26 27  1  0  0  0  0
 26 28  1  0  0  0  0
 26 29  1  0  0  0  0
M  END
> <VM2 Rank>
367

> <Conf_Id>
619

> <Probability>
0.00

> <Sum Probability>
99.96

> <Delta G>
4.772

> <G>
62.920

> <E>
24.349

> <-TS>
38.572

> <U+W>
0.204

> <U>
52.862

> <W>
-52.658

> <W(PB)>
-55.034

> <W(SA)>
2.376

> <Valence>
6.386

> <Coulomb>
46.094

> <VdW>
0.382

> <VdW6>
-11.635

> <VdW12>
12.017

> <Bond>
0.346

> <Angle>
2.394

> <Pdih>
3.645

> <Idih>
0.000

> <Tether>
0.000

$$$$
VeraChem MOL file


 29 28  0  0  0  0  0  0  0  0999 V2000     
   20.6938   17.9341   21.0049 C   0  0  0  0  0  0  0  0  0  0  0  0
   21.0859   18.5404   20.1780 H   0  0  0  0  0  0  0  0  0  0  0  0
   21.2776   18.1691   21.9015 H   0  0  0  0  0  0  0  0  0  0  0  0
   20.8734   16.8796   20.7587 H   0  0  0  0  0  0  0  0  0  0  0  0
   19.1827   18.1914   21.2091 C   0  0  0  0  0  0  0  0  0  0  0  0
   18.7859   17.5327   21.9941 H   0  0  0  0  0  0  0  0  0  0  0  0
   18.6633   17.9057   20.2837 H   0  0  0  0  0  0  0  0  0  0  0  0
   18.8462   19.6713   21.5263 C   0  0  0  0  0  0  0  0  0  0  0  0
   19.5802   20.3386   21.0540 H   0  0  0  0  0  0  0  0  0  0  0  0
   17.8829   19.9107   21.0550 H   0  0  0  0  0  0  0  0  0  0  0  0
   18.7195   19.9996   23.0362 C   0  0  0  0  0  0  0  0  0  0  0  0
   17.9144   19.3902   23.4676 H   0  0  0  0  0  0  0  0  0  0  0  0
   18.4006   21.0462   23.1358 H   0  0  0  0  0  0  0  0  0  0  0  0
   20.0238   19.7928   23.8436 C   0  0  0  0  0  0  0  0  0  0  0  0
   20.2740   18.7253   23.8779 H   0  0  0  0  0  0  0  0  0  0  0  0
   20.8523   20.2900   23.3208 H   0  0  0  0  0  0  0  0  0  0  0  0
   19.9477   20.3521   25.2875 C   0  0  0  0  0  0  0  0  0  0  0  0
   19.7953   21.4393   25.2436 H   0  0  0  0  0  0  0  0  0  0  0  0
   20.9210   20.2084   25.7754 H   0  0  0  0  0  0  0  0  0  0  0  0
   18.8350   19.7264   26.1689 C   0  0  0  0  0  0  0  0  0  0  0  0
   18.8910   20.1544   27.1786 H   0  0  0  0  0  0  0  0  0  0  0  0
   17.8502   20.0111   25.7769 H   0  0  0  0  0  0  0  0  0  0  0  0
   18.9053   18.1894   26.2679 C   0  0  0  0  0  0  0  0  0  0  0  0
   18.8148   17.7511   25.2706 H   0  0  0  0  0  0  0  0  0  0  0  0
   18.0731   17.8255   26.8765 H   0  0  0  0  0  0  0  0  0  0  0  0
   20.1901   17.6808   26.8906 N   0  3  0  0  0  0  0  0  0  0  0  0
   21.0108   17.9701   26.3494 H   0  0  0  0  0  0  0  0  0  0  0  0
   20.2084   16.6566   26.9451 H   0  0  0  0  0  0  0  0  0  0  0  0
   20.3155   18.0348   27.8446 H   0  0  0  0  0  0  0  0  0  0  0  0
  1  2  1  0  0  0  0
  1  3  1  0  0  0  0
  1  4  1  0  0  0  0
  1  5  1  0  0  0  0
  5  6  1  0  0  0  0
  5  7  1  0  0  0  0
  5  8  1  0  0  0  0
  8  9  1  0  0  0  0
  8 10  1  0  0  0  0
  8 11  1  0  0  0  0
 11 12  1  0  0  0  0
 11 13  1  0  0  0  0
 11 14  1  0  0  0  0
 14 15  1  0  0  0  0
 14 16  1  0  0  0  0
 14 17  1  0  0  0  0
 17 18  1  0  0  0  0
 17 19  1  0  0  0  0
 17 20  1  0  0  0  0
 20 21  1  0  0  0  0
 20 22  1  0  0  0  0
 20 23  1  0  0  0  0
 23 24  1  0  0  0  0
 23 25  1  0  0  0  0
 23 26  1  0  0  0  0
 26 27  1  0  0  0  0
 26 28  1  0  0  0  0
 26 29  1  0  0  0  0
M  END
> <VM2 Rank>
368

> <Conf_Id>
1358

> <Probability>
0.00

> <Sum Probability>
99.96

> <Delta G>
4.809

> <G>
62.957

> <E>
24.875

> <-TS>
38.083

> <U+W>
0.730

> <U>
53.143

> <W>
-52.413

> <W(PB)>
-54.810

> <W(SA)>
2.396

> <Valence>
6.377

> <Coulomb>
46.006

> <VdW>
0.760

> <VdW6>
-10.915

> <VdW12>
11.675

> <Bond>
0.319

> <Angle>
1.678

> <Pdih>
4.381

> <Idih>
0.000

> <Tether>
0.000

$$$$
VeraChem MOL file


 29 28  0  0  0  0  0  0  0  0999 V2000     
   18.4027   18.9074   20.0895 C   0  0  0  0  0  0  0  0  0  0  0  0
   18.8887   19.4269   19.2535 H   0  0  0  0  0  0  0  0  0  0  0  0
   17.7387   18.1422   19.6670 H   0  0  0  0  0  0  0  0  0  0  0  0
   17.7747   19.6312   20.6228 H   0  0  0  0  0  0  0  0  0  0  0  0
   19.4495   18.2583   21.0237 C   0  0  0  0  0  0  0  0  0  0  0  0
   19.9860   17.4827   20.4595 H   0  0  0  0  0  0  0  0  0  0  0  0
   18.9370   17.7395   21.8429 H   0  0  0  0  0  0  0  0  0  0  0  0
   20.4850   19.2715   21.5761 C   0  0  0  0  0  0  0  0  0  0  0  0
   21.3340   18.7286   22.0136 H   0  0  0  0  0  0  0  0  0  0  0  0
   20.9021   19.8327   20.7286 H   0  0  0  0  0  0  0  0  0  0  0  0
   19.9225   20.2787   22.6159 C   0  0  0  0  0  0  0  0  0  0  0  0
   18.8561   20.4677   22.4416 H   0  0  0  0  0  0  0  0  0  0  0  0
   20.4214   21.2448   22.4576 H   0  0  0  0  0  0  0  0  0  0  0  0
   20.1481   19.8758   24.0961 C   0  0  0  0  0  0  0  0  0  0  0  0
   21.2262   19.7945   24.2915 H   0  0  0  0  0  0  0  0  0  0  0  0
   19.7844   20.6971   24.7272 H   0  0  0  0  0  0  0  0  0  0  0  0
   19.4495   18.5566   24.5083 C   0  0  0  0  0  0  0  0  0  0  0  0
   19.8788   17.7249   23.9351 H   0  0  0  0  0  0  0  0  0  0  0  0
   18.3825   18.6032   24.2504 H   0  0  0  0  0  0  0  0  0  0  0  0
   19.6038   18.2318   26.0128 C   0  0  0  0  0  0  0  0  0  0  0  0
   19.1913   17.2323   26.2043 H   0  0  0  0  0  0  0  0  0  0  0  0
   20.6696   18.1874   26.2738 H   0  0  0  0  0  0  0  0  0  0  0  0
   18.8889   19.2504   26.9203 C   0  0  0  0  0  0  0  0  0  0  0  0
   17.8281   19.2949   26.6591 H   0  0  0  0  0  0  0  0  0  0  0  0
   19.3214   20.2437   26.7766 H   0  0  0  0  0  0  0  0  0  0  0  0
   18.9940   18.9075   28.3922 N   0  3  0  0  0  0  0  0  0  0  0  0
   18.5118   19.5969   28.9794 H   0  0  0  0  0  0  0  0  0  0  0  0
   19.9690   18.8756   28.7080 H   0  0  0  0  0  0  0  0  0  0  0  0
   18.5785   17.9938   28.6019 H   0  0  0  0  0  0  0  0  0  0  0  0
  1  2  1  0  0  0  0
  1  3  1  0  0  0  0
  1  4  1  0  0  0  0
  1  5  1  0  0  0  0
  5  6  1  0  0  0  0
  5  7  1  0  0  0  0
  5  8  1  0  0  0  0
  8  9  1  0  0  0  0
  8 10  1  0  0  0  0
  8 11  1  0  0  0  0
 11 12  1  0  0  0  0
 11 13  1  0  0  0  0
 11 14  1  0  0  0  0
 14 15  1  0  0  0  0
 14 16  1  0  0  0  0
 14 17  1  0  0  0  0
 17 18  1  0  0  0  0
 17 19  1  0  0  0  0
 17 20  1  0  0  0  0
 20 21  1  0  0  0  0
 20 22  1  0  0  0  0
 20 23  1  0  0  0  0
 23 24  1  0  0  0  0
 23 25  1  0  0  0  0
 23 26  1  0  0  0  0
 26 27  1  0  0  0  0
 26 28  1  0  0  0  0
 26 29  1  0  0  0  0
M  END
> <VM2 Rank>
369

> <Conf_Id>
2320

> <Probability>
0.00

> <Sum Probability>
99.96

> <Delta G>
4.819

> <G>
62.967

> <E>
25.261

> <-TS>
37.706

> <U+W>
1.117

> <U>
52.775

> <W>
-51.658

> <W(PB)>
-54.119

> <W(SA)>
2.461

> <Valence>
6.696

> <Coulomb>
45.042

> <VdW>
1.037

> <VdW6>
-9.629

> <VdW12>
10.666

> <Bond>
0.304

> <Angle>
1.590

> <Pdih>
4.802

> <Idih>
0.000

> <Tether>
0.000

$$$$
VeraChem MOL file


 29 28  0  0  0  0  0  0  0  0999 V2000     
   20.4500   18.4624   20.0481 C   0  0  0  0  0  0  0  0  0  0  0  0
   19.4933   17.9428   19.9152 H   0  0  0  0  0  0  0  0  0  0  0  0
   20.8182   18.7338   19.0502 H   0  0  0  0  0  0  0  0  0  0  0  0
   21.1665   17.7576   20.4896 H   0  0  0  0  0  0  0  0  0  0  0  0
   20.2968   19.7237   20.9284 C   0  0  0  0  0  0  0  0  0  0  0  0
   19.5501   20.3972   20.4850 H   0  0  0  0  0  0  0  0  0  0  0  0
   21.2483   20.2736   20.9226 H   0  0  0  0  0  0  0  0  0  0  0  0
   19.9156   19.4112   22.3957 C   0  0  0  0  0  0  0  0  0  0  0  0
   20.6559   18.7253   22.8298 H   0  0  0  0  0  0  0  0  0  0  0  0
   19.9790   20.3472   22.9649 H   0  0  0  0  0  0  0  0  0  0  0  0
   18.4934   18.8185   22.5518 C   0  0  0  0  0  0  0  0  0  0  0  0
   18.3981   17.9239   21.9236 H   0  0  0  0  0  0  0  0  0  0  0  0
   17.7548   19.5384   22.1734 H   0  0  0  0  0  0  0  0  0  0  0  0
   18.1257   18.4172   24.0036 C   0  0  0  0  0  0  0  0  0  0  0  0
   17.1213   17.9723   23.9771 H   0  0  0  0  0  0  0  0  0  0  0  0
   18.7920   17.6155   24.3470 H   0  0  0  0  0  0  0  0  0  0  0  0
   18.1034   19.5931   25.0180 C   0  0  0  0  0  0  0  0  0  0  0  0
   17.2746   19.4357   25.7223 H   0  0  0  0  0  0  0  0  0  0  0  0
   17.8707   20.5302   24.4939 H   0  0  0  0  0  0  0  0  0  0  0  0
   19.4069   19.7618   25.8389 C   0  0  0  0  0  0  0  0  0  0  0  0
   20.2707   19.8760   25.1743 H   0  0  0  0  0  0  0  0  0  0  0  0
   19.3381   20.6894   26.4226 H   0  0  0  0  0  0  0  0  0  0  0  0
   19.6534   18.5861   26.8032 C   0  0  0  0  0  0  0  0  0  0  0  0
   19.7622   17.6573   26.2378 H   0  0  0  0  0  0  0  0  0  0  0  0
   18.8005   18.4799   27.4789 H   0  0  0  0  0  0  0  0  0  0  0  0
   20.8987   18.7640   27.6473 N   0  3  0  0  0  0  0  0  0  0  0  0
   21.0439   17.9720   28.2833 H   0  0  0  0  0  0  0  0  0  0  0  0
   20.8489   19.6077   28.2279 H   0  0  0  0  0  0  0  0  0  0  0  0
   21.7429   18.8431   27.0708 H   0  0  0  0  0  0  0  0  0  0  0  0
  1  2  1  0  0  0  0
  1  3  1  0  0  0  0
  1  4  1  0  0  0  0
  1  5  1  0  0  0  0
  5  6  1  0  0  0  0
  5  7  1  0  0  0  0
  5  8  1  0  0  0  0
  8  9  1  0  0  0  0
  8 10  1  0  0  0  0
  8 11  1  0  0  0  0
 11 12  1  0  0  0  0
 11 13  1  0  0  0  0
 11 14  1  0  0  0  0
 14 15  1  0  0  0  0
 14 16  1  0  0  0  0
 14 17  1  0  0  0  0
 17 18  1  0  0  0  0
 17 19  1  0  0  0  0
 17 20  1  0  0  0  0
 20 21  1  0  0  0  0
 20 22  1  0  0  0  0
 20 23  1  0  0  0  0
 23 24  1  0  0  0  0
 23 25  1  0  0  0  0
 23 26  1  0  0  0  0
 26 27  1  0  0  0  0
 26 28  1  0  0  0  0
 26 29  1  0  0  0  0
M  END
> <VM2 Rank>
370

> <Conf_Id>
307

> <Probability>
0.00

> <Sum Probability>
99.96

> <Delta G>
4.834

> <G>
62.982

> <E>
25.286

> <-TS>
37.696

> <U+W>
1.142

> <U>
53.295

> <W>
-52.153

> <W(PB)>
-54.639

> <W(SA)>
2.485

> <Valence>
6.665

> <Coulomb>
45.625

> <VdW>
1.005

> <VdW6>
-9.688

> <VdW12>
10.693

> <Bond>
0.305

> <Angle>
1.641

> <Pdih>
4.720

> <Idih>
0.000

> <Tether>
0.000

$$$$
VeraChem MOL file


 29 28  0  0  0  0  0  0  0  0999 V2000     
   20.9026   17.8449   20.7805 C   0  0  0  0  0  0  0  0  0  0  0  0
   20.4591   17.9292   19.7797 H   0  0  0  0  0  0  0  0  0  0  0  0
   21.8263   18.4379   20.7962 H   0  0  0  0  0  0  0  0  0  0  0  0
   21.1740   16.7934   20.9408 H   0  0  0  0  0  0  0  0  0  0  0  0
   19.9171   18.3251   21.8667 C   0  0  0  0  0  0  0  0  0  0  0  0
   20.3840   18.1898   22.8501 H   0  0  0  0  0  0  0  0  0  0  0  0
   19.0151   17.6978   21.8442 H   0  0  0  0  0  0  0  0  0  0  0  0
   19.5295   19.8080   21.6698 C   0  0  0  0  0  0  0  0  0  0  0  0
   20.4228   20.4371   21.7858 H   0  0  0  0  0  0  0  0  0  0  0  0
   19.1870   19.9523   20.6358 H   0  0  0  0  0  0  0  0  0  0  0  0
   18.4161   20.3123   22.6239 C   0  0  0  0  0  0  0  0  0  0  0  0
   17.4842   19.7596   22.4418 H   0  0  0  0  0  0  0  0  0  0  0  0
   18.1982   21.3547   22.3532 H   0  0  0  0  0  0  0  0  0  0  0  0
   18.7823   20.2727   24.1306 C   0  0  0  0  0  0  0  0  0  0  0  0
   19.8672   20.3899   24.2517 H   0  0  0  0  0  0  0  0  0  0  0  0
   18.3266   21.1447   24.6197 H   0  0  0  0  0  0  0  0  0  0  0  0
   18.2768   18.9978   24.8540 C   0  0  0  0  0  0  0  0  0  0  0  0
   18.7052   18.0971   24.4001 H   0  0  0  0  0  0  0  0  0  0  0  0
   17.1901   18.9162   24.7144 H   0  0  0  0  0  0  0  0  0  0  0  0
   18.5731   19.0062   26.3746 C   0  0  0  0  0  0  0  0  0  0  0  0
   18.0637   19.8617   26.8376 H   0  0  0  0  0  0  0  0  0  0  0  0
   18.1403   18.1076   26.8339 H   0  0  0  0  0  0  0  0  0  0  0  0
   20.0738   19.0772   26.7220 C   0  0  0  0  0  0  0  0  0  0  0  0
   20.1929   19.1155   27.8082 H   0  0  0  0  0  0  0  0  0  0  0  0
   20.5092   19.9870   26.3010 H   0  0  0  0  0  0  0  0  0  0  0  0
   20.8725   17.8939   26.2130 N   0  3  0  0  0  0  0  0  0  0  0  0
   20.5274   17.0091   26.5996 H   0  0  0  0  0  0  0  0  0  0  0  0
   21.8638   17.9663   26.4679 H   0  0  0  0  0  0  0  0  0  0  0  0
   20.8264   17.8196   25.1925 H   0  0  0  0  0  0  0  0  0  0  0  0
  1  2  1  0  0  0  0
  1  3  1  0  0  0  0
  1  4  1  0  0  0  0
  1  5  1  0  0  0  0
  5  6  1  0  0  0  0
  5  7  1  0  0  0  0
  5  8  1  0  0  0  0
  8  9  1  0  0  0  0
  8 10  1  0  0  0  0
  8 11  1  0  0  0  0
 11 12  1  0  0  0  0
 11 13  1  0  0  0  0
 11 14  1  0  0  0  0
 14 15  1  0  0  0  0
 14 16  1  0  0  0  0
 14 17  1  0  0  0  0
 17 18  1  0  0  0  0
 17 19  1  0  0  0  0
 17 20  1  0  0  0  0
 20 21  1  0  0  0  0
 20 22  1  0  0  0  0
 20 23  1  0  0  0  0
 23 24  1  0  0  0  0
 23 25  1  0  0  0  0
 23 26  1  0  0  0  0
 26 27  1  0  0  0  0
 26 28  1  0  0  0  0
 26 29  1  0  0  0  0
M  END
> <VM2 Rank>
371

> <Conf_Id>
1030

> <Probability>
0.00

> <Sum Probability>
99.97

> <Delta G>
4.845

> <G>
62.993

> <E>
25.221

> <-TS>
37.772

> <U+W>
1.076

> <U>
53.626

> <W>
-52.550

> <W(PB)>
-54.997

> <W(SA)>
2.447

> <Valence>
6.009

> <Coulomb>
47.033

> <VdW>
0.585

> <VdW6>
-10.174

> <VdW12>
10.758

> <Bond>
0.284

> <Angle>
1.441

> <Pdih>
4.284

> <Idih>
0.000

> <Tether>
0.000

$$$$
VeraChem MOL file


 29 28  0  0  0  0  0  0  0  0999 V2000     
   20.1931   18.1977   20.4784 C   0  0  0  0  0  0  0  0  0  0  0  0
   21.2388   18.3023   20.7955 H   0  0  0  0  0  0  0  0  0  0  0  0
   19.7040   17.4577   21.1238 H   0  0  0  0  0  0  0  0  0  0  0  0
   20.1903   17.7954   19.4572 H   0  0  0  0  0  0  0  0  0  0  0  0
   19.4587   19.5552   20.5256 C   0  0  0  0  0  0  0  0  0  0  0  0
   18.4038   19.4081   20.2549 H   0  0  0  0  0  0  0  0  0  0  0  0
   19.8823   20.2121   19.7531 H   0  0  0  0  0  0  0  0  0  0  0  0
   19.5472   20.2816   21.8920 C   0  0  0  0  0  0  0  0  0  0  0  0
   20.5935   20.5225   22.1250 H   0  0  0  0  0  0  0  0  0  0  0  0
   19.0374   21.2491   21.7854 H   0  0  0  0  0  0  0  0  0  0  0  0
   18.8940   19.5186   23.0737 C   0  0  0  0  0  0  0  0  0  0  0  0
   18.0817   18.8776   22.7047 H   0  0  0  0  0  0  0  0  0  0  0  0
   18.4238   20.2564   23.7369 H   0  0  0  0  0  0  0  0  0  0  0  0
   19.9068   18.6860   23.9007 C   0  0  0  0  0  0  0  0  0  0  0  0
   20.4755   18.0243   23.2368 H   0  0  0  0  0  0  0  0  0  0  0  0
   20.6470   19.3571   24.3561 H   0  0  0  0  0  0  0  0  0  0  0  0
   19.2389   17.8145   24.9954 C   0  0  0  0  0  0  0  0  0  0  0  0
   20.0144   17.2217   25.4986 H   0  0  0  0  0  0  0  0  0  0  0  0
   18.5729   17.0848   24.5146 H   0  0  0  0  0  0  0  0  0  0  0  0
   18.4302   18.6053   26.0570 C   0  0  0  0  0  0  0  0  0  0  0  0
   17.5508   19.0628   25.5860 H   0  0  0  0  0  0  0  0  0  0  0  0
   18.0381   17.9053   26.8066 H   0  0  0  0  0  0  0  0  0  0  0  0
   19.2419   19.7051   26.7702 C   0  0  0  0  0  0  0  0  0  0  0  0
   18.5961   20.2341   27.4762 H   0  0  0  0  0  0  0  0  0  0  0  0
   19.6078   20.4278   26.0362 H   0  0  0  0  0  0  0  0  0  0  0  0
   20.4332   19.1740   27.5421 N   0  3  0  0  0  0  0  0  0  0  0  0
   20.1488   18.5107   28.2702 H   0  0  0  0  0  0  0  0  0  0  0  0
   20.9528   19.9265   28.0070 H   0  0  0  0  0  0  0  0  0  0  0  0
   21.0922   18.6858   26.9276 H   0  0  0  0  0  0  0  0  0  0  0  0
  1  2  1  0  0  0  0
  1  3  1  0  0  0  0
  1  4  1  0  0  0  0
  1  5  1  0  0  0  0
  5  6  1  0  0  0  0
  5  7  1  0  0  0  0
  5  8  1  0  0  0  0
  8  9  1  0  0  0  0
  8 10  1  0  0  0  0
  8 11  1  0  0  0  0
 11 12  1  0  0  0  0
 11 13  1  0  0  0  0
 11 14  1  0  0  0  0
 14 15  1  0  0  0  0
 14 16  1  0  0  0  0
 14 17  1  0  0  0  0
 17 18  1  0  0  0  0
 17 19  1  0  0  0  0
 17 20  1  0  0  0  0
 20 21  1  0  0  0  0
 20 22  1  0  0  0  0
 20 23  1  0  0  0  0
 23 24  1  0  0  0  0
 23 25  1  0  0  0  0
 23 26  1  0  0  0  0
 26 27  1  0  0  0  0
 26 28  1  0  0  0  0
 26 29  1  0  0  0  0
M  END
> <VM2 Rank>
372

> <Conf_Id>
342

> <Probability>
0.00

> <Sum Probability>
99.97

> <Delta G>
4.914

> <G>
63.062

> <E>
24.933

> <-TS>
38.129

> <U+W>
0.788

> <U>
52.915

> <W>
-52.126

> <W(PB)>
-54.566

> <W(SA)>
2.440

> <Valence>
6.450

> <Coulomb>
45.609

> <VdW>
0.855

> <VdW6>
-10.786

> <VdW12>
11.641

> <Bond>
0.323

> <Angle>
1.665

> <Pdih>
4.462

> <Idih>
0.000

> <Tether>
0.000

$$$$
VeraChem MOL file


 29 28  0  0  0  0  0  0  0  0999 V2000     
   19.8491   18.7518   19.9311 C   0  0  0  0  0  0  0  0  0  0  0  0
   20.9048   18.4521   19.9581 H   0  0  0  0  0  0  0  0  0  0  0  0
   19.4259   18.4054   18.9794 H   0  0  0  0  0  0  0  0  0  0  0  0
   19.8020   19.8478   19.9327 H   0  0  0  0  0  0  0  0  0  0  0  0
   19.0694   18.1479   21.1210 C   0  0  0  0  0  0  0  0  0  0  0  0
   19.0384   17.0556   21.0049 H   0  0  0  0  0  0  0  0  0  0  0  0
   18.0254   18.4899   21.0906 H   0  0  0  0  0  0  0  0  0  0  0  0
   19.6891   18.4825   22.4993 C   0  0  0  0  0  0  0  0  0  0  0  0
   19.1473   17.9127   23.2617 H   0  0  0  0  0  0  0  0  0  0  0  0
   20.7272   18.1238   22.5291 H   0  0  0  0  0  0  0  0  0  0  0  0
   19.6517   19.9942   22.8403 C   0  0  0  0  0  0  0  0  0  0  0  0
   18.6308   20.3851   22.7318 H   0  0  0  0  0  0  0  0  0  0  0  0
   20.2627   20.5315   22.1034 H   0  0  0  0  0  0  0  0  0  0  0  0
   20.2044   20.3307   24.2503 C   0  0  0  0  0  0  0  0  0  0  0  0
   20.9874   19.6163   24.5371 H   0  0  0  0  0  0  0  0  0  0  0  0
   20.7092   21.3047   24.1879 H   0  0  0  0  0  0  0  0  0  0  0  0
   19.1260   20.4452   25.3613 C   0  0  0  0  0  0  0  0  0  0  0  0
   18.3924   21.2091   25.0691 H   0  0  0  0  0  0  0  0  0  0  0  0
   19.6017   20.8305   26.2731 H   0  0  0  0  0  0  0  0  0  0  0  0
   18.3724   19.1350   25.7023 C   0  0  0  0  0  0  0  0  0  0  0  0
   17.6521   19.3345   26.5067 H   0  0  0  0  0  0  0  0  0  0  0  0
   17.7731   18.8191   24.8394 H   0  0  0  0  0  0  0  0  0  0  0  0
   19.2966   17.9786   26.1345 C   0  0  0  0  0  0  0  0  0  0  0  0
   20.0081   17.7554   25.3356 H   0  0  0  0  0  0  0  0  0  0  0  0
   18.6971   17.0828   26.3176 H   0  0  0  0  0  0  0  0  0  0  0  0
   20.0853   18.2720   27.3949 N   0  3  0  0  0  0  0  0  0  0  0  0
   19.4699   18.4624   28.1924 H   0  0  0  0  0  0  0  0  0  0  0  0
   20.6915   19.0899   27.2775 H   0  0  0  0  0  0  0  0  0  0  0  0
   20.6871   17.4848   27.6606 H   0  0  0  0  0  0  0  0  0  0  0  0
  1  2  1  0  0  0  0
  1  3  1  0  0  0  0
  1  4  1  0  0  0  0
  1  5  1  0  0  0  0
  5  6  1  0  0  0  0
  5  7  1  0  0  0  0
  5  8  1  0  0  0  0
  8  9  1  0  0  0  0
  8 10  1  0  0  0  0
  8 11  1  0  0  0  0
 11 12  1  0  0  0  0
 11 13  1  0  0  0  0
 11 14  1  0  0  0  0
 14 15  1  0  0  0  0
 14 16  1  0  0  0  0
 14 17  1  0  0  0  0
 17 18  1  0  0  0  0
 17 19  1  0  0  0  0
 17 20  1  0  0  0  0
 20 21  1  0  0  0  0
 20 22  1  0  0  0  0
 20 23  1  0  0  0  0
 23 24  1  0  0  0  0
 23 25  1  0  0  0  0
 23 26  1  0  0  0  0
 26 27  1  0  0  0  0
 26 28  1  0  0  0  0
 26 29  1  0  0  0  0
M  END
> <VM2 Rank>
373

> <Conf_Id>
2319

> <Probability>
0.00

> <Sum Probability>
99.97

> <Delta G>
4.986

> <G>
63.134

> <E>
24.954

> <-TS>
38.180

> <U+W>
0.809

> <U>
53.215

> <W>
-52.405

> <W(PB)>
-54.829

> <W(SA)>
2.424

> <Valence>
6.573

> <Coulomb>
45.976

> <VdW>
0.665

> <VdW6>
-10.949

> <VdW12>
11.615

> <Bond>
0.323

> <Angle>
1.850

> <Pdih>
4.401

> <Idih>
0.000

> <Tether>
0.000

$$$$
VeraChem MOL file


 29 28  0  0  0  0  0  0  0  0999 V2000     
   21.0593   18.2563   21.0524 C   0  0  0  0  0  0  0  0  0  0  0  0
   21.7131   18.7711   21.7672 H   0  0  0  0  0  0  0  0  0  0  0  0
   20.8320   17.2586   21.4499 H   0  0  0  0  0  0  0  0  0  0  0  0
   21.6263   18.1258   20.1217 H   0  0  0  0  0  0  0  0  0  0  0  0
   19.7643   19.0576   20.7887 C   0  0  0  0  0  0  0  0  0  0  0  0
   19.2029   18.5678   19.9809 H   0  0  0  0  0  0  0  0  0  0  0  0
   20.0189   20.0616   20.4215 H   0  0  0  0  0  0  0  0  0  0  0  0
   18.8494   19.1704   22.0316 C   0  0  0  0  0  0  0  0  0  0  0  0
   17.9107   19.6566   21.7326 H   0  0  0  0  0  0  0  0  0  0  0  0
   18.5824   18.1616   22.3730 H   0  0  0  0  0  0  0  0  0  0  0  0
   19.4878   19.9733   23.1926 C   0  0  0  0  0  0  0  0  0  0  0  0
   19.8405   20.9394   22.8062 H   0  0  0  0  0  0  0  0  0  0  0  0
   20.3770   19.4502   23.5625 H   0  0  0  0  0  0  0  0  0  0  0  0
   18.5074   20.2420   24.3637 C   0  0  0  0  0  0  0  0  0  0  0  0
   18.9977   20.8738   25.1144 H   0  0  0  0  0  0  0  0  0  0  0  0
   17.6686   20.8435   23.9869 H   0  0  0  0  0  0  0  0  0  0  0  0
   17.9302   18.9739   25.0475 C   0  0  0  0  0  0  0  0  0  0  0  0
   17.2817   18.4483   24.3341 H   0  0  0  0  0  0  0  0  0  0  0  0
   17.2673   19.2883   25.8654 H   0  0  0  0  0  0  0  0  0  0  0  0
   18.9689   17.9656   25.6076 C   0  0  0  0  0  0  0  0  0  0  0  0
   18.4176   17.0892   25.9730 H   0  0  0  0  0  0  0  0  0  0  0  0
   19.6235   17.5910   24.8104 H   0  0  0  0  0  0  0  0  0  0  0  0
   19.8099   18.5061   26.7827 C   0  0  0  0  0  0  0  0  0  0  0  0
   20.2348   17.6638   27.3352 H   0  0  0  0  0  0  0  0  0  0  0  0
   19.1693   19.0706   27.4654 H   0  0  0  0  0  0  0  0  0  0  0  0
   20.9668   19.3927   26.3681 N   0  3  0  0  0  0  0  0  0  0  0  0
   21.6419   18.8860   25.7866 H   0  0  0  0  0  0  0  0  0  0  0  0
   21.4803   19.7521   27.1804 H   0  0  0  0  0  0  0  0  0  0  0  0
   20.6448   20.2011   25.8279 H   0  0  0  0  0  0  0  0  0  0  0  0
  1  2  1  0  0  0  0
  1  3  1  0  0  0  0
  1  4  1  0  0  0  0
  1  5  1  0  0  0  0
  5  6  1  0  0  0  0
  5  7  1  0  0  0  0
  5  8  1  0  0  0  0
  8  9  1  0  0  0  0
  8 10  1  0  0  0  0
  8 11  1  0  0  0  0
 11 12  1  0  0  0  0
 11 13  1  0  0  0  0
 11 14  1  0  0  0  0
 14 15  1  0  0  0  0
 14 16  1  0  0  0  0
 14 17  1  0  0  0  0
 17 18  1  0  0  0  0
 17 19  1  0  0  0  0
 17 20  1  0  0  0  0
 20 21  1  0  0  0  0
 20 22  1  0  0  0  0
 20 23  1  0  0  0  0
 23 24  1  0  0  0  0
 23 25  1  0  0  0  0
 23 26  1  0  0  0  0
 26 27  1  0  0  0  0
 26 28  1  0  0  0  0
 26 29  1  0  0  0  0
M  END
> <VM2 Rank>
374

> <Conf_Id>
1913

> <Probability>
0.00

> <Sum Probability>
99.97

> <Delta G>
5.008

> <G>
63.156

> <E>
24.854

> <-TS>
38.302

> <U+W>
0.709

> <U>
53.271

> <W>
-52.562

> <W(PB)>
-54.927

> <W(SA)>
2.366

> <Valence>
5.540

> <Coulomb>
47.274

> <VdW>
0.456

> <VdW6>
-11.405

> <VdW12>
11.861

> <Bond>
0.330

> <Angle>
1.973

> <Pdih>
3.237

> <Idih>
0.000

> <Tether>
0.000

$$$$
VeraChem MOL file


 29 28  0  0  0  0  0  0  0  0999 V2000     
   21.6283   18.9153   21.5219 C   0  0  0  0  0  0  0  0  0  0  0  0
   21.5155   18.6371   20.4660 H   0  0  0  0  0  0  0  0  0  0  0  0
   22.4754   19.6092   21.5989 H   0  0  0  0  0  0  0  0  0  0  0  0
   21.8811   18.0099   22.0890 H   0  0  0  0  0  0  0  0  0  0  0  0
   20.3392   19.5670   22.0645 C   0  0  0  0  0  0  0  0  0  0  0  0
   20.1287   20.4857   21.4996 H   0  0  0  0  0  0  0  0  0  0  0  0
   20.5040   19.8686   23.1064 H   0  0  0  0  0  0  0  0  0  0  0  0
   19.1298   18.6073   21.9645 C   0  0  0  0  0  0  0  0  0  0  0  0
   19.0036   18.3093   20.9146 H   0  0  0  0  0  0  0  0  0  0  0  0
   19.3310   17.6784   22.5119 H   0  0  0  0  0  0  0  0  0  0  0  0
   17.8000   19.2326   22.4535 C   0  0  0  0  0  0  0  0  0  0  0  0
   16.9899   18.5093   22.2878 H   0  0  0  0  0  0  0  0  0  0  0  0
   17.5635   20.0935   21.8130 H   0  0  0  0  0  0  0  0  0  0  0  0
   17.7610   19.6972   23.9348 C   0  0  0  0  0  0  0  0  0  0  0  0
   18.4876   20.5002   24.1068 H   0  0  0  0  0  0  0  0  0  0  0  0
   16.7797   20.1644   24.0963 H   0  0  0  0  0  0  0  0  0  0  0  0
   17.9151   18.5619   24.9848 C   0  0  0  0  0  0  0  0  0  0  0  0
   17.4673   17.6372   24.5957 H   0  0  0  0  0  0  0  0  0  0  0  0
   17.3211   18.8267   25.8706 H   0  0  0  0  0  0  0  0  0  0  0  0
   19.3651   18.2801   25.4547 C   0  0  0  0  0  0  0  0  0  0  0  0
   19.3493   17.4242   26.1424 H   0  0  0  0  0  0  0  0  0  0  0  0
   19.9965   17.9815   24.6116 H   0  0  0  0  0  0  0  0  0  0  0  0
   20.0030   19.4821   26.1762 C   0  0  0  0  0  0  0  0  0  0  0  0
   19.3869   19.7656   27.0338 H   0  0  0  0  0  0  0  0  0  0  0  0
   20.0619   20.3360   25.4971 H   0  0  0  0  0  0  0  0  0  0  0  0
   21.4024   19.1946   26.6800 N   0  3  0  0  0  0  0  0  0  0  0  0
   21.8091   20.0063   27.1580 H   0  0  0  0  0  0  0  0  0  0  0  0
   22.0399   18.9461   25.9165 H   0  0  0  0  0  0  0  0  0  0  0  0
   21.4144   18.4176   27.3490 H   0  0  0  0  0  0  0  0  0  0  0  0
  1  2  1  0  0  0  0
  1  3  1  0  0  0  0
  1  4  1  0  0  0  0
  1  5  1  0  0  0  0
  5  6  1  0  0  0  0
  5  7  1  0  0  0  0
  5  8  1  0  0  0  0
  8  9  1  0  0  0  0
  8 10  1  0  0  0  0
  8 11  1  0  0  0  0
 11 12  1  0  0  0  0
 11 13  1  0  0  0  0
 11 14  1  0  0  0  0
 14 15  1  0  0  0  0
 14 16  1  0  0  0  0
 14 17  1  0  0  0  0
 17 18  1  0  0  0  0
 17 19  1  0  0  0  0
 17 20  1  0  0  0  0
 20 21  1  0  0  0  0
 20 22  1  0  0  0  0
 20 23  1  0  0  0  0
 23 24  1  0  0  0  0
 23 25  1  0  0  0  0
 23 26  1  0  0  0  0
 26 27  1  0  0  0  0
 26 28  1  0  0  0  0
 26 29  1  0  0  0  0
M  END
> <VM2 Rank>
375

> <Conf_Id>
2274

> <Probability>
0.00

> <Sum Probability>
99.97

> <Delta G>
5.011

> <G>
63.159

> <E>
24.859

> <-TS>
38.300

> <U+W>
0.714

> <U>
53.539

> <W>
-52.825

> <W(PB)>
-55.205

> <W(SA)>
2.380

> <Valence>
6.581

> <Coulomb>
46.681

> <VdW>
0.276

> <VdW6>
-10.907

> <VdW12>
11.183

> <Bond>
0.323

> <Angle>
2.234

> <Pdih>
4.025

> <Idih>
0.000

> <Tether>
0.000

$$$$
VeraChem MOL file


 29 28  0  0  0  0  0  0  0  0999 V2000     
   19.9643   19.9661   20.1968 C   0  0  0  0  0  0  0  0  0  0  0  0
   19.0846   19.5559   19.6841 H   0  0  0  0  0  0  0  0  0  0  0  0
   19.6366   20.8013   20.8282 H   0  0  0  0  0  0  0  0  0  0  0  0
   20.6381   20.3749   19.4327 H   0  0  0  0  0  0  0  0  0  0  0  0
   20.6830   18.8768   21.0245 C   0  0  0  0  0  0  0  0  0  0  0  0
   21.5406   19.3186   21.5509 H   0  0  0  0  0  0  0  0  0  0  0  0
   21.0976   18.1259   20.3375 H   0  0  0  0  0  0  0  0  0  0  0  0
   19.7565   18.1638   22.0387 C   0  0  0  0  0  0  0  0  0  0  0  0
   18.9147   17.7023   21.5044 H   0  0  0  0  0  0  0  0  0  0  0  0
   20.3165   17.3402   22.5026 H   0  0  0  0  0  0  0  0  0  0  0  0
   19.2200   19.1008   23.1471 C   0  0  0  0  0  0  0  0  0  0  0  0
   18.5884   19.8808   22.7020 H   0  0  0  0  0  0  0  0  0  0  0  0
   20.0642   19.6125   23.6251 H   0  0  0  0  0  0  0  0  0  0  0  0
   18.3926   18.3250   24.2001 C   0  0  0  0  0  0  0  0  0  0  0  0
   17.5681   17.8096   23.6882 H   0  0  0  0  0  0  0  0  0  0  0  0
   18.9973   17.5312   24.6553 H   0  0  0  0  0  0  0  0  0  0  0  0
   17.7854   19.2300   25.3021 C   0  0  0  0  0  0  0  0  0  0  0  0
   17.1755   18.6064   25.9703 H   0  0  0  0  0  0  0  0  0  0  0  0
   17.0858   19.9348   24.8319 H   0  0  0  0  0  0  0  0  0  0  0  0
   18.7965   20.0371   26.1600 C   0  0  0  0  0  0  0  0  0  0  0  0
   19.3511   20.7545   25.5420 H   0  0  0  0  0  0  0  0  0  0  0  0
   18.2198   20.6442   26.8703 H   0  0  0  0  0  0  0  0  0  0  0  0
   19.7749   19.1677   26.9768 C   0  0  0  0  0  0  0  0  0  0  0  0
   19.2462   18.3033   27.3871 H   0  0  0  0  0  0  0  0  0  0  0  0
   20.1646   19.7554   27.8124 H   0  0  0  0  0  0  0  0  0  0  0  0
   20.9707   18.6707   26.1889 N   0  3  0  0  0  0  0  0  0  0  0  0
   20.6806   18.1329   25.3665 H   0  0  0  0  0  0  0  0  0  0  0  0
   21.5746   18.0649   26.7555 H   0  0  0  0  0  0  0  0  0  0  0  0
   21.5524   19.4463   25.8555 H   0  0  0  0  0  0  0  0  0  0  0  0
  1  2  1  0  0  0  0
  1  3  1  0  0  0  0
  1  4  1  0  0  0  0
  1  5  1  0  0  0  0
  5  6  1  0  0  0  0
  5  7  1  0  0  0  0
  5  8  1  0  0  0  0
  8  9  1  0  0  0  0
  8 10  1  0  0  0  0
  8 11  1  0  0  0  0
 11 12  1  0  0  0  0
 11 13  1  0  0  0  0
 11 14  1  0  0  0  0
 14 15  1  0  0  0  0
 14 16  1  0  0  0  0
 14 17  1  0  0  0  0
 17 18  1  0  0  0  0
 17 19  1  0  0  0  0
 17 20  1  0  0  0  0
 20 21  1  0  0  0  0
 20 22  1  0  0  0  0
 20 23  1  0  0  0  0
 23 24  1  0  0  0  0
 23 25  1  0  0  0  0
 23 26  1  0  0  0  0
 26 27  1  0  0  0  0
 26 28  1  0  0  0  0
 26 29  1  0  0  0  0
M  END
> <VM2 Rank>
376

> <Conf_Id>
1353

> <Probability>
0.00

> <Sum Probability>
99.97

> <Delta G>
5.013

> <G>
63.161

> <E>
25.085

> <-TS>
38.076

> <U+W>
0.940

> <U>
52.883

> <W>
-51.943

> <W(PB)>
-54.356

> <W(SA)>
2.413

> <Valence>
5.142

> <Coulomb>
47.175

> <VdW>
0.565

> <VdW6>
-10.483

> <VdW12>
11.049

> <Bond>
0.281

> <Angle>
1.694

> <Pdih>
3.167

> <Idih>
0.000

> <Tether>
0.000

$$$$
VeraChem MOL file


 29 28  0  0  0  0  0  0  0  0999 V2000     
   21.1879   19.2474   21.3241 C   0  0  0  0  0  0  0  0  0  0  0  0
   21.5386   20.1728   21.7988 H   0  0  0  0  0  0  0  0  0  0  0  0
   21.3026   18.4298   22.0430 H   0  0  0  0  0  0  0  0  0  0  0  0
   21.8537   19.0347   20.4777 H   0  0  0  0  0  0  0  0  0  0  0  0
   19.7282   19.3932   20.8360 C   0  0  0  0  0  0  0  0  0  0  0  0
   19.3921   18.4622   20.3588 H   0  0  0  0  0  0  0  0  0  0  0  0
   19.7145   20.1582   20.0471 H   0  0  0  0  0  0  0  0  0  0  0  0
   18.7307   19.8208   21.9440 C   0  0  0  0  0  0  0  0  0  0  0  0
   19.2123   20.5071   22.6526 H   0  0  0  0  0  0  0  0  0  0  0  0
   17.9374   20.4111   21.4649 H   0  0  0  0  0  0  0  0  0  0  0  0
   18.0364   18.6500   22.6912 C   0  0  0  0  0  0  0  0  0  0  0  0
   17.5307   18.0110   21.9544 H   0  0  0  0  0  0  0  0  0  0  0  0
   17.2319   19.0612   23.3149 H   0  0  0  0  0  0  0  0  0  0  0  0
   18.9513   17.7597   23.5719 C   0  0  0  0  0  0  0  0  0  0  0  0
   18.3295   16.9930   24.0542 H   0  0  0  0  0  0  0  0  0  0  0  0
   19.6450   17.2048   22.9283 H   0  0  0  0  0  0  0  0  0  0  0  0
   19.7521   18.5097   24.6682 C   0  0  0  0  0  0  0  0  0  0  0  0
   20.4395   19.2306   24.2077 H   0  0  0  0  0  0  0  0  0  0  0  0
   20.3840   17.7772   25.1873 H   0  0  0  0  0  0  0  0  0  0  0  0
   18.8538   19.2368   25.6995 C   0  0  0  0  0  0  0  0  0  0  0  0
   18.2478   19.9973   25.1913 H   0  0  0  0  0  0  0  0  0  0  0  0
   18.1514   18.5262   26.1547 H   0  0  0  0  0  0  0  0  0  0  0  0
   19.6665   19.9376   26.8050 C   0  0  0  0  0  0  0  0  0  0  0  0
   18.9895   20.5114   27.4438 H   0  0  0  0  0  0  0  0  0  0  0  0
   20.3800   20.6321   26.3534 H   0  0  0  0  0  0  0  0  0  0  0  0
   20.4373   18.9828   27.6953 N   0  3  0  0  0  0  0  0  0  0  0  0
   19.8159   18.3170   28.1664 H   0  0  0  0  0  0  0  0  0  0  0  0
   20.9556   19.4797   28.4280 H   0  0  0  0  0  0  0  0  0  0  0  0
   21.1203   18.4353   27.1626 H   0  0  0  0  0  0  0  0  0  0  0  0
  1  2  1  0  0  0  0
  1  3  1  0  0  0  0
  1  4  1  0  0  0  0
  1  5  1  0  0  0  0
  5  6  1  0  0  0  0
  5  7  1  0  0  0  0
  5  8  1  0  0  0  0
  8  9  1  0  0  0  0
  8 10  1  0  0  0  0
  8 11  1  0  0  0  0
 11 12  1  0  0  0  0
 11 13  1  0  0  0  0
 11 14  1  0  0  0  0
 14 15  1  0  0  0  0
 14 16  1  0  0  0  0
 14 17  1  0  0  0  0
 17 18  1  0  0  0  0
 17 19  1  0  0  0  0
 17 20  1  0  0  0  0
 20 21  1  0  0  0  0
 20 22  1  0  0  0  0
 20 23  1  0  0  0  0
 23 24  1  0  0  0  0
 23 25  1  0  0  0  0
 23 26  1  0  0  0  0
 26 27  1  0  0  0  0
 26 28  1  0  0  0  0
 26 29  1  0  0  0  0
M  END
> <VM2 Rank>
377

> <Conf_Id>
338

> <Probability>
0.00

> <Sum Probability>
99.97

> <Delta G>
5.014

> <G>
63.162

> <E>
24.822

> <-TS>
38.340

> <U+W>
0.677

> <U>
52.977

> <W>
-52.300

> <W(PB)>
-54.669

> <W(SA)>
2.369

> <Valence>
6.751

> <Coulomb>
45.559

> <VdW>
0.667

> <VdW6>
-11.105

> <VdW12>
11.772

> <Bond>
0.347

> <Angle>
2.334

> <Pdih>
4.070

> <Idih>
0.000

> <Tether>
0.000

$$$$
VeraChem MOL file


 29 28  0  0  0  0  0  0  0  0999 V2000     
   21.3887   19.6535   21.7203 C   0  0  0  0  0  0  0  0  0  0  0  0
   21.5436   19.3115   20.6888 H   0  0  0  0  0  0  0  0  0  0  0  0
   22.0889   20.4778   21.9080 H   0  0  0  0  0  0  0  0  0  0  0  0
   21.6573   18.8336   22.3968 H   0  0  0  0  0  0  0  0  0  0  0  0
   19.9319   20.1236   21.9363 C   0  0  0  0  0  0  0  0  0  0  0  0
   19.7590   21.0120   21.3130 H   0  0  0  0  0  0  0  0  0  0  0  0
   19.8024   20.4562   22.9721 H   0  0  0  0  0  0  0  0  0  0  0  0
   18.8757   19.0519   21.5604 C   0  0  0  0  0  0  0  0  0  0  0  0
   17.8770   19.5094   21.5533 H   0  0  0  0  0  0  0  0  0  0  0  0
   19.0632   18.7435   20.5226 H   0  0  0  0  0  0  0  0  0  0  0  0
   18.8546   17.7815   22.4550 C   0  0  0  0  0  0  0  0  0  0  0  0
   19.8611   17.5220   22.8026 H   0  0  0  0  0  0  0  0  0  0  0  0
   18.5475   16.9375   21.8222 H   0  0  0  0  0  0  0  0  0  0  0  0
   17.8614   17.8367   23.6475 C   0  0  0  0  0  0  0  0  0  0  0  0
   16.8467   17.9924   23.2559 H   0  0  0  0  0  0  0  0  0  0  0  0
   17.8435   16.8509   24.1321 H   0  0  0  0  0  0  0  0  0  0  0  0
   18.1467   18.9112   24.7257 C   0  0  0  0  0  0  0  0  0  0  0  0
   17.3531   18.8577   25.4837 H   0  0  0  0  0  0  0  0  0  0  0  0
   18.0691   19.9134   24.2860 H   0  0  0  0  0  0  0  0  0  0  0  0
   19.5141   18.7342   25.4268 C   0  0  0  0  0  0  0  0  0  0  0  0
   19.5737   17.7309   25.8692 H   0  0  0  0  0  0  0  0  0  0  0  0
   20.3291   18.8121   24.6973 H   0  0  0  0  0  0  0  0  0  0  0  0
   19.7207   19.7914   26.5251 C   0  0  0  0  0  0  0  0  0  0  0  0
   18.9268   19.7064   27.2721 H   0  0  0  0  0  0  0  0  0  0  0  0
   19.6750   20.7917   26.0862 H   0  0  0  0  0  0  0  0  0  0  0  0
   21.0503   19.6539   27.2379 N   0  3  0  0  0  0  0  0  0  0  0  0
   21.1450   18.7413   27.6958 H   0  0  0  0  0  0  0  0  0  0  0  0
   21.1672   20.3671   27.9662 H   0  0  0  0  0  0  0  0  0  0  0  0
   21.8414   19.7524   26.5931 H   0  0  0  0  0  0  0  0  0  0  0  0
  1  2  1  0  0  0  0
  1  3  1  0  0  0  0
  1  4  1  0  0  0  0
  1  5  1  0  0  0  0
  5  6  1  0  0  0  0
  5  7  1  0  0  0  0
  5  8  1  0  0  0  0
  8  9  1  0  0  0  0
  8 10  1  0  0  0  0
  8 11  1  0  0  0  0
 11 12  1  0  0  0  0
 11 13  1  0  0  0  0
 11 14  1  0  0  0  0
 14 15  1  0  0  0  0
 14 16  1  0  0  0  0
 14 17  1  0  0  0  0
 17 18  1  0  0  0  0
 17 19  1  0  0  0  0
 17 20  1  0  0  0  0
 20 21  1  0  0  0  0
 20 22  1  0  0  0  0
 20 23  1  0  0  0  0
 23 24  1  0  0  0  0
 23 25  1  0  0  0  0
 23 26  1  0  0  0  0
 26 27  1  0  0  0  0
 26 28  1  0  0  0  0
 26 29  1  0  0  0  0
M  END
> <VM2 Rank>
378

> <Conf_Id>
2002

> <Probability>
0.00

> <Sum Probability>
99.97

> <Delta G>
5.016

> <G>
63.164

> <E>
24.842

> <-TS>
38.322

> <U+W>
0.697

> <U>
53.285

> <W>
-52.588

> <W(PB)>
-54.953

> <W(SA)>
2.365

> <Valence>
6.888

> <Coulomb>
45.950

> <VdW>
0.447

> <VdW6>
-10.701

> <VdW12>
11.148

> <Bond>
0.336

> <Angle>
2.314

> <Pdih>
4.238

> <Idih>
0.000

> <Tether>
0.000

$$$$
VeraChem MOL file


 29 28  0  0  0  0  0  0  0  0999 V2000     
   21.0636   18.9182   20.7350 C   0  0  0  0  0  0  0  0  0  0  0  0
   21.4894   19.2475   21.6892 H   0  0  0  0  0  0  0  0  0  0  0  0
   21.3437   17.8673   20.5857 H   0  0  0  0  0  0  0  0  0  0  0  0
   21.5376   19.5055   19.9380 H   0  0  0  0  0  0  0  0  0  0  0  0
   19.5272   19.0900   20.6930 C   0  0  0  0  0  0  0  0  0  0  0  0
   19.1757   18.7543   19.7074 H   0  0  0  0  0  0  0  0  0  0  0  0
   19.2592   20.1534   20.7630 H   0  0  0  0  0  0  0  0  0  0  0  0
   18.7890   18.2747   21.7857 C   0  0  0  0  0  0  0  0  0  0  0  0
   17.8514   17.8969   21.3551 H   0  0  0  0  0  0  0  0  0  0  0  0
   19.3717   17.3823   22.0529 H   0  0  0  0  0  0  0  0  0  0  0  0
   18.4257   19.0746   23.0634 C   0  0  0  0  0  0  0  0  0  0  0  0
   17.8503   18.4096   23.7197 H   0  0  0  0  0  0  0  0  0  0  0  0
   17.7530   19.9015   22.7973 H   0  0  0  0  0  0  0  0  0  0  0  0
   19.6472   19.6334   23.8337 C   0  0  0  0  0  0  0  0  0  0  0  0
   20.3567   18.8223   24.0438 H   0  0  0  0  0  0  0  0  0  0  0  0
   20.1768   20.3496   23.1929 H   0  0  0  0  0  0  0  0  0  0  0  0
   19.2708   20.3675   25.1469 C   0  0  0  0  0  0  0  0  0  0  0  0
   18.6225   21.2216   24.9073 H   0  0  0  0  0  0  0  0  0  0  0  0
   20.1818   20.8000   25.5819 H   0  0  0  0  0  0  0  0  0  0  0  0
   18.5668   19.4888   26.2144 C   0  0  0  0  0  0  0  0  0  0  0  0
   18.4057   20.0853   27.1221 H   0  0  0  0  0  0  0  0  0  0  0  0
   17.5665   19.2073   25.8620 H   0  0  0  0  0  0  0  0  0  0  0  0
   19.3433   18.2092   26.5838 C   0  0  0  0  0  0  0  0  0  0  0  0
   19.4780   17.5897   25.6933 H   0  0  0  0  0  0  0  0  0  0  0  0
   18.7698   17.6337   27.3154 H   0  0  0  0  0  0  0  0  0  0  0  0
   20.7104   18.4816   27.1791 N   0  3  0  0  0  0  0  0  0  0  0  0
   21.3072   19.0012   26.5281 H   0  0  0  0  0  0  0  0  0  0  0  0
   21.2033   17.6136   27.4157 H   0  0  0  0  0  0  0  0  0  0  0  0
   20.6462   19.0350   28.0397 H   0  0  0  0  0  0  0  0  0  0  0  0
  1  2  1  0  0  0  0
  1  3  1  0  0  0  0
  1  4  1  0  0  0  0
  1  5  1  0  0  0  0
  5  6  1  0  0  0  0
  5  7  1  0  0  0  0
  5  8  1  0  0  0  0
  8  9  1  0  0  0  0
  8 10  1  0  0  0  0
  8 11  1  0  0  0  0
 11 12  1  0  0  0  0
 11 13  1  0  0  0  0
 11 14  1  0  0  0  0
 14 15  1  0  0  0  0
 14 16  1  0  0  0  0
 14 17  1  0  0  0  0
 17 18  1  0  0  0  0
 17 19  1  0  0  0  0
 17 20  1  0  0  0  0
 20 21  1  0  0  0  0
 20 22  1  0  0  0  0
 20 23  1  0  0  0  0
 23 24  1  0  0  0  0
 23 25  1  0  0  0  0
 23 26  1  0  0  0  0
 26 27  1  0  0  0  0
 26 28  1  0  0  0  0
 26 29  1  0  0  0  0
M  END
> <VM2 Rank>
379

> <Conf_Id>
889

> <Probability>
0.00

> <Sum Probability>
99.98

> <Delta G>
5.021

> <G>
63.169

> <E>
25.120

> <-TS>
38.049

> <U+W>
0.975

> <U>
53.225

> <W>
-52.250

> <W(PB)>
-54.667

> <W(SA)>
2.417

> <Valence>
6.562

> <Coulomb>
45.742

> <VdW>
0.921

> <VdW6>
-10.737

> <VdW12>
11.658

> <Bond>
0.330

> <Angle>
1.826

> <Pdih>
4.407

> <Idih>
0.000

> <Tether>
0.000

$$$$
VeraChem MOL file


 29 28  0  0  0  0  0  0  0  0999 V2000     
   21.2523   18.7974   21.0646 C   0  0  0  0  0  0  0  0  0  0  0  0
   21.4227   17.9571   21.7489 H   0  0  0  0  0  0  0  0  0  0  0  0
   21.7871   18.5766   20.1317 H   0  0  0  0  0  0  0  0  0  0  0  0
   21.7019   19.6969   21.5047 H   0  0  0  0  0  0  0  0  0  0  0  0
   19.7464   19.0075   20.7876 C   0  0  0  0  0  0  0  0  0  0  0  0
   19.3135   18.0846   20.3771 H   0  0  0  0  0  0  0  0  0  0  0  0
   19.6330   19.7737   20.0080 H   0  0  0  0  0  0  0  0  0  0  0  0
   18.9490   19.4495   22.0380 C   0  0  0  0  0  0  0  0  0  0  0  0
   19.3756   20.3851   22.4229 H   0  0  0  0  0  0  0  0  0  0  0  0
   17.9188   19.6793   21.7333 H   0  0  0  0  0  0  0  0  0  0  0  0
   18.9190   18.3785   23.1569 C   0  0  0  0  0  0  0  0  0  0  0  0
   19.9333   18.2059   23.5347 H   0  0  0  0  0  0  0  0  0  0  0  0
   18.5865   17.4235   22.7274 H   0  0  0  0  0  0  0  0  0  0  0  0
   17.9732   18.7442   24.3303 C   0  0  0  0  0  0  0  0  0  0  0  0
   16.9485   18.8243   23.9418 H   0  0  0  0  0  0  0  0  0  0  0  0
   17.9428   17.9156   25.0482 H   0  0  0  0  0  0  0  0  0  0  0  0
   18.3186   20.0631   25.0719 C   0  0  0  0  0  0  0  0  0  0  0  0
   17.5948   20.2067   25.8860 H   0  0  0  0  0  0  0  0  0  0  0  0
   18.1587   20.9082   24.3892 H   0  0  0  0  0  0  0  0  0  0  0  0
   19.7528   20.1640   25.6566 C   0  0  0  0  0  0  0  0  0  0  0  0
   20.5079   20.0713   24.8657 H   0  0  0  0  0  0  0  0  0  0  0  0
   19.8750   21.1762   26.0642 H   0  0  0  0  0  0  0  0  0  0  0  0
   20.0458   19.1675   26.7974 C   0  0  0  0  0  0  0  0  0  0  0  0
   19.1830   19.1089   27.4663 H   0  0  0  0  0  0  0  0  0  0  0  0
   20.8999   19.5285   27.3767 H   0  0  0  0  0  0  0  0  0  0  0  0
   20.3868   17.7664   26.3318 N   0  3  0  0  0  0  0  0  0  0  0  0
   20.5459   17.1315   27.1219 H   0  0  0  0  0  0  0  0  0  0  0  0
   21.2384   17.7544   25.7612 H   0  0  0  0  0  0  0  0  0  0  0  0
   19.6338   17.3660   25.7647 H   0  0  0  0  0  0  0  0  0  0  0  0
  1  2  1  0  0  0  0
  1  3  1  0  0  0  0
  1  4  1  0  0  0  0
  1  5  1  0  0  0  0
  5  6  1  0  0  0  0
  5  7  1  0  0  0  0
  5  8  1  0  0  0  0
  8  9  1  0  0  0  0
  8 10  1  0  0  0  0
  8 11  1  0  0  0  0
 11 12  1  0  0  0  0
 11 13  1  0  0  0  0
 11 14  1  0  0  0  0
 14 15  1  0  0  0  0
 14 16  1  0  0  0  0
 14 17  1  0  0  0  0
 17 18  1  0  0  0  0
 17 19  1  0  0  0  0
 17 20  1  0  0  0  0
 20 21  1  0  0  0  0
 20 22  1  0  0  0  0
 20 23  1  0  0  0  0
 23 24  1  0  0  0  0
 23 25  1  0  0  0  0
 23 26  1  0  0  0  0
 26 27  1  0  0  0  0
 26 28  1  0  0  0  0
 26 29  1  0  0  0  0
M  END
> <VM2 Rank>
380

> <Conf_Id>
2590

> <Probability>
0.00

> <Sum Probability>
99.98

> <Delta G>
5.046

> <G>
63.194

> <E>
24.891

> <-TS>
38.303

> <U+W>
0.746

> <U>
53.271

> <W>
-52.524

> <W(PB)>
-54.886

> <W(SA)>
2.362

> <Valence>
5.540

> <Coulomb>
47.274

> <VdW>
0.456

> <VdW6>
-11.405

> <VdW12>
11.861

> <Bond>
0.330

> <Angle>
1.973

> <Pdih>
3.237

> <Idih>
0.000

> <Tether>
0.000

$$$$
VeraChem MOL file


 29 28  0  0  0  0  0  0  0  0999 V2000     
   20.8796   20.3076   21.9174 C   0  0  0  0  0  0  0  0  0  0  0  0
   21.7171   19.8467   21.3778 H   0  0  0  0  0  0  0  0  0  0  0  0
   21.0092   21.3965   21.8714 H   0  0  0  0  0  0  0  0  0  0  0  0
   20.9478   20.0100   22.9705 H   0  0  0  0  0  0  0  0  0  0  0  0
   19.5267   19.8963   21.2932 C   0  0  0  0  0  0  0  0  0  0  0  0
   19.4811   20.2896   20.2681 H   0  0  0  0  0  0  0  0  0  0  0  0
   18.6976   20.3743   21.8296 H   0  0  0  0  0  0  0  0  0  0  0  0
   19.3159   18.3635   21.2384 C   0  0  0  0  0  0  0  0  0  0  0  0
   18.3689   18.1555   20.7217 H   0  0  0  0  0  0  0  0  0  0  0  0
   20.1007   17.9271   20.6054 H   0  0  0  0  0  0  0  0  0  0  0  0
   19.3174   17.6228   22.6030 C   0  0  0  0  0  0  0  0  0  0  0  0
   20.2863   17.7396   23.1016 H   0  0  0  0  0  0  0  0  0  0  0  0
   19.2386   16.5491   22.3837 H   0  0  0  0  0  0  0  0  0  0  0  0
   18.1424   17.9926   23.5504 C   0  0  0  0  0  0  0  0  0  0  0  0
   17.2585   18.2477   22.9500 H   0  0  0  0  0  0  0  0  0  0  0  0
   17.8590   17.0975   24.1211 H   0  0  0  0  0  0  0  0  0  0  0  0
   18.4250   19.1351   24.5613 C   0  0  0  0  0  0  0  0  0  0  0  0
   17.4802   19.3925   25.0597 H   0  0  0  0  0  0  0  0  0  0  0  0
   18.7463   20.0436   24.0402 H   0  0  0  0  0  0  0  0  0  0  0  0
   19.4651   18.7607   25.6437 C   0  0  0  0  0  0  0  0  0  0  0  0
   19.1484   17.8443   26.1592 H   0  0  0  0  0  0  0  0  0  0  0  0
   20.4383   18.5516   25.1837 H   0  0  0  0  0  0  0  0  0  0  0  0
   19.6321   19.8929   26.6722 C   0  0  0  0  0  0  0  0  0  0  0  0
   18.6723   20.0966   27.1547 H   0  0  0  0  0  0  0  0  0  0  0  0
   19.9635   20.8038   26.1663 H   0  0  0  0  0  0  0  0  0  0  0  0
   20.6397   19.5666   27.7554 N   0  3  0  0  0  0  0  0  0  0  0  0
   20.3712   18.7321   28.2874 H   0  0  0  0  0  0  0  0  0  0  0  0
   20.7349   20.3334   28.4303 H   0  0  0  0  0  0  0  0  0  0  0  0
   21.5730   19.3911   27.3687 H   0  0  0  0  0  0  0  0  0  0  0  0
  1  2  1  0  0  0  0
  1  3  1  0  0  0  0
  1  4  1  0  0  0  0
  1  5  1  0  0  0  0
  5  6  1  0  0  0  0
  5  7  1  0  0  0  0
  5  8  1  0  0  0  0
  8  9  1  0  0  0  0
  8 10  1  0  0  0  0
  8 11  1  0  0  0  0
 11 12  1  0  0  0  0
 11 13  1  0  0  0  0
 11 14  1  0  0  0  0
 14 15  1  0  0  0  0
 14 16  1  0  0  0  0
 14 17  1  0  0  0  0
 17 18  1  0  0  0  0
 17 19  1  0  0  0  0
 17 20  1  0  0  0  0
 20 21  1  0  0  0  0
 20 22  1  0  0  0  0
 20 23  1  0  0  0  0
 23 24  1  0  0  0  0
 23 25  1  0  0  0  0
 23 26  1  0  0  0  0
 26 27  1  0  0  0  0
 26 28  1  0  0  0  0
 26 29  1  0  0  0  0
M  END
> <VM2 Rank>
381

> <Conf_Id>
1026

> <Probability>
0.00

> <Sum Probability>
99.98

> <Delta G>
5.050

> <G>
63.198

> <E>
24.959

> <-TS>
38.239

> <U+W>
0.815

> <U>
53.092

> <W>
-52.277

> <W(PB)>
-54.666

> <W(SA)>
2.388

> <Valence>
6.910

> <Coulomb>
45.632

> <VdW>
0.550

> <VdW6>
-10.516

> <VdW12>
11.066

> <Bond>
0.337

> <Angle>
2.297

> <Pdih>
4.276

> <Idih>
0.000

> <Tether>
0.000

$$$$
VeraChem MOL file


 29 28  0  0  0  0  0  0  0  0999 V2000     
   19.3330   18.2022   20.1573 C   0  0  0  0  0  0  0  0  0  0  0  0
   18.5410   17.7401   20.7595 H   0  0  0  0  0  0  0  0  0  0  0  0
   18.9205   19.0973   19.6739 H   0  0  0  0  0  0  0  0  0  0  0  0
   19.6055   17.4897   19.3680 H   0  0  0  0  0  0  0  0  0  0  0  0
   20.5677   18.5545   21.0174 C   0  0  0  0  0  0  0  0  0  0  0  0
   21.3742   18.8986   20.3549 H   0  0  0  0  0  0  0  0  0  0  0  0
   20.9428   17.6485   21.5136 H   0  0  0  0  0  0  0  0  0  0  0  0
   20.2893   19.6523   22.0722 C   0  0  0  0  0  0  0  0  0  0  0  0
   21.2379   19.9145   22.5605 H   0  0  0  0  0  0  0  0  0  0  0  0
   19.9390   20.5638   21.5686 H   0  0  0  0  0  0  0  0  0  0  0  0
   19.2645   19.2251   23.1499 C   0  0  0  0  0  0  0  0  0  0  0  0
   19.5856   18.2756   23.5952 H   0  0  0  0  0  0  0  0  0  0  0  0
   18.2879   19.0412   22.6832 H   0  0  0  0  0  0  0  0  0  0  0  0
   19.1018   20.3072   24.2445 C   0  0  0  0  0  0  0  0  0  0  0  0
   20.0663   20.5186   24.7222 H   0  0  0  0  0  0  0  0  0  0  0  0
   18.7986   21.2483   23.7652 H   0  0  0  0  0  0  0  0  0  0  0  0
   18.0429   19.9497   25.3182 C   0  0  0  0  0  0  0  0  0  0  0  0
   17.0618   19.8679   24.8305 H   0  0  0  0  0  0  0  0  0  0  0  0
   17.9575   20.7915   26.0192 H   0  0  0  0  0  0  0  0  0  0  0  0
   18.3005   18.6513   26.1291 C   0  0  0  0  0  0  0  0  0  0  0  0
   17.4597   18.5201   26.8230 H   0  0  0  0  0  0  0  0  0  0  0  0
   18.2829   17.7701   25.4753 H   0  0  0  0  0  0  0  0  0  0  0  0
   19.5968   18.6696   26.9655 C   0  0  0  0  0  0  0  0  0  0  0  0
   19.5135   17.9356   27.7716 H   0  0  0  0  0  0  0  0  0  0  0  0
   19.7306   19.6561   27.4172 H   0  0  0  0  0  0  0  0  0  0  0  0
   20.8474   18.3262   26.1809 N   0  3  0  0  0  0  0  0  0  0  0  0
   20.8097   17.3716   25.8088 H   0  0  0  0  0  0  0  0  0  0  0  0
   21.6905   18.3883   26.7623 H   0  0  0  0  0  0  0  0  0  0  0  0
   20.9759   18.9580   25.3847 H   0  0  0  0  0  0  0  0  0  0  0  0
  1  2  1  0  0  0  0
  1  3  1  0  0  0  0
  1  4  1  0  0  0  0
  1  5  1  0  0  0  0
  5  6  1  0  0  0  0
  5  7  1  0  0  0  0
  5  8  1  0  0  0  0
  8  9  1  0  0  0  0
  8 10  1  0  0  0  0
  8 11  1  0  0  0  0
 11 12  1  0  0  0  0
 11 13  1  0  0  0  0
 11 14  1  0  0  0  0
 14 15  1  0  0  0  0
 14 16  1  0  0  0  0
 14 17  1  0  0  0  0
 17 18  1  0  0  0  0
 17 19  1  0  0  0  0
 17 20  1  0  0  0  0
 20 21  1  0  0  0  0
 20 22  1  0  0  0  0
 20 23  1  0  0  0  0
 23 24  1  0  0  0  0
 23 25  1  0  0  0  0
 23 26  1  0  0  0  0
 26 27  1  0  0  0  0
 26 28  1  0  0  0  0
 26 29  1  0  0  0  0
M  END
> <VM2 Rank>
382

> <Conf_Id>
2234

> <Probability>
0.00

> <Sum Probability>
99.98

> <Delta G>
5.056

> <G>
63.204

> <E>
25.128

> <-TS>
38.076

> <U+W>
0.983

> <U>
52.883

> <W>
-51.900

> <W(PB)>
-54.321

> <W(SA)>
2.421

> <Valence>
5.142

> <Coulomb>
47.176

> <VdW>
0.566

> <VdW6>
-10.484

> <VdW12>
11.049

> <Bond>
0.281

> <Angle>
1.694

> <Pdih>
3.167

> <Idih>
0.000

> <Tether>
0.000

$$$$
VeraChem MOL file


 29 28  0  0  0  0  0  0  0  0999 V2000     
   19.8048   17.2903   21.8500 C   0  0  0  0  0  0  0  0  0  0  0  0
   20.7526   17.1392   21.3174 H   0  0  0  0  0  0  0  0  0  0  0  0
   20.0307   17.4358   22.9130 H   0  0  0  0  0  0  0  0  0  0  0  0
   19.2176   16.3674   21.7590 H   0  0  0  0  0  0  0  0  0  0  0  0
   19.0252   18.4884   21.2617 C   0  0  0  0  0  0  0  0  0  0  0  0
   18.0730   18.6212   21.7904 H   0  0  0  0  0  0  0  0  0  0  0  0
   18.7557   18.2534   20.2226 H   0  0  0  0  0  0  0  0  0  0  0  0
   19.8312   19.8101   21.2707 C   0  0  0  0  0  0  0  0  0  0  0  0
   20.7241   19.6770   20.6445 H   0  0  0  0  0  0  0  0  0  0  0  0
   19.2362   20.5901   20.7761 H   0  0  0  0  0  0  0  0  0  0  0  0
   20.2813   20.3284   22.6635 C   0  0  0  0  0  0  0  0  0  0  0  0
   20.9019   21.2179   22.4880 H   0  0  0  0  0  0  0  0  0  0  0  0
   20.9512   19.6059   23.1433 H   0  0  0  0  0  0  0  0  0  0  0  0
   19.1237   20.7472   23.6120 C   0  0  0  0  0  0  0  0  0  0  0  0
   19.4617   21.5965   24.2216 H   0  0  0  0  0  0  0  0  0  0  0  0
   18.2861   21.1321   23.0144 H   0  0  0  0  0  0  0  0  0  0  0  0
   18.6064   19.6443   24.5726 C   0  0  0  0  0  0  0  0  0  0  0  0
   18.2885   18.7587   24.0115 H   0  0  0  0  0  0  0  0  0  0  0  0
   17.7046   20.0224   25.0738 H   0  0  0  0  0  0  0  0  0  0  0  0
   19.6336   19.2338   25.6543 C   0  0  0  0  0  0  0  0  0  0  0  0
   20.5264   18.7988   25.1892 H   0  0  0  0  0  0  0  0  0  0  0  0
   19.9601   20.1228   26.2101 H   0  0  0  0  0  0  0  0  0  0  0  0
   19.0330   18.2113   26.6347 C   0  0  0  0  0  0  0  0  0  0  0  0
   18.7212   17.3169   26.0885 H   0  0  0  0  0  0  0  0  0  0  0  0
   18.1538   18.6411   27.1223 H   0  0  0  0  0  0  0  0  0  0  0  0
   20.0048   17.7841   27.7155 N   0  3  0  0  0  0  0  0  0  0  0  0
   20.8443   17.3454   27.3229 H   0  0  0  0  0  0  0  0  0  0  0  0
   19.5844   17.1036   28.3581 H   0  0  0  0  0  0  0  0  0  0  0  0
   20.3166   18.5785   28.2840 H   0  0  0  0  0  0  0  0  0  0  0  0
  1  2  1  0  0  0  0
  1  3  1  0  0  0  0
  1  4  1  0  0  0  0
  1  5  1  0  0  0  0
  5  6  1  0  0  0  0
  5  7  1  0  0  0  0
  5  8  1  0  0  0  0
  8  9  1  0  0  0  0
  8 10  1  0  0  0  0
  8 11  1  0  0  0  0
 11 12  1  0  0  0  0
 11 13  1  0  0  0  0
 11 14  1  0  0  0  0
 14 15  1  0  0  0  0
 14 16  1  0  0  0  0
 14 17  1  0  0  0  0
 17 18  1  0  0  0  0
 17 19  1  0  0  0  0
 17 20  1  0  0  0  0
 20 21  1  0  0  0  0
 20 22  1  0  0  0  0
 20 23  1  0  0  0  0
 23 24  1  0  0  0  0
 23 25  1  0  0  0  0
 23 26  1  0  0  0  0
 26 27  1  0  0  0  0
 26 28  1  0  0  0  0
 26 29  1  0  0  0  0
M  END
> <VM2 Rank>
383

> <Conf_Id>
1515

> <Probability>
0.00

> <Sum Probability>
99.98

> <Delta G>
5.100

> <G>
63.248

> <E>
25.009

> <-TS>
38.239

> <U+W>
0.865

> <U>
53.092

> <W>
-52.227

> <W(PB)>
-54.663

> <W(SA)>
2.436

> <Valence>
6.910

> <Coulomb>
45.632

> <VdW>
0.550

> <VdW6>
-10.516

> <VdW12>
11.066

> <Bond>
0.337

> <Angle>
2.297

> <Pdih>
4.276

> <Idih>
0.000

> <Tether>
0.000

$$$$
VeraChem MOL file


 29 28  0  0  0  0  0  0  0  0999 V2000     
   21.5869   19.1752   21.2781 C   0  0  0  0  0  0  0  0  0  0  0  0
   22.0875   20.0343   20.8129 H   0  0  0  0  0  0  0  0  0  0  0  0
   22.1970   18.8509   22.1311 H   0  0  0  0  0  0  0  0  0  0  0  0
   21.5649   18.3598   20.5434 H   0  0  0  0  0  0  0  0  0  0  0  0
   20.1606   19.5547   21.7293 C   0  0  0  0  0  0  0  0  0  0  0  0
   19.5850   19.9045   20.8610 H   0  0  0  0  0  0  0  0  0  0  0  0
   20.2244   20.3982   22.4280 H   0  0  0  0  0  0  0  0  0  0  0  0
   19.4357   18.3568   22.3878 C   0  0  0  0  0  0  0  0  0  0  0  0
   19.4412   17.5155   21.6811 H   0  0  0  0  0  0  0  0  0  0  0  0
   20.0050   18.0158   23.2584 H   0  0  0  0  0  0  0  0  0  0  0  0
   17.9609   18.6512   22.7714 C   0  0  0  0  0  0  0  0  0  0  0  0
   17.4681   17.7154   23.0687 H   0  0  0  0  0  0  0  0  0  0  0  0
   17.4374   18.9812   21.8635 H   0  0  0  0  0  0  0  0  0  0  0  0
   17.7418   19.7199   23.8783 C   0  0  0  0  0  0  0  0  0  0  0  0
   18.4682   20.5363   23.7940 H   0  0  0  0  0  0  0  0  0  0  0  0
   16.7663   20.1900   23.6920 H   0  0  0  0  0  0  0  0  0  0  0  0
   17.7064   19.1708   25.3306 C   0  0  0  0  0  0  0  0  0  0  0  0
   16.8968   18.4331   25.4168 H   0  0  0  0  0  0  0  0  0  0  0  0
   17.4314   19.9947   26.0037 H   0  0  0  0  0  0  0  0  0  0  0  0
   19.0193   18.5360   25.8472 C   0  0  0  0  0  0  0  0  0  0  0  0
   18.8812   18.2474   26.8976 H   0  0  0  0  0  0  0  0  0  0  0  0
   19.2238   17.6060   25.3034 H   0  0  0  0  0  0  0  0  0  0  0  0
   20.2236   19.4907   25.7449 C   0  0  0  0  0  0  0  0  0  0  0  0
   20.0218   20.3998   26.3177 H   0  0  0  0  0  0  0  0  0  0  0  0
   20.3851   19.7704   24.7009 H   0  0  0  0  0  0  0  0  0  0  0  0
   21.5088   18.8827   26.2675 N   0  3  0  0  0  0  0  0  0  0  0  0
   21.4325   18.6234   27.2566 H   0  0  0  0  0  0  0  0  0  0  0  0
   22.2973   19.5344   26.1897 H   0  0  0  0  0  0  0  0  0  0  0  0
   21.7681   18.0353   25.7521 H   0  0  0  0  0  0  0  0  0  0  0  0
  1  2  1  0  0  0  0
  1  3  1  0  0  0  0
  1  4  1  0  0  0  0
  1  5  1  0  0  0  0
  5  6  1  0  0  0  0
  5  7  1  0  0  0  0
  5  8  1  0  0  0  0
  8  9  1  0  0  0  0
  8 10  1  0  0  0  0
  8 11  1  0  0  0  0
 11 12  1  0  0  0  0
 11 13  1  0  0  0  0
 11 14  1  0  0  0  0
 14 15  1  0  0  0  0
 14 16  1  0  0  0  0
 14 17  1  0  0  0  0
 17 18  1  0  0  0  0
 17 19  1  0  0  0  0
 17 20  1  0  0  0  0
 20 21  1  0  0  0  0
 20 22  1  0  0  0  0
 20 23  1  0  0  0  0
 23 24  1  0  0  0  0
 23 25  1  0  0  0  0
 23 26  1  0  0  0  0
 26 27  1  0  0  0  0
 26 28  1  0  0  0  0
 26 29  1  0  0  0  0
M  END
> <VM2 Rank>
384

> <Conf_Id>
319

> <Probability>
0.00

> <Sum Probability>
99.98

> <Delta G>
5.136

> <G>
63.284

> <E>
25.047

> <-TS>
38.238

> <U+W>
0.902

> <U>
53.767

> <W>
-52.865

> <W(PB)>
-55.256

> <W(SA)>
2.391

> <Valence>
6.611

> <Coulomb>
46.905

> <VdW>
0.251

> <VdW6>
-11.031

> <VdW12>
11.281

> <Bond>
0.334

> <Angle>
2.337

> <Pdih>
3.940

> <Idih>
0.000

> <Tether>
0.000

$$$$
VeraChem MOL file


 29 28  0  0  0  0  0  0  0  0999 V2000     
   20.3575   18.4361   20.3560 C   0  0  0  0  0  0  0  0  0  0  0  0
   20.4383   17.6289   21.0946 H   0  0  0  0  0  0  0  0  0  0  0  0
   20.0862   17.9792   19.3955 H   0  0  0  0  0  0  0  0  0  0  0  0
   21.3464   18.8985   20.2412 H   0  0  0  0  0  0  0  0  0  0  0  0
   19.3006   19.4826   20.7753 C   0  0  0  0  0  0  0  0  0  0  0  0
   18.3255   18.9943   20.9040 H   0  0  0  0  0  0  0  0  0  0  0  0
   19.1696   20.2011   19.9541 H   0  0  0  0  0  0  0  0  0  0  0  0
   19.6825   20.2652   22.0576 C   0  0  0  0  0  0  0  0  0  0  0  0
   20.5938   20.8458   21.8589 H   0  0  0  0  0  0  0  0  0  0  0  0
   18.8965   21.0033   22.2688 H   0  0  0  0  0  0  0  0  0  0  0  0
   19.9127   19.3994   23.3234 C   0  0  0  0  0  0  0  0  0  0  0  0
   20.2096   20.0707   24.1359 H   0  0  0  0  0  0  0  0  0  0  0  0
   20.7649   18.7261   23.1630 H   0  0  0  0  0  0  0  0  0  0  0  0
   18.6678   18.5758   23.7425 C   0  0  0  0  0  0  0  0  0  0  0  0
   17.7922   19.2318   23.8415 H   0  0  0  0  0  0  0  0  0  0  0  0
   18.4307   17.8711   22.9349 H   0  0  0  0  0  0  0  0  0  0  0  0
   18.8654   17.7524   25.0420 C   0  0  0  0  0  0  0  0  0  0  0  0
   19.8967   17.3808   25.1075 H   0  0  0  0  0  0  0  0  0  0  0  0
   18.2363   16.8544   24.9691 H   0  0  0  0  0  0  0  0  0  0  0  0
   18.4620   18.4898   26.3466 C   0  0  0  0  0  0  0  0  0  0  0  0
   17.4100   18.7966   26.2769 H   0  0  0  0  0  0  0  0  0  0  0  0
   18.5151   17.7838   27.1860 H   0  0  0  0  0  0  0  0  0  0  0  0
   19.3141   19.7264   26.6893 C   0  0  0  0  0  0  0  0  0  0  0  0
   18.9369   20.1816   27.6091 H   0  0  0  0  0  0  0  0  0  0  0  0
   19.2321   20.4663   25.8899 H   0  0  0  0  0  0  0  0  0  0  0  0
   20.7814   19.4103   26.9023 N   0  3  0  0  0  0  0  0  0  0  0  0
   20.9179   18.7477   27.6727 H   0  0  0  0  0  0  0  0  0  0  0  0
   21.3237   20.2509   27.1296 H   0  0  0  0  0  0  0  0  0  0  0  0
   21.2014   18.9934   26.0658 H   0  0  0  0  0  0  0  0  0  0  0  0
  1  2  1  0  0  0  0
  1  3  1  0  0  0  0
  1  4  1  0  0  0  0
  1  5  1  0  0  0  0
  5  6  1  0  0  0  0
  5  7  1  0  0  0  0
  5  8  1  0  0  0  0
  8  9  1  0  0  0  0
  8 10  1  0  0  0  0
  8 11  1  0  0  0  0
 11 12  1  0  0  0  0
 11 13  1  0  0  0  0
 11 14  1  0  0  0  0
 14 15  1  0  0  0  0
 14 16  1  0  0  0  0
 14 17  1  0  0  0  0
 17 18  1  0  0  0  0
 17 19  1  0  0  0  0
 17 20  1  0  0  0  0
 20 21  1  0  0  0  0
 20 22  1  0  0  0  0
 20 23  1  0  0  0  0
 23 24  1  0  0  0  0
 23 25  1  0  0  0  0
 23 26  1  0  0  0  0
 26 27  1  0  0  0  0
 26 28  1  0  0  0  0
 26 29  1  0  0  0  0
M  END
> <VM2 Rank>
385

> <Conf_Id>
223

> <Probability>
0.00

> <Sum Probability>
99.98

> <Delta G>
5.139

> <G>
63.287

> <E>
25.116

> <-TS>
38.171

> <U+W>
0.972

> <U>
53.454

> <W>
-52.482

> <W(PB)>
-54.867

> <W(SA)>
2.385

> <Valence>
6.344

> <Coulomb>
46.378

> <VdW>
0.731

> <VdW6>
-10.924

> <VdW12>
11.655

> <Bond>
0.338

> <Angle>
2.042

> <Pdih>
3.964

> <Idih>
0.000

> <Tether>
0.000

$$$$
VeraChem MOL file


 29 28  0  0  0  0  0  0  0  0999 V2000     
   19.9811   18.0012   20.6977 C   0  0  0  0  0  0  0  0  0  0  0  0
   19.3510   17.4008   21.3617 H   0  0  0  0  0  0  0  0  0  0  0  0
   19.8083   17.6467   19.6734 H   0  0  0  0  0  0  0  0  0  0  0  0
   21.0309   17.7994   20.9469 H   0  0  0  0  0  0  0  0  0  0  0  0
   19.6664   19.5111   20.8041 C   0  0  0  0  0  0  0  0  0  0  0  0
   18.6153   19.6996   20.5450 H   0  0  0  0  0  0  0  0  0  0  0  0
   20.2627   20.0314   20.0415 H   0  0  0  0  0  0  0  0  0  0  0  0
   19.9997   20.1298   22.1867 C   0  0  0  0  0  0  0  0  0  0  0  0
   20.8862   19.6489   22.6202 H   0  0  0  0  0  0  0  0  0  0  0  0
   20.2914   21.1759   22.0198 H   0  0  0  0  0  0  0  0  0  0  0  0
   18.8244   20.1425   23.2013 C   0  0  0  0  0  0  0  0  0  0  0  0
   17.9705   20.6636   22.7472 H   0  0  0  0  0  0  0  0  0  0  0  0
   19.1131   20.7582   24.0633 H   0  0  0  0  0  0  0  0  0  0  0  0
   18.3462   18.7581   23.7104 C   0  0  0  0  0  0  0  0  0  0  0  0
   17.5181   18.9129   24.4148 H   0  0  0  0  0  0  0  0  0  0  0  0
   17.9067   18.1968   22.8768 H   0  0  0  0  0  0  0  0  0  0  0  0
   19.4397   17.8930   24.3940 C   0  0  0  0  0  0  0  0  0  0  0  0
   20.2043   17.6134   23.6581 H   0  0  0  0  0  0  0  0  0  0  0  0
   18.9845   16.9487   24.7228 H   0  0  0  0  0  0  0  0  0  0  0  0
   20.1326   18.5629   25.6062 C   0  0  0  0  0  0  0  0  0  0  0  0
   20.8733   17.8662   26.0204 H   0  0  0  0  0  0  0  0  0  0  0  0
   20.6922   19.4477   25.2768 H   0  0  0  0  0  0  0  0  0  0  0  0
   19.1396   18.9595   26.7141 C   0  0  0  0  0  0  0  0  0  0  0  0
   18.5914   18.0755   27.0506 H   0  0  0  0  0  0  0  0  0  0  0  0
   18.4201   19.6833   26.3227 H   0  0  0  0  0  0  0  0  0  0  0  0
   19.8142   19.5797   27.9204 N   0  3  0  0  0  0  0  0  0  0  0  0
   20.4861   18.9376   28.3537 H   0  0  0  0  0  0  0  0  0  0  0  0
   19.1358   19.8366   28.6459 H   0  0  0  0  0  0  0  0  0  0  0  0
   20.3268   20.4329   27.6745 H   0  0  0  0  0  0  0  0  0  0  0  0
  1  2  1  0  0  0  0
  1  3  1  0  0  0  0
  1  4  1  0  0  0  0
  1  5  1  0  0  0  0
  5  6  1  0  0  0  0
  5  7  1  0  0  0  0
  5  8  1  0  0  0  0
  8  9  1  0  0  0  0
  8 10  1  0  0  0  0
  8 11  1  0  0  0  0
 11 12  1  0  0  0  0
 11 13  1  0  0  0  0
 11 14  1  0  0  0  0
 14 15  1  0  0  0  0
 14 16  1  0  0  0  0
 14 17  1  0  0  0  0
 17 18  1  0  0  0  0
 17 19  1  0  0  0  0
 17 20  1  0  0  0  0
 20 21  1  0  0  0  0
 20 22  1  0  0  0  0
 20 23  1  0  0  0  0
 23 24  1  0  0  0  0
 23 25  1  0  0  0  0
 23 26  1  0  0  0  0
 26 27  1  0  0  0  0
 26 28  1  0  0  0  0
 26 29  1  0  0  0  0
M  END
> <VM2 Rank>
386

> <Conf_Id>
656

> <Probability>
0.00

> <Sum Probability>
99.98

> <Delta G>
5.165

> <G>
63.313

> <E>
24.839

> <-TS>
38.474

> <U+W>
0.694

> <U>
53.063

> <W>
-52.369

> <W(PB)>
-54.754

> <W(SA)>
2.385

> <Valence>
6.871

> <Coulomb>
45.732

> <VdW>
0.459

> <VdW6>
-11.438

> <VdW12>
11.898

> <Bond>
0.351

> <Angle>
2.406

> <Pdih>
4.115

> <Idih>
0.000

> <Tether>
0.000

$$$$
VeraChem MOL file


 29 28  0  0  0  0  0  0  0  0999 V2000     
   20.7776   17.6811   21.5742 C   0  0  0  0  0  0  0  0  0  0  0  0
   21.4638   17.6542   22.4305 H   0  0  0  0  0  0  0  0  0  0  0  0
   19.9154   17.0429   21.8032 H   0  0  0  0  0  0  0  0  0  0  0  0
   21.2968   17.2375   20.7148 H   0  0  0  0  0  0  0  0  0  0  0  0
   20.3444   19.1298   21.2540 C   0  0  0  0  0  0  0  0  0  0  0  0
   19.6418   19.1292   20.4090 H   0  0  0  0  0  0  0  0  0  0  0  0
   21.2253   19.6966   20.9215 H   0  0  0  0  0  0  0  0  0  0  0  0
   19.7117   19.8597   22.4625 C   0  0  0  0  0  0  0  0  0  0  0  0
   20.4234   19.8513   23.2964 H   0  0  0  0  0  0  0  0  0  0  0  0
   19.5616   20.9150   22.1964 H   0  0  0  0  0  0  0  0  0  0  0  0
   18.3540   19.2556   22.9016 C   0  0  0  0  0  0  0  0  0  0  0  0
   18.4673   18.2041   23.1885 H   0  0  0  0  0  0  0  0  0  0  0  0
   17.6741   19.2556   22.0387 H   0  0  0  0  0  0  0  0  0  0  0  0
   17.6766   20.0376   24.0545 C   0  0  0  0  0  0  0  0  0  0  0  0
   17.4742   21.0622   23.7134 H   0  0  0  0  0  0  0  0  0  0  0  0
   16.6922   19.5904   24.2493 H   0  0  0  0  0  0  0  0  0  0  0  0
   18.4657   20.1074   25.3902 C   0  0  0  0  0  0  0  0  0  0  0  0
   17.8700   20.7130   26.0871 H   0  0  0  0  0  0  0  0  0  0  0  0
   19.4026   20.6622   25.2567 H   0  0  0  0  0  0  0  0  0  0  0  0
   18.7279   18.7335   26.0638 C   0  0  0  0  0  0  0  0  0  0  0  0
   18.8119   18.8778   27.1491 H   0  0  0  0  0  0  0  0  0  0  0  0
   17.8589   18.0791   25.9147 H   0  0  0  0  0  0  0  0  0  0  0  0
   20.0011   18.0120   25.5752 C   0  0  0  0  0  0  0  0  0  0  0  0
   19.9849   17.9070   24.4888 H   0  0  0  0  0  0  0  0  0  0  0  0
   20.0373   17.0103   26.0120 H   0  0  0  0  0  0  0  0  0  0  0  0
   21.2849   18.7213   25.9590 N   0  3  0  0  0  0  0  0  0  0  0  0
   22.1134   18.2152   25.6277 H   0  0  0  0  0  0  0  0  0  0  0  0
   21.3770   18.8120   26.9761 H   0  0  0  0  0  0  0  0  0  0  0  0
   21.3291   19.6663   25.5663 H   0  0  0  0  0  0  0  0  0  0  0  0
  1  2  1  0  0  0  0
  1  3  1  0  0  0  0
  1  4  1  0  0  0  0
  1  5  1  0  0  0  0
  5  6  1  0  0  0  0
  5  7  1  0  0  0  0
  5  8  1  0  0  0  0
  8  9  1  0  0  0  0
  8 10  1  0  0  0  0
  8 11  1  0  0  0  0
 11 12  1  0  0  0  0
 11 13  1  0  0  0  0
 11 14  1  0  0  0  0
 14 15  1  0  0  0  0
 14 16  1  0  0  0  0
 14 17  1  0  0  0  0
 17 18  1  0  0  0  0
 17 19  1  0  0  0  0
 17 20  1  0  0  0  0
 20 21  1  0  0  0  0
 20 22  1  0  0  0  0
 20 23  1  0  0  0  0
 23 24  1  0  0  0  0
 23 25  1  0  0  0  0
 23 26  1  0  0  0  0
 26 27  1  0  0  0  0
 26 28  1  0  0  0  0
 26 29  1  0  0  0  0
M  END
> <VM2 Rank>
387

> <Conf_Id>
292

> <Probability>
0.00

> <Sum Probability>
99.98

> <Delta G>
5.165

> <G>
63.313

> <E>
24.780

> <-TS>
38.533

> <U+W>
0.635

> <U>
53.662

> <W>
-53.026

> <W(PB)>
-55.342

> <W(SA)>
2.316

> <Valence>
6.196

> <Coulomb>
47.384

> <VdW>
0.082

> <VdW6>
-11.955

> <VdW12>
12.037

> <Bond>
0.329

> <Angle>
2.009

> <Pdih>
3.857

> <Idih>
0.000

> <Tether>
0.000

$$$$
VeraChem MOL file


 29 28  0  0  0  0  0  0  0  0999 V2000     
   20.6613   19.2491   20.1883 C   0  0  0  0  0  0  0  0  0  0  0  0
   21.5161   18.9006   20.7808 H   0  0  0  0  0  0  0  0  0  0  0  0
   20.1960   18.3780   19.7090 H   0  0  0  0  0  0  0  0  0  0  0  0
   21.0536   19.8988   19.3952 H   0  0  0  0  0  0  0  0  0  0  0  0
   19.6400   20.0158   21.0588 C   0  0  0  0  0  0  0  0  0  0  0  0
   18.8747   20.4524   20.4020 H   0  0  0  0  0  0  0  0  0  0  0  0
   20.1372   20.8608   21.5552 H   0  0  0  0  0  0  0  0  0  0  0  0
   18.9378   19.1278   22.1144 C   0  0  0  0  0  0  0  0  0  0  0  0
   18.1467   19.7244   22.5864 H   0  0  0  0  0  0  0  0  0  0  0  0
   18.4370   18.2881   21.6134 H   0  0  0  0  0  0  0  0  0  0  0  0
   19.8984   18.5893   23.2045 C   0  0  0  0  0  0  0  0  0  0  0  0
   20.4063   19.4302   23.6923 H   0  0  0  0  0  0  0  0  0  0  0  0
   20.6871   17.9910   22.7305 H   0  0  0  0  0  0  0  0  0  0  0  0
   19.1948   17.6970   24.2605 C   0  0  0  0  0  0  0  0  0  0  0  0
   18.7585   16.8282   23.7485 H   0  0  0  0  0  0  0  0  0  0  0  0
   19.9449   17.2792   24.9430 H   0  0  0  0  0  0  0  0  0  0  0  0
   18.0764   18.3912   25.0831 C   0  0  0  0  0  0  0  0  0  0  0  0
   17.6762   17.6686   25.8076 H   0  0  0  0  0  0  0  0  0  0  0  0
   17.2364   18.6273   24.4167 H   0  0  0  0  0  0  0  0  0  0  0  0
   18.4854   19.6819   25.8418 C   0  0  0  0  0  0  0  0  0  0  0  0
   18.8503   20.4484   25.1465 H   0  0  0  0  0  0  0  0  0  0  0  0
   17.5781   20.1024   26.2952 H   0  0  0  0  0  0  0  0  0  0  0  0
   19.5070   19.4559   26.9756 C   0  0  0  0  0  0  0  0  0  0  0  0
   19.2450   18.5527   27.5332 H   0  0  0  0  0  0  0  0  0  0  0  0
   19.4685   20.3031   27.6656 H   0  0  0  0  0  0  0  0  0  0  0  0
   20.9428   19.3302   26.5079 N   0  3  0  0  0  0  0  0  0  0  0  0
   21.0538   18.5614   25.8404 H   0  0  0  0  0  0  0  0  0  0  0  0
   21.5832   19.1520   27.2895 H   0  0  0  0  0  0  0  0  0  0  0  0
   21.2658   20.1857   26.0446 H   0  0  0  0  0  0  0  0  0  0  0  0
  1  2  1  0  0  0  0
  1  3  1  0  0  0  0
  1  4  1  0  0  0  0
  1  5  1  0  0  0  0
  5  6  1  0  0  0  0
  5  7  1  0  0  0  0
  5  8  1  0  0  0  0
  8  9  1  0  0  0  0
  8 10  1  0  0  0  0
  8 11  1  0  0  0  0
 11 12  1  0  0  0  0
 11 13  1  0  0  0  0
 11 14  1  0  0  0  0
 14 15  1  0  0  0  0
 14 16  1  0  0  0  0
 14 17  1  0  0  0  0
 17 18  1  0  0  0  0
 17 19  1  0  0  0  0
 17 20  1  0  0  0  0
 20 21  1  0  0  0  0
 20 22  1  0  0  0  0
 20 23  1  0  0  0  0
 23 24  1  0  0  0  0
 23 25  1  0  0  0  0
 23 26  1  0  0  0  0
 26 27  1  0  0  0  0
 26 28  1  0  0  0  0
 26 29  1  0  0  0  0
M  END
> <VM2 Rank>
388

> <Conf_Id>
2615

> <Probability>
0.00

> <Sum Probability>
99.98

> <Delta G>
5.172

> <G>
63.320

> <E>
25.073

> <-TS>
38.247

> <U+W>
0.928

> <U>
53.336

> <W>
-52.408

> <W(PB)>
-54.774

> <W(SA)>
2.365

> <Valence>
5.652

> <Coulomb>
47.086

> <VdW>
0.599

> <VdW6>
-11.213

> <VdW12>
11.812

> <Bond>
0.338

> <Angle>
2.106

> <Pdih>
3.208

> <Idih>
0.000

> <Tether>
0.000

$$$$
VeraChem MOL file


 29 28  0  0  0  0  0  0  0  0999 V2000     
   21.3911   19.3983   21.6134 C   0  0  0  0  0  0  0  0  0  0  0  0
   21.1249   20.4284   21.8801 H   0  0  0  0  0  0  0  0  0  0  0  0
   21.9268   18.9501   22.4602 H   0  0  0  0  0  0  0  0  0  0  0  0
   22.0861   19.4468   20.7652 H   0  0  0  0  0  0  0  0  0  0  0  0
   20.1430   18.5658   21.2416 C   0  0  0  0  0  0  0  0  0  0  0  0
   20.4704   17.5833   20.8740 H   0  0  0  0  0  0  0  0  0  0  0  0
   19.6119   19.0451   20.4074 H   0  0  0  0  0  0  0  0  0  0  0  0
   19.1739   18.3540   22.4287 C   0  0  0  0  0  0  0  0  0  0  0  0
   18.3934   17.6440   22.1228 H   0  0  0  0  0  0  0  0  0  0  0  0
   19.7179   17.8766   23.2521 H   0  0  0  0  0  0  0  0  0  0  0  0
   18.4992   19.6631   22.9108 C   0  0  0  0  0  0  0  0  0  0  0  0
   17.9851   20.1277   22.0583 H   0  0  0  0  0  0  0  0  0  0  0  0
   19.2485   20.3930   23.2374 H   0  0  0  0  0  0  0  0  0  0  0  0
   17.4637   19.4416   24.0412 C   0  0  0  0  0  0  0  0  0  0  0  0
   16.9821   20.4028   24.2676 H   0  0  0  0  0  0  0  0  0  0  0  0
   16.6633   18.7911   23.6628 H   0  0  0  0  0  0  0  0  0  0  0  0
   18.0115   18.8351   25.3618 C   0  0  0  0  0  0  0  0  0  0  0  0
   18.3873   17.8184   25.1931 H   0  0  0  0  0  0  0  0  0  0  0  0
   17.1573   18.7164   26.0426 H   0  0  0  0  0  0  0  0  0  0  0  0
   19.0747   19.7046   26.0854 C   0  0  0  0  0  0  0  0  0  0  0  0
   18.8185   20.7666   25.9748 H   0  0  0  0  0  0  0  0  0  0  0  0
   19.0332   19.4968   27.1629 H   0  0  0  0  0  0  0  0  0  0  0  0
   20.5238   19.4759   25.6076 C   0  0  0  0  0  0  0  0  0  0  0  0
   21.1798   20.2100   26.0832 H   0  0  0  0  0  0  0  0  0  0  0  0
   20.5929   19.6104   24.5266 H   0  0  0  0  0  0  0  0  0  0  0  0
   21.0631   18.0996   25.9446 N   0  3  0  0  0  0  0  0  0  0  0  0
   20.5046   17.3566   25.5141 H   0  0  0  0  0  0  0  0  0  0  0  0
   21.0627   17.9307   26.9559 H   0  0  0  0  0  0  0  0  0  0  0  0
   22.0294   17.9796   25.6218 H   0  0  0  0  0  0  0  0  0  0  0  0
  1  2  1  0  0  0  0
  1  3  1  0  0  0  0
  1  4  1  0  0  0  0
  1  5  1  0  0  0  0
  5  6  1  0  0  0  0
  5  7  1  0  0  0  0
  5  8  1  0  0  0  0
  8  9  1  0  0  0  0
  8 10  1  0  0  0  0
  8 11  1  0  0  0  0
 11 12  1  0  0  0  0
 11 13  1  0  0  0  0
 11 14  1  0  0  0  0
 14 15  1  0  0  0  0
 14 16  1  0  0  0  0
 14 17  1  0  0  0  0
 17 18  1  0  0  0  0
 17 19  1  0  0  0  0
 17 20  1  0  0  0  0
 20 21  1  0  0  0  0
 20 22  1  0  0  0  0
 20 23  1  0  0  0  0
 23 24  1  0  0  0  0
 23 25  1  0  0  0  0
 23 26  1  0  0  0  0
 26 27  1  0  0  0  0
 26 28  1  0  0  0  0
 26 29  1  0  0  0  0
M  END
> <VM2 Rank>
389

> <Conf_Id>
1047

> <Probability>
0.00

> <Sum Probability>
99.99

> <Delta G>
5.188

> <G>
63.336

> <E>
24.802

> <-TS>
38.534

> <U+W>
0.658

> <U>
53.662

> <W>
-53.005

> <W(PB)>
-55.343

> <W(SA)>
2.338

> <Valence>
6.196

> <Coulomb>
47.385

> <VdW>
0.081

> <VdW6>
-11.957

> <VdW12>
12.038

> <Bond>
0.329

> <Angle>
2.009

> <Pdih>
3.857

> <Idih>
0.000

> <Tether>
0.000

$$$$
VeraChem MOL file


 29 28  0  0  0  0  0  0  0  0999 V2000     
   20.3286   18.3161   20.1673 C   0  0  0  0  0  0  0  0  0  0  0  0
   21.2028   18.0219   20.7609 H   0  0  0  0  0  0  0  0  0  0  0  0
   20.2330   17.5968   19.3436 H   0  0  0  0  0  0  0  0  0  0  0  0
   20.5255   19.3033   19.7296 H   0  0  0  0  0  0  0  0  0  0  0  0
   19.0405   18.3337   21.0212 C   0  0  0  0  0  0  0  0  0  0  0  0
   18.8846   17.3458   21.4765 H   0  0  0  0  0  0  0  0  0  0  0  0
   18.1808   18.5057   20.3585 H   0  0  0  0  0  0  0  0  0  0  0  0
   19.0430   19.4229   22.1210 C   0  0  0  0  0  0  0  0  0  0  0  0
   19.1930   20.4091   21.6609 H   0  0  0  0  0  0  0  0  0  0  0  0
   18.0463   19.4426   22.5801 H   0  0  0  0  0  0  0  0  0  0  0  0
   20.1122   19.1890   23.2179 C   0  0  0  0  0  0  0  0  0  0  0  0
   21.1080   19.1720   22.7569 H   0  0  0  0  0  0  0  0  0  0  0  0
   19.9671   18.1979   23.6648 H   0  0  0  0  0  0  0  0  0  0  0  0
   20.1164   20.2824   24.3182 C   0  0  0  0  0  0  0  0  0  0  0  0
   20.9520   20.1044   25.0062 H   0  0  0  0  0  0  0  0  0  0  0  0
   20.3350   21.2508   23.8472 H   0  0  0  0  0  0  0  0  0  0  0  0
   18.7996   20.4199   25.1284 C   0  0  0  0  0  0  0  0  0  0  0  0
   18.0090   20.7946   24.4650 H   0  0  0  0  0  0  0  0  0  0  0  0
   18.9361   21.2034   25.8864 H   0  0  0  0  0  0  0  0  0  0  0  0
   18.2896   19.1327   25.8297 C   0  0  0  0  0  0  0  0  0  0  0  0
   17.3146   19.3630   26.2789 H   0  0  0  0  0  0  0  0  0  0  0  0
   18.0974   18.3364   25.0995 H   0  0  0  0  0  0  0  0  0  0  0  0
   19.2080   18.6168   26.9570 C   0  0  0  0  0  0  0  0  0  0  0  0
   18.6327   17.9584   27.6135 H   0  0  0  0  0  0  0  0  0  0  0  0
   19.5684   19.4593   27.5533 H   0  0  0  0  0  0  0  0  0  0  0  0
   20.4061   17.8245   26.4743 N   0  3  0  0  0  0  0  0  0  0  0  0
   20.1217   16.9766   25.9732 H   0  0  0  0  0  0  0  0  0  0  0  0
   21.0038   17.5266   27.2532 H   0  0  0  0  0  0  0  0  0  0  0  0
   20.9875   18.3754   25.8360 H   0  0  0  0  0  0  0  0  0  0  0  0
  1  2  1  0  0  0  0
  1  3  1  0  0  0  0
  1  4  1  0  0  0  0
  1  5  1  0  0  0  0
  5  6  1  0  0  0  0
  5  7  1  0  0  0  0
  5  8  1  0  0  0  0
  8  9  1  0  0  0  0
  8 10  1  0  0  0  0
  8 11  1  0  0  0  0
 11 12  1  0  0  0  0
 11 13  1  0  0  0  0
 11 14  1  0  0  0  0
 14 15  1  0  0  0  0
 14 16  1  0  0  0  0
 14 17  1  0  0  0  0
 17 18  1  0  0  0  0
 17 19  1  0  0  0  0
 17 20  1  0  0  0  0
 20 21  1  0  0  0  0
 20 22  1  0  0  0  0
 20 23  1  0  0  0  0
 23 24  1  0  0  0  0
 23 25  1  0  0  0  0
 23 26  1  0  0  0  0
 26 27  1  0  0  0  0
 26 28  1  0  0  0  0
 26 29  1  0  0  0  0
M  END
> <VM2 Rank>
390

> <Conf_Id>
282

> <Probability>
0.00

> <Sum Probability>
99.99

> <Delta G>
5.206

> <G>
63.354

> <E>
25.107

> <-TS>
38.247

> <U+W>
0.962

> <U>
53.336

> <W>
-52.374

> <W(PB)>
-54.774

> <W(SA)>
2.400

> <Valence>
5.652

> <Coulomb>
47.086

> <VdW>
0.599

> <VdW6>
-11.213

> <VdW12>
11.812

> <Bond>
0.338

> <Angle>
2.105

> <Pdih>
3.209

> <Idih>
0.000

> <Tether>
0.000

$$$$
VeraChem MOL file


 29 28  0  0  0  0  0  0  0  0999 V2000     
   20.5830   19.6920   20.7355 C   0  0  0  0  0  0  0  0  0  0  0  0
   20.4645   20.5286   21.4316 H   0  0  0  0  0  0  0  0  0  0  0  0
   21.5207   19.1753   20.9776 H   0  0  0  0  0  0  0  0  0  0  0  0
   20.6874   20.1163   19.7286 H   0  0  0  0  0  0  0  0  0  0  0  0
   19.3838   18.7176   20.7864 C   0  0  0  0  0  0  0  0  0  0  0  0
   19.5282   17.9683   19.9955 H   0  0  0  0  0  0  0  0  0  0  0  0
   18.4537   19.2457   20.5350 H   0  0  0  0  0  0  0  0  0  0  0  0
   19.2320   17.9731   22.1386 C   0  0  0  0  0  0  0  0  0  0  0  0
   18.7997   16.9856   21.9262 H   0  0  0  0  0  0  0  0  0  0  0  0
   20.2168   17.7684   22.5782 H   0  0  0  0  0  0  0  0  0  0  0  0
   18.2987   18.6654   23.1683 C   0  0  0  0  0  0  0  0  0  0  0  0
   18.1215   17.9722   24.0011 H   0  0  0  0  0  0  0  0  0  0  0  0
   17.3140   18.8192   22.7062 H   0  0  0  0  0  0  0  0  0  0  0  0
   18.7952   20.0192   23.7386 C   0  0  0  0  0  0  0  0  0  0  0  0
   18.8207   20.7645   22.9342 H   0  0  0  0  0  0  0  0  0  0  0  0
   18.0456   20.3945   24.4479 H   0  0  0  0  0  0  0  0  0  0  0  0
   20.1795   19.9714   24.4404 C   0  0  0  0  0  0  0  0  0  0  0  0
   20.4185   20.9771   24.8127 H   0  0  0  0  0  0  0  0  0  0  0  0
   20.9593   19.7341   23.7055 H   0  0  0  0  0  0  0  0  0  0  0  0
   20.2765   18.9671   25.6152 C   0  0  0  0  0  0  0  0  0  0  0  0
   20.1561   17.9416   25.2432 H   0  0  0  0  0  0  0  0  0  0  0  0
   21.2849   19.0224   26.0462 H   0  0  0  0  0  0  0  0  0  0  0  0
   19.2406   19.2433   26.7205 C   0  0  0  0  0  0  0  0  0  0  0  0
   18.2313   19.1530   26.3108 H   0  0  0  0  0  0  0  0  0  0  0  0
   19.3695   20.2606   27.0995 H   0  0  0  0  0  0  0  0  0  0  0  0
   19.3547   18.2890   27.8915 N   0  3  0  0  0  0  0  0  0  0  0  0
   20.2749   18.3444   28.3403 H   0  0  0  0  0  0  0  0  0  0  0  0
   19.2165   17.3144   27.6046 H   0  0  0  0  0  0  0  0  0  0  0  0
   18.6563   18.4898   28.6157 H   0  0  0  0  0  0  0  0  0  0  0  0
  1  2  1  0  0  0  0
  1  3  1  0  0  0  0
  1  4  1  0  0  0  0
  1  5  1  0  0  0  0
  5  6  1  0  0  0  0
  5  7  1  0  0  0  0
  5  8  1  0  0  0  0
  8  9  1  0  0  0  0
  8 10  1  0  0  0  0
  8 11  1  0  0  0  0
 11 12  1  0  0  0  0
 11 13  1  0  0  0  0
 11 14  1  0  0  0  0
 14 15  1  0  0  0  0
 14 16  1  0  0  0  0
 14 17  1  0  0  0  0
 17 18  1  0  0  0  0
 17 19  1  0  0  0  0
 17 20  1  0  0  0  0
 20 21  1  0  0  0  0
 20 22  1  0  0  0  0
 20 23  1  0  0  0  0
 23 24  1  0  0  0  0
 23 25  1  0  0  0  0
 23 26  1  0  0  0  0
 26 27  1  0  0  0  0
 26 28  1  0  0  0  0
 26 29  1  0  0  0  0
M  END
> <VM2 Rank>
391

> <Conf_Id>
692

> <Probability>
0.00

> <Sum Probability>
99.99

> <Delta G>
5.240

> <G>
63.388

> <E>
24.913

> <-TS>
38.474

> <U+W>
0.769

> <U>
53.064

> <W>
-52.295

> <W(PB)>
-54.697

> <W(SA)>
2.402

> <Valence>
6.871

> <Coulomb>
45.733

> <VdW>
0.460

> <VdW6>
-11.439

> <VdW12>
11.898

> <Bond>
0.351

> <Angle>
2.406

> <Pdih>
4.115

> <Idih>
0.000

> <Tether>
0.000

$$$$
VeraChem MOL file


 29 28  0  0  0  0  0  0  0  0999 V2000     
   19.7097   18.4065   19.8937 C   0  0  0  0  0  0  0  0  0  0  0  0
   20.7239   18.6074   19.5245 H   0  0  0  0  0  0  0  0  0  0  0  0
   19.6487   17.3446   20.1656 H   0  0  0  0  0  0  0  0  0  0  0  0
   19.0091   18.5838   19.0675 H   0  0  0  0  0  0  0  0  0  0  0  0
   19.3693   19.3075   21.0995 C   0  0  0  0  0  0  0  0  0  0  0  0
   18.3367   19.1064   21.4143 H   0  0  0  0  0  0  0  0  0  0  0  0
   19.4092   20.3612   20.7904 H   0  0  0  0  0  0  0  0  0  0  0  0
   20.3417   19.0723   22.2791 C   0  0  0  0  0  0  0  0  0  0  0  0
   20.2743   18.0286   22.6130 H   0  0  0  0  0  0  0  0  0  0  0  0
   21.3722   19.2095   21.9235 H   0  0  0  0  0  0  0  0  0  0  0  0
   20.1078   20.0291   23.4764 C   0  0  0  0  0  0  0  0  0  0  0  0
   20.2725   21.0623   23.1412 H   0  0  0  0  0  0  0  0  0  0  0  0
   20.8794   19.8379   24.2326 H   0  0  0  0  0  0  0  0  0  0  0  0
   18.7021   19.9375   24.1302 C   0  0  0  0  0  0  0  0  0  0  0  0
   18.6387   20.6544   24.9576 H   0  0  0  0  0  0  0  0  0  0  0  0
   17.9485   20.2781   23.4080 H   0  0  0  0  0  0  0  0  0  0  0  0
   18.2985   18.5263   24.6339 C   0  0  0  0  0  0  0  0  0  0  0  0
   18.1944   17.8563   23.7702 H   0  0  0  0  0  0  0  0  0  0  0  0
   17.2955   18.5863   25.0782 H   0  0  0  0  0  0  0  0  0  0  0  0
   19.2593   17.8670   25.6591 C   0  0  0  0  0  0  0  0  0  0  0  0
   18.8989   16.8463   25.8435 H   0  0  0  0  0  0  0  0  0  0  0  0
   20.2663   17.7533   25.2382 H   0  0  0  0  0  0  0  0  0  0  0  0
   19.3268   18.5872   27.0217 C   0  0  0  0  0  0  0  0  0  0  0  0
   19.7109   17.8930   27.7740 H   0  0  0  0  0  0  0  0  0  0  0  0
   18.3230   18.8954   27.3261 H   0  0  0  0  0  0  0  0  0  0  0  0
   20.2287   19.8047   27.0413 N   0  3  0  0  0  0  0  0  0  0  0  0
   21.2020   19.5577   26.8351 H   0  0  0  0  0  0  0  0  0  0  0  0
   20.2240   20.2667   27.9574 H   0  0  0  0  0  0  0  0  0  0  0  0
   19.9370   20.4992   26.3475 H   0  0  0  0  0  0  0  0  0  0  0  0
  1  2  1  0  0  0  0
  1  3  1  0  0  0  0
  1  4  1  0  0  0  0
  1  5  1  0  0  0  0
  5  6  1  0  0  0  0
  5  7  1  0  0  0  0
  5  8  1  0  0  0  0
  8  9  1  0  0  0  0
  8 10  1  0  0  0  0
  8 11  1  0  0  0  0
 11 12  1  0  0  0  0
 11 13  1  0  0  0  0
 11 14  1  0  0  0  0
 14 15  1  0  0  0  0
 14 16  1  0  0  0  0
 14 17  1  0  0  0  0
 17 18  1  0  0  0  0
 17 19  1  0  0  0  0
 17 20  1  0  0  0  0
 20 21  1  0  0  0  0
 20 22  1  0  0  0  0
 20 23  1  0  0  0  0
 23 24  1  0  0  0  0
 23 25  1  0  0  0  0
 23 26  1  0  0  0  0
 26 27  1  0  0  0  0
 26 28  1  0  0  0  0
 26 29  1  0  0  0  0
M  END
> <VM2 Rank>
392

> <Conf_Id>
1034

> <Probability>
0.00

> <Sum Probability>
99.99

> <Delta G>
5.253

> <G>
63.401

> <E>
24.915

> <-TS>
38.487

> <U+W>
0.770

> <U>
53.010

> <W>
-52.240

> <W(PB)>
-54.631

> <W(SA)>
2.392

> <Valence>
5.547

> <Coulomb>
47.083

> <VdW>
0.380

> <VdW6>
-11.558

> <VdW12>
11.937

> <Bond>
0.339

> <Angle>
2.129

> <Pdih>
3.078

> <Idih>
0.000

> <Tether>
0.000

$$$$
VeraChem MOL file


 29 28  0  0  0  0  0  0  0  0999 V2000     
   20.2448   20.6967   21.7533 C   0  0  0  0  0  0  0  0  0  0  0  0
   20.5940   20.4596   22.7652 H   0  0  0  0  0  0  0  0  0  0  0  0
   21.0830   20.5499   21.0600 H   0  0  0  0  0  0  0  0  0  0  0  0
   19.9769   21.7610   21.7356 H   0  0  0  0  0  0  0  0  0  0  0  0
   19.0333   19.8265   21.3475 C   0  0  0  0  0  0  0  0  0  0  0  0
   18.6772   20.1608   20.3631 H   0  0  0  0  0  0  0  0  0  0  0  0
   18.1957   19.9930   22.0363 H   0  0  0  0  0  0  0  0  0  0  0  0
   19.3632   18.3164   21.2612 C   0  0  0  0  0  0  0  0  0  0  0  0
   18.4746   17.7807   20.8999 H   0  0  0  0  0  0  0  0  0  0  0  0
   20.1308   18.1718   20.4886 H   0  0  0  0  0  0  0  0  0  0  0  0
   19.8548   17.6474   22.5733 C   0  0  0  0  0  0  0  0  0  0  0  0
   20.7913   18.1066   22.9096 H   0  0  0  0  0  0  0  0  0  0  0  0
   20.1201   16.6109   22.3238 H   0  0  0  0  0  0  0  0  0  0  0  0
   18.8031   17.5976   23.7164 C   0  0  0  0  0  0  0  0  0  0  0  0
   17.7979   17.5187   23.2803 H   0  0  0  0  0  0  0  0  0  0  0  0
   18.9479   16.6686   24.2850 H   0  0  0  0  0  0  0  0  0  0  0  0
   18.8379   18.7823   24.7173 C   0  0  0  0  0  0  0  0  0  0  0  0
   17.9480   18.7085   25.3561 H   0  0  0  0  0  0  0  0  0  0  0  0
   18.7509   19.7381   24.1891 H   0  0  0  0  0  0  0  0  0  0  0  0
   20.1018   18.7961   25.6140 C   0  0  0  0  0  0  0  0  0  0  0  0
   20.1827   17.8492   26.1641 H   0  0  0  0  0  0  0  0  0  0  0  0
   21.0027   18.8751   24.9943 H   0  0  0  0  0  0  0  0  0  0  0  0
   20.1078   19.9708   26.6110 C   0  0  0  0  0  0  0  0  0  0  0  0
   20.0113   20.9149   26.0681 H   0  0  0  0  0  0  0  0  0  0  0  0
   21.0588   19.9832   27.1505 H   0  0  0  0  0  0  0  0  0  0  0  0
   18.9974   19.9043   27.6410 N   0  3  0  0  0  0  0  0  0  0  0  0
   18.0715   19.9259   27.2025 H   0  0  0  0  0  0  0  0  0  0  0  0
   19.0383   20.6924   28.2965 H   0  0  0  0  0  0  0  0  0  0  0  0
   19.0484   19.0463   28.2000 H   0  0  0  0  0  0  0  0  0  0  0  0
  1  2  1  0  0  0  0
  1  3  1  0  0  0  0
  1  4  1  0  0  0  0
  1  5  1  0  0  0  0
  5  6  1  0  0  0  0
  5  7  1  0  0  0  0
  5  8  1  0  0  0  0
  8  9  1  0  0  0  0
  8 10  1  0  0  0  0
  8 11  1  0  0  0  0
 11 12  1  0  0  0  0
 11 13  1  0  0  0  0
 11 14  1  0  0  0  0
 14 15  1  0  0  0  0
 14 16  1  0  0  0  0
 14 17  1  0  0  0  0
 17 18  1  0  0  0  0
 17 19  1  0  0  0  0
 17 20  1  0  0  0  0
 20 21  1  0  0  0  0
 20 22  1  0  0  0  0
 20 23  1  0  0  0  0
 23 24  1  0  0  0  0
 23 25  1  0  0  0  0
 23 26  1  0  0  0  0
 26 27  1  0  0  0  0
 26 28  1  0  0  0  0
 26 29  1  0  0  0  0
M  END
> <VM2 Rank>
393

> <Conf_Id>
858

> <Probability>
0.00

> <Sum Probability>
99.99

> <Delta G>
5.270

> <G>
63.418

> <E>
25.138

> <-TS>
38.280

> <U+W>
0.993

> <U>
53.387

> <W>
-52.393

> <W(PB)>
-54.766

> <W(SA)>
2.373

> <Valence>
7.038

> <Coulomb>
45.647

> <VdW>
0.702

> <VdW6>
-10.995

> <VdW12>
11.696

> <Bond>
0.363

> <Angle>
2.317

> <Pdih>
4.358

> <Idih>
0.000

> <Tether>
0.000

$$$$
VeraChem MOL file


 29 28  0  0  0  0  0  0  0  0999 V2000     
   19.0768   17.3947   21.6799 C   0  0  0  0  0  0  0  0  0  0  0  0
   19.8306   17.0093   20.9813 H   0  0  0  0  0  0  0  0  0  0  0  0
   19.4833   17.3194   22.6955 H   0  0  0  0  0  0  0  0  0  0  0  0
   18.1998   16.7371   21.6240 H   0  0  0  0  0  0  0  0  0  0  0  0
   18.6872   18.8482   21.3258 C   0  0  0  0  0  0  0  0  0  0  0  0
   17.9215   19.2180   22.0191 H   0  0  0  0  0  0  0  0  0  0  0  0
   18.2140   18.8511   20.3340 H   0  0  0  0  0  0  0  0  0  0  0  0
   19.8941   19.8173   21.2946 C   0  0  0  0  0  0  0  0  0  0  0  0
   20.5928   19.4777   20.5177 H   0  0  0  0  0  0  0  0  0  0  0  0
   19.5448   20.8061   20.9672 H   0  0  0  0  0  0  0  0  0  0  0  0
   20.6785   19.9761   22.6252 C   0  0  0  0  0  0  0  0  0  0  0  0
   21.5398   20.6245   22.4131 H   0  0  0  0  0  0  0  0  0  0  0  0
   21.1135   19.0177   22.9299 H   0  0  0  0  0  0  0  0  0  0  0  0
   19.8759   20.6307   23.7839 C   0  0  0  0  0  0  0  0  0  0  0  0
   20.5644   21.2389   24.3866 H   0  0  0  0  0  0  0  0  0  0  0  0
   19.1497   21.3408   23.3653 H   0  0  0  0  0  0  0  0  0  0  0  0
   19.1444   19.6489   24.7366 C   0  0  0  0  0  0  0  0  0  0  0  0
   18.4837   18.9818   24.1723 H   0  0  0  0  0  0  0  0  0  0  0  0
   18.4897   20.2401   25.3901 H   0  0  0  0  0  0  0  0  0  0  0  0
   20.1063   18.8087   25.6145 C   0  0  0  0  0  0  0  0  0  0  0  0
   20.7664   18.2058   24.9797 H   0  0  0  0  0  0  0  0  0  0  0  0
   20.7563   19.4717   26.2006 H   0  0  0  0  0  0  0  0  0  0  0  0
   19.3588   17.8525   26.5638 C   0  0  0  0  0  0  0  0  0  0  0  0
   20.0832   17.2242   27.0893 H   0  0  0  0  0  0  0  0  0  0  0  0
   18.6985   17.2009   25.9851 H   0  0  0  0  0  0  0  0  0  0  0  0
   18.5220   18.5610   27.6108 N   0  3  0  0  0  0  0  0  0  0  0  0
   19.0925   19.1736   28.2027 H   0  0  0  0  0  0  0  0  0  0  0  0
   18.0495   17.8968   28.2339 H   0  0  0  0  0  0  0  0  0  0  0  0
   17.7942   19.1430   27.1845 H   0  0  0  0  0  0  0  0  0  0  0  0
  1  2  1  0  0  0  0
  1  3  1  0  0  0  0
  1  4  1  0  0  0  0
  1  5  1  0  0  0  0
  5  6  1  0  0  0  0
  5  7  1  0  0  0  0
  5  8  1  0  0  0  0
  8  9  1  0  0  0  0
  8 10  1  0  0  0  0
  8 11  1  0  0  0  0
 11 12  1  0  0  0  0
 11 13  1  0  0  0  0
 11 14  1  0  0  0  0
 14 15  1  0  0  0  0
 14 16  1  0  0  0  0
 14 17  1  0  0  0  0
 17 18  1  0  0  0  0
 17 19  1  0  0  0  0
 17 20  1  0  0  0  0
 20 21  1  0  0  0  0
 20 22  1  0  0  0  0
 20 23  1  0  0  0  0
 23 24  1  0  0  0  0
 23 25  1  0  0  0  0
 23 26  1  0  0  0  0
 26 27  1  0  0  0  0
 26 28  1  0  0  0  0
 26 29  1  0  0  0  0
M  END
> <VM2 Rank>
394

> <Conf_Id>
1939

> <Probability>
0.00

> <Sum Probability>
99.99

> <Delta G>
5.306

> <G>
63.454

> <E>
25.174

> <-TS>
38.280

> <U+W>
1.029

> <U>
53.387

> <W>
-52.357

> <W(PB)>
-54.754

> <W(SA)>
2.396

> <Valence>
7.037

> <Coulomb>
45.647

> <VdW>
0.702

> <VdW6>
-10.995

> <VdW12>
11.697

> <Bond>
0.363

> <Angle>
2.316

> <Pdih>
4.358

> <Idih>
0.000

> <Tether>
0.000

$$$$
VeraChem MOL file


 29 28  0  0  0  0  0  0  0  0999 V2000     
   19.4210   17.3711   21.2390 C   0  0  0  0  0  0  0  0  0  0  0  0
   18.8152   16.4558   21.2474 H   0  0  0  0  0  0  0  0  0  0  0  0
   19.7529   17.5430   20.2069 H   0  0  0  0  0  0  0  0  0  0  0  0
   20.3072   17.1844   21.8571 H   0  0  0  0  0  0  0  0  0  0  0  0
   18.5962   18.5688   21.7636 C   0  0  0  0  0  0  0  0  0  0  0  0
   18.2807   18.3744   22.7947 H   0  0  0  0  0  0  0  0  0  0  0  0
   17.6708   18.6362   21.1748 H   0  0  0  0  0  0  0  0  0  0  0  0
   19.3416   19.9246   21.6569 C   0  0  0  0  0  0  0  0  0  0  0  0
   19.6528   20.0570   20.6115 H   0  0  0  0  0  0  0  0  0  0  0  0
   18.6395   20.7450   21.8589 H   0  0  0  0  0  0  0  0  0  0  0  0
   20.5918   20.0800   22.5664 C   0  0  0  0  0  0  0  0  0  0  0  0
   21.3070   20.7247   22.0373 H   0  0  0  0  0  0  0  0  0  0  0  0
   21.1137   19.1247   22.6931 H   0  0  0  0  0  0  0  0  0  0  0  0
   20.3204   20.7426   23.9444 C   0  0  0  0  0  0  0  0  0  0  0  0
   21.2826   20.9035   24.4498 H   0  0  0  0  0  0  0  0  0  0  0  0
   19.9025   21.7449   23.7776 H   0  0  0  0  0  0  0  0  0  0  0  0
   19.3822   19.9693   24.9040 C   0  0  0  0  0  0  0  0  0  0  0  0
   18.3841   19.8770   24.4581 H   0  0  0  0  0  0  0  0  0  0  0  0
   19.2489   20.5777   25.8082 H   0  0  0  0  0  0  0  0  0  0  0  0
   19.9246   18.5748   25.3064 C   0  0  0  0  0  0  0  0  0  0  0  0
   20.0739   17.9581   24.4122 H   0  0  0  0  0  0  0  0  0  0  0  0
   20.9089   18.6784   25.7818 H   0  0  0  0  0  0  0  0  0  0  0  0
   18.9727   17.8188   26.2529 C   0  0  0  0  0  0  0  0  0  0  0  0
   19.3628   16.8131   26.4319 H   0  0  0  0  0  0  0  0  0  0  0  0
   17.9882   17.7249   25.7868 H   0  0  0  0  0  0  0  0  0  0  0  0
   18.7935   18.4881   27.6013 N   0  3  0  0  0  0  0  0  0  0  0  0
   19.6845   18.5848   28.0991 H   0  0  0  0  0  0  0  0  0  0  0  0
   18.1652   17.9536   28.2113 H   0  0  0  0  0  0  0  0  0  0  0  0
   18.3947   19.4275   27.5082 H   0  0  0  0  0  0  0  0  0  0  0  0
  1  2  1  0  0  0  0
  1  3  1  0  0  0  0
  1  4  1  0  0  0  0
  1  5  1  0  0  0  0
  5  6  1  0  0  0  0
  5  7  1  0  0  0  0
  5  8  1  0  0  0  0
  8  9  1  0  0  0  0
  8 10  1  0  0  0  0
  8 11  1  0  0  0  0
 11 12  1  0  0  0  0
 11 13  1  0  0  0  0
 11 14  1  0  0  0  0
 14 15  1  0  0  0  0
 14 16  1  0  0  0  0
 14 17  1  0  0  0  0
 17 18  1  0  0  0  0
 17 19  1  0  0  0  0
 17 20  1  0  0  0  0
 20 21  1  0  0  0  0
 20 22  1  0  0  0  0
 20 23  1  0  0  0  0
 23 24  1  0  0  0  0
 23 25  1  0  0  0  0
 23 26  1  0  0  0  0
 26 27  1  0  0  0  0
 26 28  1  0  0  0  0
 26 29  1  0  0  0  0
M  END
> <VM2 Rank>
395

> <Conf_Id>
1833

> <Probability>
0.00

> <Sum Probability>
99.99

> <Delta G>
5.313

> <G>
63.461

> <E>
25.061

> <-TS>
38.400

> <U+W>
0.916

> <U>
53.311

> <W>
-52.395

> <W(PB)>
-54.785

> <W(SA)>
2.390

> <Valence>
7.016

> <Coulomb>
45.674

> <VdW>
0.621

> <VdW6>
-11.160

> <VdW12>
11.780

> <Bond>
0.360

> <Angle>
2.359

> <Pdih>
4.297

> <Idih>
0.000

> <Tether>
0.000

$$$$
VeraChem MOL file


 29 28  0  0  0  0  0  0  0  0999 V2000     
   21.2749   19.5259   21.0166 C   0  0  0  0  0  0  0  0  0  0  0  0
   21.9159   18.7147   21.3854 H   0  0  0  0  0  0  0  0  0  0  0  0
   21.7398   19.9349   20.1103 H   0  0  0  0  0  0  0  0  0  0  0  0
   21.2621   20.3245   21.7686 H   0  0  0  0  0  0  0  0  0  0  0  0
   19.8501   19.0124   20.7080 C   0  0  0  0  0  0  0  0  0  0  0  0
   19.9026   18.3100   19.8644 H   0  0  0  0  0  0  0  0  0  0  0  0
   19.2200   19.8483   20.3733 H   0  0  0  0  0  0  0  0  0  0  0  0
   19.1801   18.2987   21.9066 C   0  0  0  0  0  0  0  0  0  0  0  0
   18.2291   17.8655   21.5672 H   0  0  0  0  0  0  0  0  0  0  0  0
   19.8068   17.4550   22.2266 H   0  0  0  0  0  0  0  0  0  0  0  0
   18.9078   19.2356   23.1075 C   0  0  0  0  0  0  0  0  0  0  0  0
   18.3071   20.0929   22.7740 H   0  0  0  0  0  0  0  0  0  0  0  0
   19.8558   19.6407   23.4787 H   0  0  0  0  0  0  0  0  0  0  0  0
   18.1633   18.5006   24.2481 C   0  0  0  0  0  0  0  0  0  0  0  0
   17.2176   18.1046   23.8528 H   0  0  0  0  0  0  0  0  0  0  0  0
   18.7344   17.6234   24.5759 H   0  0  0  0  0  0  0  0  0  0  0  0
   17.8367   19.4071   25.4621 C   0  0  0  0  0  0  0  0  0  0  0  0
   17.2649   18.8190   26.1932 H   0  0  0  0  0  0  0  0  0  0  0  0
   17.1617   20.2084   25.1312 H   0  0  0  0  0  0  0  0  0  0  0  0
   19.0513   20.0510   26.1834 C   0  0  0  0  0  0  0  0  0  0  0  0
   19.5818   20.7432   25.5173 H   0  0  0  0  0  0  0  0  0  0  0  0
   18.6618   20.6706   27.0019 H   0  0  0  0  0  0  0  0  0  0  0  0
   20.0397   19.0367   26.7955 C   0  0  0  0  0  0  0  0  0  0  0  0
   19.4866   18.2070   27.2438 H   0  0  0  0  0  0  0  0  0  0  0  0
   20.6141   19.5279   27.5855 H   0  0  0  0  0  0  0  0  0  0  0  0
   21.0399   18.4700   25.8073 N   0  3  0  0  0  0  0  0  0  0  0  0
   21.6481   19.2011   25.4243 H   0  0  0  0  0  0  0  0  0  0  0  0
   20.5706   18.0191   25.0160 H   0  0  0  0  0  0  0  0  0  0  0  0
   21.6504   17.7699   26.2431 H   0  0  0  0  0  0  0  0  0  0  0  0
  1  2  1  0  0  0  0
  1  3  1  0  0  0  0
  1  4  1  0  0  0  0
  1  5  1  0  0  0  0
  5  6  1  0  0  0  0
  5  7  1  0  0  0  0
  5  8  1  0  0  0  0
  8  9  1  0  0  0  0
  8 10  1  0  0  0  0
  8 11  1  0  0  0  0
 11 12  1  0  0  0  0
 11 13  1  0  0  0  0
 11 14  1  0  0  0  0
 14 15  1  0  0  0  0
 14 16  1  0  0  0  0
 14 17  1  0  0  0  0
 17 18  1  0  0  0  0
 17 19  1  0  0  0  0
 17 20  1  0  0  0  0
 20 21  1  0  0  0  0
 20 22  1  0  0  0  0
 20 23  1  0  0  0  0
 23 24  1  0  0  0  0
 23 25  1  0  0  0  0
 23 26  1  0  0  0  0
 26 27  1  0  0  0  0
 26 28  1  0  0  0  0
 26 29  1  0  0  0  0
M  END
> <VM2 Rank>
396

> <Conf_Id>
1313

> <Probability>
0.00

> <Sum Probability>
99.99

> <Delta G>
5.417

> <G>
63.565

> <E>
25.472

> <-TS>
38.093

> <U+W>
1.328

> <U>
53.053

> <W>
-51.726

> <W(PB)>
-54.121

> <W(SA)>
2.395

> <Valence>
5.137

> <Coulomb>
47.396

> <VdW>
0.520

> <VdW6>
-10.608

> <VdW12>
11.128

> <Bond>
0.284

> <Angle>
1.688

> <Pdih>
3.165

> <Idih>
0.000

> <Tether>
0.000

$$$$
VeraChem MOL file


 29 28  0  0  0  0  0  0  0  0999 V2000     
   20.8552   18.7815   20.8850 C   0  0  0  0  0  0  0  0  0  0  0  0
   21.3623   19.2622   21.7279 H   0  0  0  0  0  0  0  0  0  0  0  0
   20.9583   17.6946   20.9983 H   0  0  0  0  0  0  0  0  0  0  0  0
   21.3899   19.0730   19.9718 H   0  0  0  0  0  0  0  0  0  0  0  0
   19.3673   19.1904   20.7904 C   0  0  0  0  0  0  0  0  0  0  0  0
   18.9574   18.7500   19.8707 H   0  0  0  0  0  0  0  0  0  0  0  0
   19.2790   20.2788   20.6686 H   0  0  0  0  0  0  0  0  0  0  0  0
   18.5035   18.7102   21.9858 C   0  0  0  0  0  0  0  0  0  0  0  0
   17.4895   18.5214   21.6072 H   0  0  0  0  0  0  0  0  0  0  0  0
   18.8599   17.7389   22.3528 H   0  0  0  0  0  0  0  0  0  0  0  0
   18.3710   19.7279   23.1509 C   0  0  0  0  0  0  0  0  0  0  0  0
   17.6054   19.3631   23.8482 H   0  0  0  0  0  0  0  0  0  0  0  0
   17.9734   20.6715   22.7529 H   0  0  0  0  0  0  0  0  0  0  0  0
   19.6686   20.0325   23.9433 C   0  0  0  0  0  0  0  0  0  0  0  0
   20.3842   20.5412   23.2859 H   0  0  0  0  0  0  0  0  0  0  0  0
   19.4338   20.7648   24.7270 H   0  0  0  0  0  0  0  0  0  0  0  0
   20.3507   18.7962   24.5893 C   0  0  0  0  0  0  0  0  0  0  0  0
   21.2539   19.1283   25.1183 H   0  0  0  0  0  0  0  0  0  0  0  0
   20.7065   18.1184   23.8030 H   0  0  0  0  0  0  0  0  0  0  0  0
   19.4511   17.9956   25.5668 C   0  0  0  0  0  0  0  0  0  0  0  0
   18.6271   17.5298   25.0114 H   0  0  0  0  0  0  0  0  0  0  0  0
   20.0309   17.1673   25.9949 H   0  0  0  0  0  0  0  0  0  0  0  0
   18.8622   18.8437   26.7117 C   0  0  0  0  0  0  0  0  0  0  0  0
   18.2167   18.2176   27.3335 H   0  0  0  0  0  0  0  0  0  0  0  0
   18.2550   19.6524   26.2967 H   0  0  0  0  0  0  0  0  0  0  0  0
   19.9144   19.4600   27.6118 N   0  3  0  0  0  0  0  0  0  0  0  0
   19.4943   20.0160   28.3646 H   0  0  0  0  0  0  0  0  0  0  0  0
   20.5393   20.0813   27.0889 H   0  0  0  0  0  0  0  0  0  0  0  0
   20.4995   18.7451   28.0565 H   0  0  0  0  0  0  0  0  0  0  0  0
  1  2  1  0  0  0  0
  1  3  1  0  0  0  0
  1  4  1  0  0  0  0
  1  5  1  0  0  0  0
  5  6  1  0  0  0  0
  5  7  1  0  0  0  0
  5  8  1  0  0  0  0
  8  9  1  0  0  0  0
  8 10  1  0  0  0  0
  8 11  1  0  0  0  0
 11 12  1  0  0  0  0
 11 13  1  0  0  0  0
 11 14  1  0  0  0  0
 14 15  1  0  0  0  0
 14 16  1  0  0  0  0
 14 17  1  0  0  0  0
 17 18  1  0  0  0  0
 17 19  1  0  0  0  0
 17 20  1  0  0  0  0
 20 21  1  0  0  0  0
 20 22  1  0  0  0  0
 20 23  1  0  0  0  0
 23 24  1  0  0  0  0
 23 25  1  0  0  0  0
 23 26  1  0  0  0  0
 26 27  1  0  0  0  0
 26 28  1  0  0  0  0
 26 29  1  0  0  0  0
M  END
> <VM2 Rank>
397

> <Conf_Id>
678

> <Probability>
0.00

> <Sum Probability>
99.99

> <Delta G>
5.578

> <G>
63.726

> <E>
25.051

> <-TS>
38.675

> <U+W>
0.906

> <U>
53.259

> <W>
-52.353

> <W(PB)>
-54.704

> <W(SA)>
2.351

> <Valence>
6.969

> <Coulomb>
45.821

> <VdW>
0.469

> <VdW6>
-12.141

> <VdW12>
12.611

> <Bond>
0.375

> <Angle>
2.470

> <Pdih>
4.124

> <Idih>
0.000

> <Tether>
0.000

$$$$
VeraChem MOL file


 29 28  0  0  0  0  0  0  0  0999 V2000     
   21.2940   19.0778   21.6711 C   0  0  0  0  0  0  0  0  0  0  0  0
   22.1664   19.0513   21.0055 H   0  0  0  0  0  0  0  0  0  0  0  0
   21.1802   20.1117   22.0189 H   0  0  0  0  0  0  0  0  0  0  0  0
   21.5115   18.4379   22.5358 H   0  0  0  0  0  0  0  0  0  0  0  0
   20.0315   18.5962   20.9238 C   0  0  0  0  0  0  0  0  0  0  0  0
   20.2555   17.6360   20.4386 H   0  0  0  0  0  0  0  0  0  0  0  0
   19.7975   19.2993   20.1123 H   0  0  0  0  0  0  0  0  0  0  0  0
   18.7855   18.4098   21.8269 C   0  0  0  0  0  0  0  0  0  0  0  0
   17.9796   18.0122   21.1948 H   0  0  0  0  0  0  0  0  0  0  0  0
   18.9817   17.6313   22.5739 H   0  0  0  0  0  0  0  0  0  0  0  0
   18.2681   19.7115   22.4982 C   0  0  0  0  0  0  0  0  0  0  0  0
   17.1718   19.6678   22.5568 H   0  0  0  0  0  0  0  0  0  0  0  0
   18.4925   20.5690   21.8491 H   0  0  0  0  0  0  0  0  0  0  0  0
   18.8200   19.9833   23.9221 C   0  0  0  0  0  0  0  0  0  0  0  0
   19.9149   19.9568   23.9138 H   0  0  0  0  0  0  0  0  0  0  0  0
   18.5417   21.0063   24.2101 H   0  0  0  0  0  0  0  0  0  0  0  0
   18.2717   19.0027   24.9901 C   0  0  0  0  0  0  0  0  0  0  0  0
   18.5764   17.9747   24.7597 H   0  0  0  0  0  0  0  0  0  0  0  0
   17.1736   19.0097   24.9551 H   0  0  0  0  0  0  0  0  0  0  0  0
   18.7205   19.3622   26.4287 C   0  0  0  0  0  0  0  0  0  0  0  0
   18.3279   20.3528   26.6940 H   0  0  0  0  0  0  0  0  0  0  0  0
   18.2695   18.6545   27.1369 H   0  0  0  0  0  0  0  0  0  0  0  0
   20.2501   19.3672   26.6252 C   0  0  0  0  0  0  0  0  0  0  0  0
   20.4831   19.6451   27.6567 H   0  0  0  0  0  0  0  0  0  0  0  0
   20.7055   20.1082   25.9631 H   0  0  0  0  0  0  0  0  0  0  0  0
   20.9026   18.0273   26.3490 N   0  3  0  0  0  0  0  0  0  0  0  0
   20.5366   17.2933   26.9643 H   0  0  0  0  0  0  0  0  0  0  0  0
   21.9178   18.0611   26.4925 H   0  0  0  0  0  0  0  0  0  0  0  0
   20.7423   17.7233   25.3836 H   0  0  0  0  0  0  0  0  0  0  0  0
  1  2  1  0  0  0  0
  1  3  1  0  0  0  0
  1  4  1  0  0  0  0
  1  5  1  0  0  0  0
  5  6  1  0  0  0  0
  5  7  1  0  0  0  0
  5  8  1  0  0  0  0
  8  9  1  0  0  0  0
  8 10  1  0  0  0  0
  8 11  1  0  0  0  0
 11 12  1  0  0  0  0
 11 13  1  0  0  0  0
 11 14  1  0  0  0  0
 14 15  1  0  0  0  0
 14 16  1  0  0  0  0
 14 17  1  0  0  0  0
 17 18  1  0  0  0  0
 17 19  1  0  0  0  0
 17 20  1  0  0  0  0
 20 21  1  0  0  0  0
 20 22  1  0  0  0  0
 20 23  1  0  0  0  0
 23 24  1  0  0  0  0
 23 25  1  0  0  0  0
 23 26  1  0  0  0  0
 26 27  1  0  0  0  0
 26 28  1  0  0  0  0
 26 29  1  0  0  0  0
M  END
> <VM2 Rank>
398

> <Conf_Id>
1046

> <Probability>
0.00

> <Sum Probability>
99.99

> <Delta G>
5.639

> <G>
63.787

> <E>
25.933

> <-TS>
37.854

> <U+W>
1.789

> <U>
54.110

> <W>
-52.321

> <W(PB)>
-54.666

> <W(SA)>
2.345

> <Valence>
6.622

> <Coulomb>
46.675

> <VdW>
0.813

> <VdW6>
-10.694

> <VdW12>
11.507

> <Bond>
0.337

> <Angle>
1.733

> <Pdih>
4.552

> <Idih>
0.000

> <Tether>
0.000

$$$$
VeraChem MOL file


 29 28  0  0  0  0  0  0  0  0999 V2000     
   20.4284   19.6874   20.6418 C   0  0  0  0  0  0  0  0  0  0  0  0
   19.4918   20.2581   20.6706 H   0  0  0  0  0  0  0  0  0  0  0  0
   21.2109   20.3565   20.2612 H   0  0  0  0  0  0  0  0  0  0  0  0
   20.3100   18.8655   19.9238 H   0  0  0  0  0  0  0  0  0  0  0  0
   20.8070   19.1527   22.0411 C   0  0  0  0  0  0  0  0  0  0  0  0
   20.8937   19.9910   22.7438 H   0  0  0  0  0  0  0  0  0  0  0  0
   21.8090   18.7049   21.9875 H   0  0  0  0  0  0  0  0  0  0  0  0
   19.8219   18.0851   22.5845 C   0  0  0  0  0  0  0  0  0  0  0  0
   19.8683   17.2069   21.9261 H   0  0  0  0  0  0  0  0  0  0  0  0
   20.1822   17.7358   23.5580 H   0  0  0  0  0  0  0  0  0  0  0  0
   18.3365   18.5309   22.6906 C   0  0  0  0  0  0  0  0  0  0  0  0
   17.7249   17.6760   23.0095 H   0  0  0  0  0  0  0  0  0  0  0  0
   17.9770   18.7761   21.6827 H   0  0  0  0  0  0  0  0  0  0  0  0
   18.0516   19.7409   23.6229 C   0  0  0  0  0  0  0  0  0  0  0  0
   18.8687   20.4707   23.5890 H   0  0  0  0  0  0  0  0  0  0  0  0
   17.1812   20.2730   23.2151 H   0  0  0  0  0  0  0  0  0  0  0  0
   17.7079   19.3731   25.0918 C   0  0  0  0  0  0  0  0  0  0  0  0
   16.8116   18.7377   25.1023 H   0  0  0  0  0  0  0  0  0  0  0  0
   17.4270   20.2934   25.6224 H   0  0  0  0  0  0  0  0  0  0  0  0
   18.8290   18.6684   25.8917 C   0  0  0  0  0  0  0  0  0  0  0  0
   18.4779   18.5031   26.9189 H   0  0  0  0  0  0  0  0  0  0  0  0
   19.0182   17.6729   25.4728 H   0  0  0  0  0  0  0  0  0  0  0  0
   20.1331   19.4858   25.9345 C   0  0  0  0  0  0  0  0  0  0  0  0
   19.9391   20.4647   26.3811 H   0  0  0  0  0  0  0  0  0  0  0  0
   20.5057   19.6384   24.9189 H   0  0  0  0  0  0  0  0  0  0  0  0
   21.2286   18.8136   26.7361 N   0  3  0  0  0  0  0  0  0  0  0  0
   21.4761   17.8962   26.3513 H   0  0  0  0  0  0  0  0  0  0  0  0
   20.9507   18.6667   27.7121 H   0  0  0  0  0  0  0  0  0  0  0  0
   22.0878   19.3741   26.7516 H   0  0  0  0  0  0  0  0  0  0  0  0
  1  2  1  0  0  0  0
  1  3  1  0  0  0  0
  1  4  1  0  0  0  0
  1  5  1  0  0  0  0
  5  6  1  0  0  0  0
  5  7  1  0  0  0  0
  5  8  1  0  0  0  0
  8  9  1  0  0  0  0
  8 10  1  0  0  0  0
  8 11  1  0  0  0  0
 11 12  1  0  0  0  0
 11 13  1  0  0  0  0
 11 14  1  0  0  0  0
 14 15  1  0  0  0  0
 14 16  1  0  0  0  0
 14 17  1  0  0  0  0
 17 18  1  0  0  0  0
 17 19  1  0  0  0  0
 17 20  1  0  0  0  0
 20 21  1  0  0  0  0
 20 22  1  0  0  0  0
 20 23  1  0  0  0  0
 23 24  1  0  0  0  0
 23 25  1  0  0  0  0
 23 26  1  0  0  0  0
 26 27  1  0  0  0  0
 26 28  1  0  0  0  0
 26 29  1  0  0  0  0
M  END
> <VM2 Rank>
399

> <Conf_Id>
1052

> <Probability>
0.00

> <Sum Probability>
99.99

> <Delta G>
5.786

> <G>
63.934

> <E>
25.347

> <-TS>
38.587

> <U+W>
1.203

> <U>
54.263

> <W>
-53.061

> <W(PB)>
-55.397

> <W(SA)>
2.336

> <Valence>
7.144

> <Coulomb>
46.792

> <VdW>
0.327

> <VdW6>
-11.742

> <VdW12>
12.069

> <Bond>
0.380

> <Angle>
2.687

> <Pdih>
4.078

> <Idih>
0.000

> <Tether>
0.000

$$$$
VeraChem MOL file


 29 28  0  0  0  0  0  0  0  0999 V2000     
   20.2848   17.7689   20.3134 C   0  0  0  0  0  0  0  0  0  0  0  0
   19.8716   17.0683   19.5762 H   0  0  0  0  0  0  0  0  0  0  0  0
   20.7477   18.6002   19.7657 H   0  0  0  0  0  0  0  0  0  0  0  0
   21.0727   17.2457   20.8707 H   0  0  0  0  0  0  0  0  0  0  0  0
   19.1782   18.2776   21.2612 C   0  0  0  0  0  0  0  0  0  0  0  0
   18.7121   17.4219   21.7694 H   0  0  0  0  0  0  0  0  0  0  0  0
   18.3887   18.7640   20.6713 H   0  0  0  0  0  0  0  0  0  0  0  0
   19.7330   19.2687   22.3079 C   0  0  0  0  0  0  0  0  0  0  0  0
   20.5340   18.7776   22.8729 H   0  0  0  0  0  0  0  0  0  0  0  0
   20.1892   20.1256   21.7932 H   0  0  0  0  0  0  0  0  0  0  0  0
   18.6239   19.7726   23.2632 C   0  0  0  0  0  0  0  0  0  0  0  0
   18.1565   18.9245   23.7738 H   0  0  0  0  0  0  0  0  0  0  0  0
   17.8262   20.2269   22.6593 H   0  0  0  0  0  0  0  0  0  0  0  0
   19.1116   20.8341   24.2848 C   0  0  0  0  0  0  0  0  0  0  0  0
   19.5335   21.6760   23.7187 H   0  0  0  0  0  0  0  0  0  0  0  0
   18.2455   21.2466   24.8202 H   0  0  0  0  0  0  0  0  0  0  0  0
   20.1722   20.3625   25.3181 C   0  0  0  0  0  0  0  0  0  0  0  0
   20.7050   21.2562   25.6713 H   0  0  0  0  0  0  0  0  0  0  0  0
   20.9433   19.7452   24.8431 H   0  0  0  0  0  0  0  0  0  0  0  0
   19.6021   19.6516   26.5750 C   0  0  0  0  0  0  0  0  0  0  0  0
   20.4236   19.4759   27.2822 H   0  0  0  0  0  0  0  0  0  0  0  0
   18.9037   20.3265   27.0872 H   0  0  0  0  0  0  0  0  0  0  0  0
   18.8889   18.3108   26.3151 C   0  0  0  0  0  0  0  0  0  0  0  0
   17.9875   18.4796   25.7223 H   0  0  0  0  0  0  0  0  0  0  0  0
   18.5838   17.8741   27.2699 H   0  0  0  0  0  0  0  0  0  0  0  0
   19.7493   17.2911   25.5963 N   0  3  0  0  0  0  0  0  0  0  0  0
   20.0363   17.6325   24.6737 H   0  0  0  0  0  0  0  0  0  0  0  0
   19.2515   16.4053   25.4542 H   0  0  0  0  0  0  0  0  0  0  0  0
   20.6018   17.0761   26.1238 H   0  0  0  0  0  0  0  0  0  0  0  0
  1  2  1  0  0  0  0
  1  3  1  0  0  0  0
  1  4  1  0  0  0  0
  1  5  1  0  0  0  0
  5  6  1  0  0  0  0
  5  7  1  0  0  0  0
  5  8  1  0  0  0  0
  8  9  1  0  0  0  0
  8 10  1  0  0  0  0
  8 11  1  0  0  0  0
 11 12  1  0  0  0  0
 11 13  1  0  0  0  0
 11 14  1  0  0  0  0
 14 15  1  0  0  0  0
 14 16  1  0  0  0  0
 14 17  1  0  0  0  0
 17 18  1  0  0  0  0
 17 19  1  0  0  0  0
 17 20  1  0  0  0  0
 20 21  1  0  0  0  0
 20 22  1  0  0  0  0
 20 23  1  0  0  0  0
 23 24  1  0  0  0  0
 23 25  1  0  0  0  0
 23 26  1  0  0  0  0
 26 27  1  0  0  0  0
 26 28  1  0  0  0  0
 26 29  1  0  0  0  0
M  END
> <VM2 Rank>
400

> <Conf_Id>
665

> <Probability>
0.00

> <Sum Probability>
99.99

> <Delta G>
5.797

> <G>
63.945

> <E>
25.837

> <-TS>
38.107

> <U+W>
1.693

> <U>
53.627

> <W>
-51.934

> <W(PB)>
-54.338

> <W(SA)>
2.404

> <Valence>
5.968

> <Coulomb>
47.262

> <VdW>
0.397

> <VdW6>
-10.683

> <VdW12>
11.080

> <Bond>
0.323

> <Angle>
2.218

> <Pdih>
3.427

> <Idih>
0.000

> <Tether>
0.000

$$$$
VeraChem MOL file


 29 28  0  0  0  0  0  0  0  0999 V2000     
   21.2652   18.3229   21.7007 C   0  0  0  0  0  0  0  0  0  0  0  0
   21.1542   18.1771   20.6184 H   0  0  0  0  0  0  0  0  0  0  0  0
   22.3392   18.3489   21.9260 H   0  0  0  0  0  0  0  0  0  0  0  0
   20.8438   17.4475   22.2088 H   0  0  0  0  0  0  0  0  0  0  0  0
   20.5862   19.6348   22.1562 C   0  0  0  0  0  0  0  0  0  0  0  0
   21.1223   20.4786   21.6999 H   0  0  0  0  0  0  0  0  0  0  0  0
   20.7067   19.7545   23.2380 H   0  0  0  0  0  0  0  0  0  0  0  0
   19.0924   19.7302   21.7506 C   0  0  0  0  0  0  0  0  0  0  0  0
   18.7284   20.7504   21.9335 H   0  0  0  0  0  0  0  0  0  0  0  0
   19.0291   19.5879   20.6630 H   0  0  0  0  0  0  0  0  0  0  0  0
   18.1394   18.7121   22.4360 C   0  0  0  0  0  0  0  0  0  0  0  0
   18.6395   17.7526   22.6099 H   0  0  0  0  0  0  0  0  0  0  0  0
   17.3328   18.4861   21.7251 H   0  0  0  0  0  0  0  0  0  0  0  0
   17.4634   19.2209   23.7382 C   0  0  0  0  0  0  0  0  0  0  0  0
   16.8910   20.1302   23.5087 H   0  0  0  0  0  0  0  0  0  0  0  0
   16.7209   18.4771   24.0585 H   0  0  0  0  0  0  0  0  0  0  0  0
   18.4092   19.5167   24.9283 C   0  0  0  0  0  0  0  0  0  0  0  0
   17.8026   19.8904   25.7648 H   0  0  0  0  0  0  0  0  0  0  0  0
   19.0887   20.3356   24.6651 H   0  0  0  0  0  0  0  0  0  0  0  0
   19.2016   18.2745   25.4069 C   0  0  0  0  0  0  0  0  0  0  0  0
   18.4984   17.4617   25.6312 H   0  0  0  0  0  0  0  0  0  0  0  0
   19.8612   17.9058   24.6121 H   0  0  0  0  0  0  0  0  0  0  0  0
   20.0395   18.5569   26.6682 C   0  0  0  0  0  0  0  0  0  0  0  0
   20.5024   17.6280   27.0121 H   0  0  0  0  0  0  0  0  0  0  0  0
   19.3908   18.9304   27.4651 H   0  0  0  0  0  0  0  0  0  0  0  0
   21.1471   19.5689   26.4498 N   0  3  0  0  0  0  0  0  0  0  0  0
   21.6896   19.7277   27.3060 H   0  0  0  0  0  0  0  0  0  0  0  0
   20.7764   20.4780   26.1565 H   0  0  0  0  0  0  0  0  0  0  0  0
   21.8076   19.2600   25.7293 H   0  0  0  0  0  0  0  0  0  0  0  0
  1  2  1  0  0  0  0
  1  3  1  0  0  0  0
  1  4  1  0  0  0  0
  1  5  1  0  0  0  0
  5  6  1  0  0  0  0
  5  7  1  0  0  0  0
  5  8  1  0  0  0  0
  8  9  1  0  0  0  0
  8 10  1  0  0  0  0
  8 11  1  0  0  0  0
 11 12  1  0  0  0  0
 11 13  1  0  0  0  0
 11 14  1  0  0  0  0
 14 15  1  0  0  0  0
 14 16  1  0  0  0  0
 14 17  1  0  0  0  0
 17 18  1  0  0  0  0
 17 19  1  0  0  0  0
 17 20  1  0  0  0  0
 20 21  1  0  0  0  0
 20 22  1  0  0  0  0
 20 23  1  0  0  0  0
 23 24  1  0  0  0  0
 23 25  1  0  0  0  0
 23 26  1  0  0  0  0
 26 27  1  0  0  0  0
 26 28  1  0  0  0  0
 26 29  1  0  0  0  0
M  END
> <VM2 Rank>
401

> <Conf_Id>
1012

> <Probability>
0.00

> <Sum Probability>
99.99

> <Delta G>
5.813

> <G>
63.961

> <E>
25.472

> <-TS>
38.489

> <U+W>
1.327

> <U>
54.256

> <W>
-52.929

> <W(PB)>
-55.260

> <W(SA)>
2.331

> <Valence>
6.980

> <Coulomb>
46.910

> <VdW>
0.366

> <VdW6>
-11.452

> <VdW12>
11.817

> <Bond>
0.358

> <Angle>
2.354

> <Pdih>
4.267

> <Idih>
0.000

> <Tether>
0.000

$$$$
VeraChem MOL file


 29 28  0  0  0  0  0  0  0  0999 V2000     
   20.7151   18.2667   20.1847 C   0  0  0  0  0  0  0  0  0  0  0  0
   21.2098   19.1440   19.7479 H   0  0  0  0  0  0  0  0  0  0  0  0
   21.4015   17.4146   20.0970 H   0  0  0  0  0  0  0  0  0  0  0  0
   19.8226   18.0437   19.5855 H   0  0  0  0  0  0  0  0  0  0  0  0
   20.3428   18.5169   21.6613 C   0  0  0  0  0  0  0  0  0  0  0  0
   21.2585   18.7081   22.2377 H   0  0  0  0  0  0  0  0  0  0  0  0
   19.8884   17.6054   22.0714 H   0  0  0  0  0  0  0  0  0  0  0  0
   19.3724   19.7128   21.8080 C   0  0  0  0  0  0  0  0  0  0  0  0
   19.8182   20.5940   21.3262 H   0  0  0  0  0  0  0  0  0  0  0  0
   18.4407   19.5036   21.2644 H   0  0  0  0  0  0  0  0  0  0  0  0
   19.0470   20.0703   23.2785 C   0  0  0  0  0  0  0  0  0  0  0  0
   18.4668   21.0033   23.2892 H   0  0  0  0  0  0  0  0  0  0  0  0
   19.9811   20.2864   23.8114 H   0  0  0  0  0  0  0  0  0  0  0  0
   18.2374   18.9723   24.0144 C   0  0  0  0  0  0  0  0  0  0  0  0
   17.3334   18.7519   23.4301 H   0  0  0  0  0  0  0  0  0  0  0  0
   18.7976   18.0316   24.0558 H   0  0  0  0  0  0  0  0  0  0  0  0
   17.8007   19.3822   25.4437 C   0  0  0  0  0  0  0  0  0  0  0  0
   17.1917   18.5727   25.8694 H   0  0  0  0  0  0  0  0  0  0  0  0
   17.1322   20.2512   25.3719 H   0  0  0  0  0  0  0  0  0  0  0  0
   18.9447   19.7197   26.4372 C   0  0  0  0  0  0  0  0  0  0  0  0
   19.5110   20.5972   26.0999 H   0  0  0  0  0  0  0  0  0  0  0  0
   18.4830   20.0147   27.3888 H   0  0  0  0  0  0  0  0  0  0  0  0
   19.9027   18.5457   26.7273 C   0  0  0  0  0  0  0  0  0  0  0  0
   19.3324   17.6171   26.8145 H   0  0  0  0  0  0  0  0  0  0  0  0
   20.4098   18.7234   27.6795 H   0  0  0  0  0  0  0  0  0  0  0  0
   20.9812   18.3514   25.6800 N   0  3  0  0  0  0  0  0  0  0  0  0
   20.5769   18.2147   24.7487 H   0  0  0  0  0  0  0  0  0  0  0  0
   21.5682   17.5353   25.8858 H   0  0  0  0  0  0  0  0  0  0  0  0
   21.6049   19.1634   25.6263 H   0  0  0  0  0  0  0  0  0  0  0  0
  1  2  1  0  0  0  0
  1  3  1  0  0  0  0
  1  4  1  0  0  0  0
  1  5  1  0  0  0  0
  5  6  1  0  0  0  0
  5  7  1  0  0  0  0
  5  8  1  0  0  0  0
  8  9  1  0  0  0  0
  8 10  1  0  0  0  0
  8 11  1  0  0  0  0
 11 12  1  0  0  0  0
 11 13  1  0  0  0  0
 11 14  1  0  0  0  0
 14 15  1  0  0  0  0
 14 16  1  0  0  0  0
 14 17  1  0  0  0  0
 17 18  1  0  0  0  0
 17 19  1  0  0  0  0
 17 20  1  0  0  0  0
 20 21  1  0  0  0  0
 20 22  1  0  0  0  0
 20 23  1  0  0  0  0
 23 24  1  0  0  0  0
 23 25  1  0  0  0  0
 23 26  1  0  0  0  0
 26 27  1  0  0  0  0
 26 28  1  0  0  0  0
 26 29  1  0  0  0  0
M  END
> <VM2 Rank>
402

> <Conf_Id>
1290

> <Probability>
0.00

> <Sum Probability>
99.99

> <Delta G>
5.831

> <G>
63.979

> <E>
25.842

> <-TS>
38.137

> <U+W>
1.697

> <U>
53.453

> <W>
-51.756

> <W(PB)>
-54.157

> <W(SA)>
2.400

> <Valence>
5.150

> <Coulomb>
47.943

> <VdW>
0.360

> <VdW6>
-10.799

> <VdW12>
11.160

> <Bond>
0.287

> <Angle>
1.683

> <Pdih>
3.180

> <Idih>
0.000

> <Tether>
0.000

$$$$
VeraChem MOL file


 29 28  0  0  0  0  0  0  0  0999 V2000     
   19.4208   19.5323   20.1962 C   0  0  0  0  0  0  0  0  0  0  0  0
   20.3907   19.9507   19.8974 H   0  0  0  0  0  0  0  0  0  0  0  0
   18.8341   19.3590   19.2848 H   0  0  0  0  0  0  0  0  0  0  0  0
   18.8902   20.2849   20.7927 H   0  0  0  0  0  0  0  0  0  0  0  0
   19.6032   18.2140   20.9815 C   0  0  0  0  0  0  0  0  0  0  0  0
   20.0287   17.4573   20.3076 H   0  0  0  0  0  0  0  0  0  0  0  0
   18.6225   17.8254   21.2867 H   0  0  0  0  0  0  0  0  0  0  0  0
   20.5326   18.3541   22.2140 C   0  0  0  0  0  0  0  0  0  0  0  0
   20.6318   17.3713   22.6946 H   0  0  0  0  0  0  0  0  0  0  0  0
   21.5404   18.6216   21.8676 H   0  0  0  0  0  0  0  0  0  0  0  0
   20.0808   19.3927   23.2731 C   0  0  0  0  0  0  0  0  0  0  0  0
   20.0809   20.3988   22.8335 H   0  0  0  0  0  0  0  0  0  0  0  0
   20.8374   19.4150   24.0667 H   0  0  0  0  0  0  0  0  0  0  0  0
   18.6869   19.0910   23.8800 C   0  0  0  0  0  0  0  0  0  0  0  0
   17.9331   19.1364   23.0830 H   0  0  0  0  0  0  0  0  0  0  0  0
   18.6489   18.0643   24.2636 H   0  0  0  0  0  0  0  0  0  0  0  0
   18.2605   20.0906   24.9853 C   0  0  0  0  0  0  0  0  0  0  0  0
   17.2410   19.8383   25.3082 H   0  0  0  0  0  0  0  0  0  0  0  0
   18.1929   21.0947   24.5443 H   0  0  0  0  0  0  0  0  0  0  0  0
   19.1732   20.1623   26.2392 C   0  0  0  0  0  0  0  0  0  0  0  0
   20.1712   20.5363   25.9781 H   0  0  0  0  0  0  0  0  0  0  0  0
   18.7468   20.9124   26.9183 H   0  0  0  0  0  0  0  0  0  0  0  0
   19.2879   18.8370   27.0204 C   0  0  0  0  0  0  0  0  0  0  0  0
   18.3127   18.3441   27.0563 H   0  0  0  0  0  0  0  0  0  0  0  0
   19.5982   19.0512   28.0466 H   0  0  0  0  0  0  0  0  0  0  0  0
   20.2981   17.8641   26.4454 N   0  3  0  0  0  0  0  0  0  0  0  0
   20.0882   17.6410   25.4677 H   0  0  0  0  0  0  0  0  0  0  0  0
   20.3149   16.9804   26.9665 H   0  0  0  0  0  0  0  0  0  0  0  0
   21.2489   18.2465   26.4729 H   0  0  0  0  0  0  0  0  0  0  0  0
  1  2  1  0  0  0  0
  1  3  1  0  0  0  0
  1  4  1  0  0  0  0
  1  5  1  0  0  0  0
  5  6  1  0  0  0  0
  5  7  1  0  0  0  0
  5  8  1  0  0  0  0
  8  9  1  0  0  0  0
  8 10  1  0  0  0  0
  8 11  1  0  0  0  0
 11 12  1  0  0  0  0
 11 13  1  0  0  0  0
 11 14  1  0  0  0  0
 14 15  1  0  0  0  0
 14 16  1  0  0  0  0
 14 17  1  0  0  0  0
 17 18  1  0  0  0  0
 17 19  1  0  0  0  0
 17 20  1  0  0  0  0
 20 21  1  0  0  0  0
 20 22  1  0  0  0  0
 20 23  1  0  0  0  0
 23 24  1  0  0  0  0
 23 25  1  0  0  0  0
 23 26  1  0  0  0  0
 26 27  1  0  0  0  0
 26 28  1  0  0  0  0
 26 29  1  0  0  0  0
M  END
> <VM2 Rank>
403

> <Conf_Id>
180

> <Probability>
0.00

> <Sum Probability>
99.99

> <Delta G>
5.897

> <G>
64.045

> <E>
25.626

> <-TS>
38.420

> <U+W>
1.481

> <U>
53.409

> <W>
-51.928

> <W(PB)>
-54.310

> <W(SA)>
2.382

> <Valence>
5.669

> <Coulomb>
47.137

> <VdW>
0.603

> <VdW6>
-11.423

> <VdW12>
12.027

> <Bond>
0.335

> <Angle>
2.177

> <Pdih>
3.156

> <Idih>
0.000

> <Tether>
0.000

$$$$
VeraChem MOL file


 29 28  0  0  0  0  0  0  0  0999 V2000     
   20.9912   19.0409   20.2018 C   0  0  0  0  0  0  0  0  0  0  0  0
   20.8253   18.0666   19.7238 H   0  0  0  0  0  0  0  0  0  0  0  0
   20.4497   19.8017   19.6245 H   0  0  0  0  0  0  0  0  0  0  0  0
   22.0631   19.2690   20.1380 H   0  0  0  0  0  0  0  0  0  0  0  0
   20.5240   19.0247   21.6725 C   0  0  0  0  0  0  0  0  0  0  0  0
   20.7431   20.0008   22.1246 H   0  0  0  0  0  0  0  0  0  0  0  0
   21.1038   18.2746   22.2278 H   0  0  0  0  0  0  0  0  0  0  0  0
   19.0139   18.7081   21.7855 C   0  0  0  0  0  0  0  0  0  0  0  0
   18.4325   19.4809   21.2639 H   0  0  0  0  0  0  0  0  0  0  0  0
   18.8082   17.7635   21.2631 H   0  0  0  0  0  0  0  0  0  0  0  0
   18.5151   18.5794   23.2452 C   0  0  0  0  0  0  0  0  0  0  0  0
   19.0939   17.8000   23.7559 H   0  0  0  0  0  0  0  0  0  0  0  0
   17.4753   18.2247   23.2273 H   0  0  0  0  0  0  0  0  0  0  0  0
   18.5729   19.9116   24.0353 C   0  0  0  0  0  0  0  0  0  0  0  0
   19.6014   20.2828   24.1061 H   0  0  0  0  0  0  0  0  0  0  0  0
   18.0210   20.6774   23.4730 H   0  0  0  0  0  0  0  0  0  0  0  0
   17.9551   19.8147   25.4532 C   0  0  0  0  0  0  0  0  0  0  0  0
   16.8886   19.5688   25.3565 H   0  0  0  0  0  0  0  0  0  0  0  0
   17.9901   20.8091   25.9192 H   0  0  0  0  0  0  0  0  0  0  0  0
   18.6127   18.7901   26.4164 C   0  0  0  0  0  0  0  0  0  0  0  0
   18.0550   18.8165   27.3619 H   0  0  0  0  0  0  0  0  0  0  0  0
   18.5004   17.7666   26.0365 H   0  0  0  0  0  0  0  0  0  0  0  0
   20.0932   19.0797   26.7394 C   0  0  0  0  0  0  0  0  0  0  0  0
   20.3596   18.5836   27.6766 H   0  0  0  0  0  0  0  0  0  0  0  0
   20.2383   20.1552   26.8715 H   0  0  0  0  0  0  0  0  0  0  0  0
   21.0659   18.5889   25.6856 N   0  3  0  0  0  0  0  0  0  0  0  0
   20.8529   18.9875   24.7662 H   0  0  0  0  0  0  0  0  0  0  0  0
   21.0354   17.5684   25.5908 H   0  0  0  0  0  0  0  0  0  0  0  0
   22.0340   18.8400   25.9155 H   0  0  0  0  0  0  0  0  0  0  0  0
  1  2  1  0  0  0  0
  1  3  1  0  0  0  0
  1  4  1  0  0  0  0
  1  5  1  0  0  0  0
  5  6  1  0  0  0  0
  5  7  1  0  0  0  0
  5  8  1  0  0  0  0
  8  9  1  0  0  0  0
  8 10  1  0  0  0  0
  8 11  1  0  0  0  0
 11 12  1  0  0  0  0
 11 13  1  0  0  0  0
 11 14  1  0  0  0  0
 14 15  1  0  0  0  0
 14 16  1  0  0  0  0
 14 17  1  0  0  0  0
 17 18  1  0  0  0  0
 17 19  1  0  0  0  0
 17 20  1  0  0  0  0
 20 21  1  0  0  0  0
 20 22  1  0  0  0  0
 20 23  1  0  0  0  0
 23 24  1  0  0  0  0
 23 25  1  0  0  0  0
 23 26  1  0  0  0  0
 26 27  1  0  0  0  0
 26 28  1  0  0  0  0
 26 29  1  0  0  0  0
M  END
> <VM2 Rank>
404

> <Conf_Id>
2237

> <Probability>
0.00

> <Sum Probability>
99.99

> <Delta G>
5.906

> <G>
64.054

> <E>
25.916

> <-TS>
38.137

> <U+W>
1.772

> <U>
53.452

> <W>
-51.680

> <W(PB)>
-54.077

> <W(SA)>
2.396

> <Valence>
5.149

> <Coulomb>
47.943

> <VdW>
0.361

> <VdW6>
-10.799

> <VdW12>
11.160

> <Bond>
0.287

> <Angle>
1.682

> <Pdih>
3.180

> <Idih>
0.000

> <Tether>
0.000

$$$$
VeraChem MOL file


 29 28  0  0  0  0  0  0  0  0999 V2000     
   20.5962   17.4437   20.8946 C   0  0  0  0  0  0  0  0  0  0  0  0
   20.2850   16.6377   20.2174 H   0  0  0  0  0  0  0  0  0  0  0  0
   21.2308   18.1357   20.3257 H   0  0  0  0  0  0  0  0  0  0  0  0
   21.2052   16.9978   21.6918 H   0  0  0  0  0  0  0  0  0  0  0  0
   19.3662   18.1710   21.4772 C   0  0  0  0  0  0  0  0  0  0  0  0
   18.7353   17.4474   22.0121 H   0  0  0  0  0  0  0  0  0  0  0  0
   18.7582   18.5760   20.6561 H   0  0  0  0  0  0  0  0  0  0  0  0
   19.7772   19.3117   22.4335 C   0  0  0  0  0  0  0  0  0  0  0  0
   20.4016   18.9044   23.2370 H   0  0  0  0  0  0  0  0  0  0  0  0
   20.4038   20.0338   21.8921 H   0  0  0  0  0  0  0  0  0  0  0  0
   18.5447   20.0439   23.0188 C   0  0  0  0  0  0  0  0  0  0  0  0
   17.8318   19.3292   23.4511 H   0  0  0  0  0  0  0  0  0  0  0  0
   18.0136   20.5296   22.1886 H   0  0  0  0  0  0  0  0  0  0  0  0
   18.9167   21.1254   24.0649 C   0  0  0  0  0  0  0  0  0  0  0  0
   19.9165   21.5294   23.8543 H   0  0  0  0  0  0  0  0  0  0  0  0
   18.2270   21.9709   23.9353 H   0  0  0  0  0  0  0  0  0  0  0  0
   18.8256   20.6797   25.5498 C   0  0  0  0  0  0  0  0  0  0  0  0
   17.7954   20.3818   25.7896 H   0  0  0  0  0  0  0  0  0  0  0  0
   19.0286   21.5636   26.1703 H   0  0  0  0  0  0  0  0  0  0  0  0
   19.8097   19.5628   25.9774 C   0  0  0  0  0  0  0  0  0  0  0  0
   20.7829   19.7111   25.4916 H   0  0  0  0  0  0  0  0  0  0  0  0
   19.9882   19.6505   27.0574 H   0  0  0  0  0  0  0  0  0  0  0  0
   19.2732   18.1455   25.6974 C   0  0  0  0  0  0  0  0  0  0  0  0
   19.0762   18.0207   24.6310 H   0  0  0  0  0  0  0  0  0  0  0  0
   18.3346   17.9960   26.2377 H   0  0  0  0  0  0  0  0  0  0  0  0
   20.2345   17.0543   26.1213 N   0  3  0  0  0  0  0  0  0  0  0  0
   20.4369   17.0943   27.1257 H   0  0  0  0  0  0  0  0  0  0  0  0
   21.1314   17.1226   25.6295 H   0  0  0  0  0  0  0  0  0  0  0  0
   19.8577   16.1195   25.9297 H   0  0  0  0  0  0  0  0  0  0  0  0
  1  2  1  0  0  0  0
  1  3  1  0  0  0  0
  1  4  1  0  0  0  0
  1  5  1  0  0  0  0
  5  6  1  0  0  0  0
  5  7  1  0  0  0  0
  5  8  1  0  0  0  0
  8  9  1  0  0  0  0
  8 10  1  0  0  0  0
  8 11  1  0  0  0  0
 11 12  1  0  0  0  0
 11 13  1  0  0  0  0
 11 14  1  0  0  0  0
 14 15  1  0  0  0  0
 14 16  1  0  0  0  0
 14 17  1  0  0  0  0
 17 18  1  0  0  0  0
 17 19  1  0  0  0  0
 17 20  1  0  0  0  0
 20 21  1  0  0  0  0
 20 22  1  0  0  0  0
 20 23  1  0  0  0  0
 23 24  1  0  0  0  0
 23 25  1  0  0  0  0
 23 26  1  0  0  0  0
 26 27  1  0  0  0  0
 26 28  1  0  0  0  0
 26 29  1  0  0  0  0
M  END
> <VM2 Rank>
405

> <Conf_Id>
2492

> <Probability>
0.00

> <Sum Probability>
99.99

> <Delta G>
5.941

> <G>
64.089

> <E>
25.958

> <-TS>
38.130

> <U+W>
1.814

> <U>
54.581

> <W>
-52.768

> <W(PB)>
-55.196

> <W(SA)>
2.429

> <Valence>
7.467

> <Coulomb>
46.879

> <VdW>
0.236

> <VdW6>
-10.465

> <VdW12>
10.701

> <Bond>
0.266

> <Angle>
1.749

> <Pdih>
5.451

> <Idih>
0.000

> <Tether>
0.000

$$$$
VeraChem MOL file


 29 28  0  0  0  0  0  0  0  0999 V2000     
   20.9708   19.6949   20.3565 C   0  0  0  0  0  0  0  0  0  0  0  0
   21.1037   20.5276   19.6536 H   0  0  0  0  0  0  0  0  0  0  0  0
   21.9041   19.5798   20.9229 H   0  0  0  0  0  0  0  0  0  0  0  0
   20.8119   18.7807   19.7697 H   0  0  0  0  0  0  0  0  0  0  0  0
   19.7784   19.9628   21.2989 C   0  0  0  0  0  0  0  0  0  0  0  0
   18.8676   20.1086   20.7014 H   0  0  0  0  0  0  0  0  0  0  0  0
   19.9508   20.8995   21.8472 H   0  0  0  0  0  0  0  0  0  0  0  0
   19.5673   18.8035   22.2975 C   0  0  0  0  0  0  0  0  0  0  0  0
   19.3866   17.8724   21.7427 H   0  0  0  0  0  0  0  0  0  0  0  0
   20.4904   18.6550   22.8701 H   0  0  0  0  0  0  0  0  0  0  0  0
   18.3759   19.0764   23.2476 C   0  0  0  0  0  0  0  0  0  0  0  0
   17.4792   19.2526   22.6375 H   0  0  0  0  0  0  0  0  0  0  0  0
   18.5424   20.0079   23.7980 H   0  0  0  0  0  0  0  0  0  0  0  0
   18.0688   17.9061   24.2194 C   0  0  0  0  0  0  0  0  0  0  0  0
   17.1293   18.1129   24.7502 H   0  0  0  0  0  0  0  0  0  0  0  0
   17.8718   17.0102   23.6145 H   0  0  0  0  0  0  0  0  0  0  0  0
   19.1741   17.5601   25.2556 C   0  0  0  0  0  0  0  0  0  0  0  0
   20.1684   17.5695   24.7946 H   0  0  0  0  0  0  0  0  0  0  0  0
   19.0172   16.5177   25.5656 H   0  0  0  0  0  0  0  0  0  0  0  0
   19.1637   18.4210   26.5475 C   0  0  0  0  0  0  0  0  0  0  0  0
   18.1888   18.3196   27.0423 H   0  0  0  0  0  0  0  0  0  0  0  0
   19.9013   18.0098   27.2495 H   0  0  0  0  0  0  0  0  0  0  0  0
   19.4619   19.9197   26.3510 C   0  0  0  0  0  0  0  0  0  0  0  0
   19.4879   20.4128   27.3265 H   0  0  0  0  0  0  0  0  0  0  0  0
   18.6652   20.3822   25.7646 H   0  0  0  0  0  0  0  0  0  0  0  0
   20.7832   20.1937   25.6611 N   0  3  0  0  0  0  0  0  0  0  0  0
   20.8029   19.7846   24.7218 H   0  0  0  0  0  0  0  0  0  0  0  0
   21.5722   19.8005   26.1847 H   0  0  0  0  0  0  0  0  0  0  0  0
   20.9592   21.1995   25.5613 H   0  0  0  0  0  0  0  0  0  0  0  0
  1  2  1  0  0  0  0
  1  3  1  0  0  0  0
  1  4  1  0  0  0  0
  1  5  1  0  0  0  0
  5  6  1  0  0  0  0
  5  7  1  0  0  0  0
  5  8  1  0  0  0  0
  8  9  1  0  0  0  0
  8 10  1  0  0  0  0
  8 11  1  0  0  0  0
 11 12  1  0  0  0  0
 11 13  1  0  0  0  0
 11 14  1  0  0  0  0
 14 15  1  0  0  0  0
 14 16  1  0  0  0  0
 14 17  1  0  0  0  0
 17 18  1  0  0  0  0
 17 19  1  0  0  0  0
 17 20  1  0  0  0  0
 20 21  1  0  0  0  0
 20 22  1  0  0  0  0
 20 23  1  0  0  0  0
 23 24  1  0  0  0  0
 23 25  1  0  0  0  0
 23 26  1  0  0  0  0
 26 27  1  0  0  0  0
 26 28  1  0  0  0  0
 26 29  1  0  0  0  0
M  END
> <VM2 Rank>
406

> <Conf_Id>
1660

> <Probability>
0.00

> <Sum Probability>
99.99

> <Delta G>
5.945

> <G>
64.093

> <E>
25.987

> <-TS>
38.107

> <U+W>
1.842

> <U>
53.627

> <W>
-51.785

> <W(PB)>
-54.204

> <W(SA)>
2.419

> <Valence>
5.968

> <Coulomb>
47.262

> <VdW>
0.397

> <VdW6>
-10.682

> <VdW12>
11.079

> <Bond>
0.323

> <Angle>
2.218

> <Pdih>
3.427

> <Idih>
0.000

> <Tether>
0.000

$$$$
VeraChem MOL file


 29 28  0  0  0  0  0  0  0  0999 V2000     
   21.3941   19.0902   22.2238 C   0  0  0  0  0  0  0  0  0  0  0  0
   21.7242   18.2682   21.5755 H   0  0  0  0  0  0  0  0  0  0  0  0
   22.2405   19.7769   22.3523 H   0  0  0  0  0  0  0  0  0  0  0  0
   21.1531   18.6715   23.2076 H   0  0  0  0  0  0  0  0  0  0  0  0
   20.1856   19.8294   21.6051 C   0  0  0  0  0  0  0  0  0  0  0  0
   20.5044   20.2889   20.6592 H   0  0  0  0  0  0  0  0  0  0  0  0
   19.8772   20.6632   22.2478 H   0  0  0  0  0  0  0  0  0  0  0  0
   18.9797   18.9023   21.3160 C   0  0  0  0  0  0  0  0  0  0  0  0
   18.1932   19.4897   20.8228 H   0  0  0  0  0  0  0  0  0  0  0  0
   19.2907   18.1476   20.5806 H   0  0  0  0  0  0  0  0  0  0  0  0
   18.3672   18.1699   22.5408 C   0  0  0  0  0  0  0  0  0  0  0  0
   19.1069   17.5039   22.9991 H   0  0  0  0  0  0  0  0  0  0  0  0
   17.5853   17.5018   22.1544 H   0  0  0  0  0  0  0  0  0  0  0  0
   17.7061   19.0976   23.5979 C   0  0  0  0  0  0  0  0  0  0  0  0
   17.2818   19.9770   23.0945 H   0  0  0  0  0  0  0  0  0  0  0  0
   16.8479   18.5702   24.0368 H   0  0  0  0  0  0  0  0  0  0  0  0
   18.6263   19.5621   24.7572 C   0  0  0  0  0  0  0  0  0  0  0  0
   18.0812   20.3117   25.3473 H   0  0  0  0  0  0  0  0  0  0  0  0
   19.5086   20.0749   24.3616 H   0  0  0  0  0  0  0  0  0  0  0  0
   19.0587   18.4125   25.7020 C   0  0  0  0  0  0  0  0  0  0  0  0
   18.1667   17.8818   26.0602 H   0  0  0  0  0  0  0  0  0  0  0  0
   19.6675   17.6750   25.1654 H   0  0  0  0  0  0  0  0  0  0  0  0
   19.8480   18.9198   26.9239 C   0  0  0  0  0  0  0  0  0  0  0  0
   20.0491   18.0837   27.5992 H   0  0  0  0  0  0  0  0  0  0  0  0
   19.2527   19.6601   27.4652 H   0  0  0  0  0  0  0  0  0  0  0  0
   21.1784   19.5542   26.5684 N   0  3  0  0  0  0  0  0  0  0  0  0
   21.7957   18.8959   26.0822 H   0  0  0  0  0  0  0  0  0  0  0  0
   21.6806   19.8758   27.4033 H   0  0  0  0  0  0  0  0  0  0  0  0
   21.0584   20.3682   25.9575 H   0  0  0  0  0  0  0  0  0  0  0  0
  1  2  1  0  0  0  0
  1  3  1  0  0  0  0
  1  4  1  0  0  0  0
  1  5  1  0  0  0  0
  5  6  1  0  0  0  0
  5  7  1  0  0  0  0
  5  8  1  0  0  0  0
  8  9  1  0  0  0  0
  8 10  1  0  0  0  0
  8 11  1  0  0  0  0
 11 12  1  0  0  0  0
 11 13  1  0  0  0  0
 11 14  1  0  0  0  0
 14 15  1  0  0  0  0
 14 16  1  0  0  0  0
 14 17  1  0  0  0  0
 17 18  1  0  0  0  0
 17 19  1  0  0  0  0
 17 20  1  0  0  0  0
 20 21  1  0  0  0  0
 20 22  1  0  0  0  0
 20 23  1  0  0  0  0
 23 24  1  0  0  0  0
 23 25  1  0  0  0  0
 23 26  1  0  0  0  0
 26 27  1  0  0  0  0
 26 28  1  0  0  0  0
 26 29  1  0  0  0  0
M  END
> <VM2 Rank>
407

> <Conf_Id>
260

> <Probability>
0.00

> <Sum Probability>
99.99

> <Delta G>
5.946

> <G>
64.094

> <E>
25.659

> <-TS>
38.435

> <U+W>
1.514

> <U>
54.197

> <W>
-52.683

> <W(PB)>
-54.995

> <W(SA)>
2.312

> <Valence>
6.971

> <Coulomb>
46.740

> <VdW>
0.487

> <VdW6>
-11.331

> <VdW12>
11.817

> <Bond>
0.365

> <Angle>
2.349

> <Pdih>
4.256

> <Idih>
0.000

> <Tether>
0.000

$$$$
VeraChem MOL file


 29 28  0  0  0  0  0  0  0  0999 V2000     
   21.4094   19.7267   20.9456 C   0  0  0  0  0  0  0  0  0  0  0  0
   21.6872   20.5742   20.3055 H   0  0  0  0  0  0  0  0  0  0  0  0
   22.1519   19.6552   21.7511 H   0  0  0  0  0  0  0  0  0  0  0  0
   21.4718   18.8127   20.3407 H   0  0  0  0  0  0  0  0  0  0  0  0
   19.9885   19.9179   21.5163 C   0  0  0  0  0  0  0  0  0  0  0  0
   19.2729   20.0213   20.6886 H   0  0  0  0  0  0  0  0  0  0  0  0
   19.9494   20.8555   22.0884 H   0  0  0  0  0  0  0  0  0  0  0  0
   19.5726   18.7373   22.4207 C   0  0  0  0  0  0  0  0  0  0  0  0
   19.6095   17.8039   21.8422 H   0  0  0  0  0  0  0  0  0  0  0  0
   20.3025   18.6261   23.2308 H   0  0  0  0  0  0  0  0  0  0  0  0
   18.1466   18.9262   22.9939 C   0  0  0  0  0  0  0  0  0  0  0  0
   17.4398   18.9187   22.1526 H   0  0  0  0  0  0  0  0  0  0  0  0
   18.0396   19.9128   23.4641 H   0  0  0  0  0  0  0  0  0  0  0  0
   17.7367   17.8126   23.9909 C   0  0  0  0  0  0  0  0  0  0  0  0
   16.6698   17.5991   23.8377 H   0  0  0  0  0  0  0  0  0  0  0  0
   18.2591   16.8764   23.7504 H   0  0  0  0  0  0  0  0  0  0  0  0
   17.9267   18.1563   25.4934 C   0  0  0  0  0  0  0  0  0  0  0  0
   17.5168   17.3193   26.0755 H   0  0  0  0  0  0  0  0  0  0  0  0
   17.3133   19.0284   25.7594 H   0  0  0  0  0  0  0  0  0  0  0  0
   19.3891   18.3821   25.9510 C   0  0  0  0  0  0  0  0  0  0  0  0
   19.4568   18.1586   27.0241 H   0  0  0  0  0  0  0  0  0  0  0  0
   20.0564   17.6716   25.4460 H   0  0  0  0  0  0  0  0  0  0  0  0
   19.8729   19.8292   25.7349 C   0  0  0  0  0  0  0  0  0  0  0  0
   19.2325   20.5167   26.2940 H   0  0  0  0  0  0  0  0  0  0  0  0
   19.8141   20.0925   24.6772 H   0  0  0  0  0  0  0  0  0  0  0  0
   21.3014   20.0497   26.1881 N   0  3  0  0  0  0  0  0  0  0  0  0
   21.9602   19.4495   25.6814 H   0  0  0  0  0  0  0  0  0  0  0  0
   21.4189   19.8511   27.1871 H   0  0  0  0  0  0  0  0  0  0  0  0
   21.6029   21.0189   26.0389 H   0  0  0  0  0  0  0  0  0  0  0  0
  1  2  1  0  0  0  0
  1  3  1  0  0  0  0
  1  4  1  0  0  0  0
  1  5  1  0  0  0  0
  5  6  1  0  0  0  0
  5  7  1  0  0  0  0
  5  8  1  0  0  0  0
  8  9  1  0  0  0  0
  8 10  1  0  0  0  0
  8 11  1  0  0  0  0
 11 12  1  0  0  0  0
 11 13  1  0  0  0  0
 11 14  1  0  0  0  0
 14 15  1  0  0  0  0
 14 16  1  0  0  0  0
 14 17  1  0  0  0  0
 17 18  1  0  0  0  0
 17 19  1  0  0  0  0
 17 20  1  0  0  0  0
 20 21  1  0  0  0  0
 20 22  1  0  0  0  0
 20 23  1  0  0  0  0
 23 24  1  0  0  0  0
 23 25  1  0  0  0  0
 23 26  1  0  0  0  0
 26 27  1  0  0  0  0
 26 28  1  0  0  0  0
 26 29  1  0  0  0  0
M  END
> <VM2 Rank>
408

> <Conf_Id>
1360

> <Probability>
0.00

> <Sum Probability>
99.99

> <Delta G>
5.951

> <G>
64.099

> <E>
25.968

> <-TS>
38.131

> <U+W>
1.824

> <U>
54.581

> <W>
-52.757

> <W(PB)>
-55.207

> <W(SA)>
2.450

> <Valence>
7.466

> <Coulomb>
46.879

> <VdW>
0.236

> <VdW6>
-10.465

> <VdW12>
10.702

> <Bond>
0.266

> <Angle>
1.749

> <Pdih>
5.451

> <Idih>
0.000

> <Tether>
0.000

$$$$
VeraChem MOL file


 29 28  0  0  0  0  0  0  0  0999 V2000     
   20.9669   17.8936   22.1968 C   0  0  0  0  0  0  0  0  0  0  0  0
   21.0315   18.3308   23.1999 H   0  0  0  0  0  0  0  0  0  0  0  0
   21.1856   16.8217   22.2861 H   0  0  0  0  0  0  0  0  0  0  0  0
   21.7520   18.3458   21.5771 H   0  0  0  0  0  0  0  0  0  0  0  0
   19.5724   18.1116   21.5666 C   0  0  0  0  0  0  0  0  0  0  0  0
   18.7968   17.6365   22.1800 H   0  0  0  0  0  0  0  0  0  0  0  0
   19.5417   17.5921   20.5987 H   0  0  0  0  0  0  0  0  0  0  0  0
   19.2299   19.6030   21.3317 C   0  0  0  0  0  0  0  0  0  0  0  0
   19.9588   20.0190   20.6226 H   0  0  0  0  0  0  0  0  0  0  0  0
   18.2563   19.6664   20.8267 H   0  0  0  0  0  0  0  0  0  0  0  0
   19.2019   20.5083   22.5931 C   0  0  0  0  0  0  0  0  0  0  0  0
   19.0250   21.5352   22.2448 H   0  0  0  0  0  0  0  0  0  0  0  0
   20.1895   20.5368   23.0671 H   0  0  0  0  0  0  0  0  0  0  0  0
   18.0880   20.1674   23.6218 C   0  0  0  0  0  0  0  0  0  0  0  0
   17.7510   21.1008   24.0933 H   0  0  0  0  0  0  0  0  0  0  0  0
   17.2102   19.7758   23.0898 H   0  0  0  0  0  0  0  0  0  0  0  0
   18.4899   19.1798   24.7486 C   0  0  0  0  0  0  0  0  0  0  0  0
   18.8542   18.2407   24.3206 H   0  0  0  0  0  0  0  0  0  0  0  0
   17.5851   18.9216   25.3161 H   0  0  0  0  0  0  0  0  0  0  0  0
   19.5386   19.7577   25.7322 C   0  0  0  0  0  0  0  0  0  0  0  0
   20.4842   19.9642   25.2169 H   0  0  0  0  0  0  0  0  0  0  0  0
   19.1786   20.7182   26.1239 H   0  0  0  0  0  0  0  0  0  0  0  0
   19.8113   18.8174   26.9217 C   0  0  0  0  0  0  0  0  0  0  0  0
   18.8743   18.5999   27.4414 H   0  0  0  0  0  0  0  0  0  0  0  0
   20.4863   19.3099   27.6269 H   0  0  0  0  0  0  0  0  0  0  0  0
   20.4451   17.4992   26.5225 N   0  3  0  0  0  0  0  0  0  0  0  0
   19.8461   16.9699   25.8814 H   0  0  0  0  0  0  0  0  0  0  0  0
   20.6186   16.8995   27.3367 H   0  0  0  0  0  0  0  0  0  0  0  0
   21.3466   17.6372   26.0543 H   0  0  0  0  0  0  0  0  0  0  0  0
  1  2  1  0  0  0  0
  1  3  1  0  0  0  0
  1  4  1  0  0  0  0
  1  5  1  0  0  0  0
  5  6  1  0  0  0  0
  5  7  1  0  0  0  0
  5  8  1  0  0  0  0
  8  9  1  0  0  0  0
  8 10  1  0  0  0  0
  8 11  1  0  0  0  0
 11 12  1  0  0  0  0
 11 13  1  0  0  0  0
 11 14  1  0  0  0  0
 14 15  1  0  0  0  0
 14 16  1  0  0  0  0
 14 17  1  0  0  0  0
 17 18  1  0  0  0  0
 17 19  1  0  0  0  0
 17 20  1  0  0  0  0
 20 21  1  0  0  0  0
 20 22  1  0  0  0  0
 20 23  1  0  0  0  0
 23 24  1  0  0  0  0
 23 25  1  0  0  0  0
 23 26  1  0  0  0  0
 26 27  1  0  0  0  0
 26 28  1  0  0  0  0
 26 29  1  0  0  0  0
M  END
> <VM2 Rank>
409

> <Conf_Id>
320

> <Probability>
0.00

> <Sum Probability>
100.00

> <Delta G>
5.966

> <G>
64.114

> <E>
25.680

> <-TS>
38.434

> <U+W>
1.535

> <U>
54.197

> <W>
-52.662

> <W(PB)>
-54.997

> <W(SA)>
2.336

> <Valence>
6.971

> <Coulomb>
46.740

> <VdW>
0.487

> <VdW6>
-11.330

> <VdW12>
11.817

> <Bond>
0.365

> <Angle>
2.348

> <Pdih>
4.257

> <Idih>
0.000

> <Tether>
0.000

$$$$
VeraChem MOL file


 29 28  0  0  0  0  0  0  0  0999 V2000     
   18.7453   19.6142   19.9018 C   0  0  0  0  0  0  0  0  0  0  0  0
   18.2560   20.5697   19.6723 H   0  0  0  0  0  0  0  0  0  0  0  0
   19.6785   19.5663   19.3256 H   0  0  0  0  0  0  0  0  0  0  0  0
   18.0872   18.8069   19.5547 H   0  0  0  0  0  0  0  0  0  0  0  0
   19.0216   19.4934   21.4153 C   0  0  0  0  0  0  0  0  0  0  0  0
   18.0739   19.5729   21.9657 H   0  0  0  0  0  0  0  0  0  0  0  0
   19.6502   20.3368   21.7305 H   0  0  0  0  0  0  0  0  0  0  0  0
   19.7173   18.1573   21.7629 C   0  0  0  0  0  0  0  0  0  0  0  0
   19.1175   17.3285   21.3622 H   0  0  0  0  0  0  0  0  0  0  0  0
   20.6887   18.1063   21.2520 H   0  0  0  0  0  0  0  0  0  0  0  0
   19.9204   17.9235   23.2820 C   0  0  0  0  0  0  0  0  0  0  0  0
   20.3588   16.9241   23.4090 H   0  0  0  0  0  0  0  0  0  0  0  0
   18.9445   17.8861   23.7811 H   0  0  0  0  0  0  0  0  0  0  0  0
   20.8578   18.9543   23.9683 C   0  0  0  0  0  0  0  0  0  0  0  0
   21.4692   18.4427   24.7243 H   0  0  0  0  0  0  0  0  0  0  0  0
   21.5745   19.3339   23.2270 H   0  0  0  0  0  0  0  0  0  0  0  0
   20.1279   20.1512   24.6362 C   0  0  0  0  0  0  0  0  0  0  0  0
   19.2249   20.4199   24.0738 H   0  0  0  0  0  0  0  0  0  0  0  0
   20.7866   21.0290   24.5840 H   0  0  0  0  0  0  0  0  0  0  0  0
   19.7665   19.9200   26.1248 C   0  0  0  0  0  0  0  0  0  0  0  0
   20.6840   19.7376   26.7000 H   0  0  0  0  0  0  0  0  0  0  0  0
   19.3243   20.8406   26.5283 H   0  0  0  0  0  0  0  0  0  0  0  0
   18.7850   18.7553   26.3450 C   0  0  0  0  0  0  0  0  0  0  0  0
   19.2363   17.8233   25.9947 H   0  0  0  0  0  0  0  0  0  0  0  0
   17.8695   18.9326   25.7744 H   0  0  0  0  0  0  0  0  0  0  0  0
   18.4022   18.5688   27.7988 N   0  3  0  0  0  0  0  0  0  0  0  0
   19.2193   18.3724   28.3863 H   0  0  0  0  0  0  0  0  0  0  0  0
   17.7491   17.7875   27.9238 H   0  0  0  0  0  0  0  0  0  0  0  0
   17.9472   19.4032   28.1837 H   0  0  0  0  0  0  0  0  0  0  0  0
  1  2  1  0  0  0  0
  1  3  1  0  0  0  0
  1  4  1  0  0  0  0
  1  5  1  0  0  0  0
  5  6  1  0  0  0  0
  5  7  1  0  0  0  0
  5  8  1  0  0  0  0
  8  9  1  0  0  0  0
  8 10  1  0  0  0  0
  8 11  1  0  0  0  0
 11 12  1  0  0  0  0
 11 13  1  0  0  0  0
 11 14  1  0  0  0  0
 14 15  1  0  0  0  0
 14 16  1  0  0  0  0
 14 17  1  0  0  0  0
 17 18  1  0  0  0  0
 17 19  1  0  0  0  0
 17 20  1  0  0  0  0
 20 21  1  0  0  0  0
 20 22  1  0  0  0  0
 20 23  1  0  0  0  0
 23 24  1  0  0  0  0
 23 25  1  0  0  0  0
 23 26  1  0  0  0  0
 26 27  1  0  0  0  0
 26 28  1  0  0  0  0
 26 29  1  0  0  0  0
M  END
> <VM2 Rank>
410

> <Conf_Id>
339

> <Probability>
0.00

> <Sum Probability>
100.00

> <Delta G>
6.001

> <G>
64.149

> <E>
26.257

> <-TS>
37.892

> <U+W>
2.113

> <U>
54.320

> <W>
-52.208

> <W(PB)>
-54.655

> <W(SA)>
2.447

> <Valence>
7.833

> <Coulomb>
45.675

> <VdW>
0.812

> <VdW6>
-10.152

> <VdW12>
10.964

> <Bond>
0.310

> <Angle>
1.541

> <Pdih>
5.981

> <Idih>
0.000

> <Tether>
0.000

$$$$
VeraChem MOL file


 29 28  0  0  0  0  0  0  0  0999 V2000     
   20.4739   18.9281   20.2935 C   0  0  0  0  0  0  0  0  0  0  0  0
   20.0434   19.6564   19.5940 H   0  0  0  0  0  0  0  0  0  0  0  0
   21.1054   19.4732   21.0032 H   0  0  0  0  0  0  0  0  0  0  0  0
   21.1257   18.2586   19.7174 H   0  0  0  0  0  0  0  0  0  0  0  0
   19.3626   18.1200   21.0030 C   0  0  0  0  0  0  0  0  0  0  0  0
   19.8049   17.3612   21.6633 H   0  0  0  0  0  0  0  0  0  0  0  0
   18.8067   17.5649   20.2344 H   0  0  0  0  0  0  0  0  0  0  0  0
   18.3610   19.0026   21.7918 C   0  0  0  0  0  0  0  0  0  0  0  0
   18.2454   19.9789   21.3014 H   0  0  0  0  0  0  0  0  0  0  0  0
   17.3725   18.5260   21.7376 H   0  0  0  0  0  0  0  0  0  0  0  0
   18.7019   19.1939   23.2922 C   0  0  0  0  0  0  0  0  0  0  0  0
   18.7337   18.2086   23.7748 H   0  0  0  0  0  0  0  0  0  0  0  0
   17.8797   19.7496   23.7634 H   0  0  0  0  0  0  0  0  0  0  0  0
   20.0307   19.9421   23.5518 C   0  0  0  0  0  0  0  0  0  0  0  0
   20.8747   19.2949   23.2798 H   0  0  0  0  0  0  0  0  0  0  0  0
   20.0815   20.8179   22.8904 H   0  0  0  0  0  0  0  0  0  0  0  0
   20.2195   20.4278   25.0122 C   0  0  0  0  0  0  0  0  0  0  0  0
   19.4288   21.1428   25.2787 H   0  0  0  0  0  0  0  0  0  0  0  0
   21.1595   20.9955   25.0530 H   0  0  0  0  0  0  0  0  0  0  0  0
   20.2939   19.2988   26.0708 C   0  0  0  0  0  0  0  0  0  0  0  0
   20.8477   18.4402   25.6683 H   0  0  0  0  0  0  0  0  0  0  0  0
   20.8709   19.6647   26.9306 H   0  0  0  0  0  0  0  0  0  0  0  0
   18.9098   18.8518   26.5797 C   0  0  0  0  0  0  0  0  0  0  0  0
   18.3100   18.4633   25.7548 H   0  0  0  0  0  0  0  0  0  0  0  0
   18.3843   19.7081   27.0108 H   0  0  0  0  0  0  0  0  0  0  0  0
   18.9906   17.7729   27.6400 N   0  3  0  0  0  0  0  0  0  0  0  0
   19.4526   16.9272   27.2898 H   0  0  0  0  0  0  0  0  0  0  0  0
   18.0605   17.4916   27.9692 H   0  0  0  0  0  0  0  0  0  0  0  0
   19.5166   18.0855   28.4629 H   0  0  0  0  0  0  0  0  0  0  0  0
  1  2  1  0  0  0  0
  1  3  1  0  0  0  0
  1  4  1  0  0  0  0
  1  5  1  0  0  0  0
  5  6  1  0  0  0  0
  5  7  1  0  0  0  0
  5  8  1  0  0  0  0
  8  9  1  0  0  0  0
  8 10  1  0  0  0  0
  8 11  1  0  0  0  0
 11 12  1  0  0  0  0
 11 13  1  0  0  0  0
 11 14  1  0  0  0  0
 14 15  1  0  0  0  0
 14 16  1  0  0  0  0
 14 17  1  0  0  0  0
 17 18  1  0  0  0  0
 17 19  1  0  0  0  0
 17 20  1  0  0  0  0
 20 21  1  0  0  0  0
 20 22  1  0  0  0  0
 20 23  1  0  0  0  0
 23 24  1  0  0  0  0
 23 25  1  0  0  0  0
 23 26  1  0  0  0  0
 26 27  1  0  0  0  0
 26 28  1  0  0  0  0
 26 29  1  0  0  0  0
M  END
> <VM2 Rank>
411

> <Conf_Id>
1964

> <Probability>
0.00

> <Sum Probability>
100.00

> <Delta G>
6.064

> <G>
64.212

> <E>
26.364

> <-TS>
37.849

> <U+W>
2.219

> <U>
54.483

> <W>
-52.264

> <W(PB)>
-54.710

> <W(SA)>
2.446

> <Valence>
7.845

> <Coulomb>
45.850

> <VdW>
0.787

> <VdW6>
-10.198

> <VdW12>
10.985

> <Bond>
0.296

> <Angle>
1.942

> <Pdih>
5.608

> <Idih>
0.000

> <Tether>
0.000

$$$$
VeraChem MOL file


 29 28  0  0  0  0  0  0  0  0999 V2000     
   20.6946   18.8051   20.6937 C   0  0  0  0  0  0  0  0  0  0  0  0
   20.0951   19.1811   19.8546 H   0  0  0  0  0  0  0  0  0  0  0  0
   21.7399   18.7519   20.3632 H   0  0  0  0  0  0  0  0  0  0  0  0
   20.3680   17.7825   20.9204 H   0  0  0  0  0  0  0  0  0  0  0  0
   20.5633   19.7262   21.9273 C   0  0  0  0  0  0  0  0  0  0  0  0
   21.0214   20.6969   21.6920 H   0  0  0  0  0  0  0  0  0  0  0  0
   21.1506   19.3140   22.7575 H   0  0  0  0  0  0  0  0  0  0  0  0
   19.0956   19.9705   22.3653 C   0  0  0  0  0  0  0  0  0  0  0  0
   19.0906   20.6602   23.2162 H   0  0  0  0  0  0  0  0  0  0  0  0
   18.5792   20.5050   21.5562 H   0  0  0  0  0  0  0  0  0  0  0  0
   18.2731   18.6960   22.7038 C   0  0  0  0  0  0  0  0  0  0  0  0
   18.2122   18.0746   21.8008 H   0  0  0  0  0  0  0  0  0  0  0  0
   17.2353   18.9834   22.9205 H   0  0  0  0  0  0  0  0  0  0  0  0
   18.8163   17.8215   23.8675 C   0  0  0  0  0  0  0  0  0  0  0  0
   18.5298   16.7817   23.6584 H   0  0  0  0  0  0  0  0  0  0  0  0
   19.9121   17.8144   23.8818 H   0  0  0  0  0  0  0  0  0  0  0  0
   18.2512   18.1714   25.2708 C   0  0  0  0  0  0  0  0  0  0  0  0
   18.5981   17.4125   25.9849 H   0  0  0  0  0  0  0  0  0  0  0  0
   17.1571   18.0742   25.2496 H   0  0  0  0  0  0  0  0  0  0  0  0
   18.6149   19.5752   25.8165 C   0  0  0  0  0  0  0  0  0  0  0  0
   18.1127   20.3444   25.2178 H   0  0  0  0  0  0  0  0  0  0  0  0
   18.2101   19.6804   26.8318 H   0  0  0  0  0  0  0  0  0  0  0  0
   20.1294   19.8608   25.8498 C   0  0  0  0  0  0  0  0  0  0  0  0
   20.3006   20.8767   26.2160 H   0  0  0  0  0  0  0  0  0  0  0  0
   20.5398   19.7888   24.8399 H   0  0  0  0  0  0  0  0  0  0  0  0
   20.9055   18.9113   26.7403 N   0  3  0  0  0  0  0  0  0  0  0  0
   20.5847   18.9561   27.7130 H   0  0  0  0  0  0  0  0  0  0  0  0
   21.9087   19.1253   26.7443 H   0  0  0  0  0  0  0  0  0  0  0  0
   20.8039   17.9393   26.4321 H   0  0  0  0  0  0  0  0  0  0  0  0
  1  2  1  0  0  0  0
  1  3  1  0  0  0  0
  1  4  1  0  0  0  0
  1  5  1  0  0  0  0
  5  6  1  0  0  0  0
  5  7  1  0  0  0  0
  5  8  1  0  0  0  0
  8  9  1  0  0  0  0
  8 10  1  0  0  0  0
  8 11  1  0  0  0  0
 11 12  1  0  0  0  0
 11 13  1  0  0  0  0
 11 14  1  0  0  0  0
 14 15  1  0  0  0  0
 14 16  1  0  0  0  0
 14 17  1  0  0  0  0
 17 18  1  0  0  0  0
 17 19  1  0  0  0  0
 17 20  1  0  0  0  0
 20 21  1  0  0  0  0
 20 22  1  0  0  0  0
 20 23  1  0  0  0  0
 23 24  1  0  0  0  0
 23 25  1  0  0  0  0
 23 26  1  0  0  0  0
 26 27  1  0  0  0  0
 26 28  1  0  0  0  0
 26 29  1  0  0  0  0
M  END
> <VM2 Rank>
412

> <Conf_Id>
1231

> <Probability>
0.00

> <Sum Probability>
100.00

> <Delta G>
6.066

> <G>
64.214

> <E>
25.448

> <-TS>
38.766

> <U+W>
1.303

> <U>
54.149

> <W>
-52.846

> <W(PB)>
-55.185

> <W(SA)>
2.338

> <Valence>
7.242

> <Coulomb>
46.523

> <VdW>
0.384

> <VdW6>
-12.344

> <VdW12>
12.728

> <Bond>
0.400

> <Angle>
2.749

> <Pdih>
4.094

> <Idih>
0.000

> <Tether>
0.000

$$$$
VeraChem MOL file


 29 28  0  0  0  0  0  0  0  0999 V2000     
   21.0158   18.9518   21.0728 C   0  0  0  0  0  0  0  0  0  0  0  0
   21.3751   18.8228   22.1009 H   0  0  0  0  0  0  0  0  0  0  0  0
   20.6455   17.9857   20.7061 H   0  0  0  0  0  0  0  0  0  0  0  0
   21.8796   19.2362   20.4581 H   0  0  0  0  0  0  0  0  0  0  0  0
   19.9188   20.0355   20.9951 C   0  0  0  0  0  0  0  0  0  0  0  0
   19.7263   20.2662   19.9380 H   0  0  0  0  0  0  0  0  0  0  0  0
   20.2928   20.9653   21.4459 H   0  0  0  0  0  0  0  0  0  0  0  0
   18.5772   19.6372   21.6617 C   0  0  0  0  0  0  0  0  0  0  0  0
   17.8720   20.4645   21.5015 H   0  0  0  0  0  0  0  0  0  0  0  0
   18.1404   18.7733   21.1424 H   0  0  0  0  0  0  0  0  0  0  0  0
   18.6623   19.3661   23.1868 C   0  0  0  0  0  0  0  0  0  0  0  0
   17.7261   19.7045   23.6515 H   0  0  0  0  0  0  0  0  0  0  0  0
   19.4649   19.9767   23.6188 H   0  0  0  0  0  0  0  0  0  0  0  0
   18.8653   17.8702   23.5378 C   0  0  0  0  0  0  0  0  0  0  0  0
   18.1132   17.2748   23.0022 H   0  0  0  0  0  0  0  0  0  0  0  0
   19.8391   17.5223   23.1740 H   0  0  0  0  0  0  0  0  0  0  0  0
   18.7446   17.5442   25.0489 C   0  0  0  0  0  0  0  0  0  0  0  0
   18.8522   16.4566   25.1623 H   0  0  0  0  0  0  0  0  0  0  0  0
   17.7335   17.7817   25.4078 H   0  0  0  0  0  0  0  0  0  0  0  0
   19.8031   18.2296   25.9492 C   0  0  0  0  0  0  0  0  0  0  0  0
   19.9785   17.5948   26.8280 H   0  0  0  0  0  0  0  0  0  0  0  0
   20.7625   18.2979   25.4193 H   0  0  0  0  0  0  0  0  0  0  0  0
   19.3636   19.6210   26.4450 C   0  0  0  0  0  0  0  0  0  0  0  0
   18.4346   19.5297   27.0142 H   0  0  0  0  0  0  0  0  0  0  0  0
   19.1803   20.2852   25.5986 H   0  0  0  0  0  0  0  0  0  0  0  0
   20.3934   20.2823   27.3378 N   0  3  0  0  0  0  0  0  0  0  0  0
   20.5888   19.7224   28.1743 H   0  0  0  0  0  0  0  0  0  0  0  0
   20.0811   21.2043   27.6617 H   0  0  0  0  0  0  0  0  0  0  0  0
   21.2859   20.4220   26.8527 H   0  0  0  0  0  0  0  0  0  0  0  0
  1  2  1  0  0  0  0
  1  3  1  0  0  0  0
  1  4  1  0  0  0  0
  1  5  1  0  0  0  0
  5  6  1  0  0  0  0
  5  7  1  0  0  0  0
  5  8  1  0  0  0  0
  8  9  1  0  0  0  0
  8 10  1  0  0  0  0
  8 11  1  0  0  0  0
 11 12  1  0  0  0  0
 11 13  1  0  0  0  0
 11 14  1  0  0  0  0
 14 15  1  0  0  0  0
 14 16  1  0  0  0  0
 14 17  1  0  0  0  0
 17 18  1  0  0  0  0
 17 19  1  0  0  0  0
 17 20  1  0  0  0  0
 20 21  1  0  0  0  0
 20 22  1  0  0  0  0
 20 23  1  0  0  0  0
 23 24  1  0  0  0  0
 23 25  1  0  0  0  0
 23 26  1  0  0  0  0
 26 27  1  0  0  0  0
 26 28  1  0  0  0  0
 26 29  1  0  0  0  0
M  END
> <VM2 Rank>
413

> <Conf_Id>
1534

> <Probability>
0.00

> <Sum Probability>
100.00

> <Delta G>
6.137

> <G>
64.285

> <E>
26.505

> <-TS>
37.781

> <U+W>
2.360

> <U>
54.783

> <W>
-52.423

> <W(PB)>
-54.865

> <W(SA)>
2.442

> <Valence>
7.954

> <Coulomb>
46.046

> <VdW>
0.783

> <VdW6>
-10.257

> <VdW12>
11.040

> <Bond>
0.306

> <Angle>
1.905

> <Pdih>
5.743

> <Idih>
0.000

> <Tether>
0.000

$$$$
VeraChem MOL file


 29 28  0  0  0  0  0  0  0  0999 V2000     
   21.0599   19.3316   20.1997 C   0  0  0  0  0  0  0  0  0  0  0  0
   21.8346   18.6430   20.5614 H   0  0  0  0  0  0  0  0  0  0  0  0
   21.0699   19.3038   19.1023 H   0  0  0  0  0  0  0  0  0  0  0  0
   21.3318   20.3479   20.5136 H   0  0  0  0  0  0  0  0  0  0  0  0
   19.6700   18.9368   20.7420 C   0  0  0  0  0  0  0  0  0  0  0  0
   19.4113   17.9307   20.3834 H   0  0  0  0  0  0  0  0  0  0  0  0
   18.9123   19.6224   20.3375 H   0  0  0  0  0  0  0  0  0  0  0  0
   19.6294   18.9675   22.2858 C   0  0  0  0  0  0  0  0  0  0  0  0
   20.3860   18.2782   22.6849 H   0  0  0  0  0  0  0  0  0  0  0  0
   19.8957   19.9754   22.6299 H   0  0  0  0  0  0  0  0  0  0  0  0
   18.2355   18.5794   22.8319 C   0  0  0  0  0  0  0  0  0  0  0  0
   17.9441   17.6079   22.4093 H   0  0  0  0  0  0  0  0  0  0  0  0
   17.4884   19.3031   22.4780 H   0  0  0  0  0  0  0  0  0  0  0  0
   18.1652   18.4801   24.3774 C   0  0  0  0  0  0  0  0  0  0  0  0
   17.1545   18.1403   24.6427 H   0  0  0  0  0  0  0  0  0  0  0  0
   18.8457   17.6935   24.7241 H   0  0  0  0  0  0  0  0  0  0  0  0
   18.4365   19.8190   25.1164 C   0  0  0  0  0  0  0  0  0  0  0  0
   17.7742   19.8933   25.9901 H   0  0  0  0  0  0  0  0  0  0  0  0
   18.1468   20.6534   24.4629 H   0  0  0  0  0  0  0  0  0  0  0  0
   19.9034   20.0180   25.5834 C   0  0  0  0  0  0  0  0  0  0  0  0
   20.6105   19.5907   24.8624 H   0  0  0  0  0  0  0  0  0  0  0  0
   20.1135   21.0953   25.6120 H   0  0  0  0  0  0  0  0  0  0  0  0
   20.1874   19.4552   26.9920 C   0  0  0  0  0  0  0  0  0  0  0  0
   19.4983   19.9071   27.7104 H   0  0  0  0  0  0  0  0  0  0  0  0
   21.2061   19.7205   27.2875 H   0  0  0  0  0  0  0  0  0  0  0  0
   20.0568   17.9505   27.1064 N   0  3  0  0  0  0  0  0  0  0  0  0
   20.7064   17.4642   26.4800 H   0  0  0  0  0  0  0  0  0  0  0  0
   19.1098   17.6388   26.8685 H   0  0  0  0  0  0  0  0  0  0  0  0
   20.2536   17.6227   28.0584 H   0  0  0  0  0  0  0  0  0  0  0  0
  1  2  1  0  0  0  0
  1  3  1  0  0  0  0
  1  4  1  0  0  0  0
  1  5  1  0  0  0  0
  5  6  1  0  0  0  0
  5  7  1  0  0  0  0
  5  8  1  0  0  0  0
  8  9  1  0  0  0  0
  8 10  1  0  0  0  0
  8 11  1  0  0  0  0
 11 12  1  0  0  0  0
 11 13  1  0  0  0  0
 11 14  1  0  0  0  0
 14 15  1  0  0  0  0
 14 16  1  0  0  0  0
 14 17  1  0  0  0  0
 17 18  1  0  0  0  0
 17 19  1  0  0  0  0
 17 20  1  0  0  0  0
 20 21  1  0  0  0  0
 20 22  1  0  0  0  0
 20 23  1  0  0  0  0
 23 24  1  0  0  0  0
 23 25  1  0  0  0  0
 23 26  1  0  0  0  0
 26 27  1  0  0  0  0
 26 28  1  0  0  0  0
 26 29  1  0  0  0  0
M  END
> <VM2 Rank>
414

> <Conf_Id>
326

> <Probability>
0.00

> <Sum Probability>
100.00

> <Delta G>
6.155

> <G>
64.303

> <E>
26.483

> <-TS>
37.820

> <U+W>
2.338

> <U>
54.599

> <W>
-52.261

> <W(PB)>
-54.704

> <W(SA)>
2.443

> <Valence>
7.415

> <Coulomb>
46.324

> <VdW>
0.860

> <VdW6>
-9.988

> <VdW12>
10.848

> <Bond>
0.296

> <Angle>
1.388

> <Pdih>
5.731

> <Idih>
0.000

> <Tether>
0.000

$$$$
VeraChem MOL file


 29 28  0  0  0  0  0  0  0  0999 V2000     
   19.8810   17.3795   20.6902 C   0  0  0  0  0  0  0  0  0  0  0  0
   20.9618   17.2063   20.7748 H   0  0  0  0  0  0  0  0  0  0  0  0
   19.3775   16.4062   20.7546 H   0  0  0  0  0  0  0  0  0  0  0  0
   19.6785   17.7981   19.6957 H   0  0  0  0  0  0  0  0  0  0  0  0
   19.3824   18.3255   21.8029 C   0  0  0  0  0  0  0  0  0  0  0  0
   19.5684   17.8539   22.7765 H   0  0  0  0  0  0  0  0  0  0  0  0
   18.2958   18.4586   21.7084 H   0  0  0  0  0  0  0  0  0  0  0  0
   20.0856   19.7005   21.7394 C   0  0  0  0  0  0  0  0  0  0  0  0
   21.1621   19.5682   21.9152 H   0  0  0  0  0  0  0  0  0  0  0  0
   19.9904   20.1026   20.7213 H   0  0  0  0  0  0  0  0  0  0  0  0
   19.5272   20.7538   22.7312 C   0  0  0  0  0  0  0  0  0  0  0  0
   18.4776   20.9761   22.4945 H   0  0  0  0  0  0  0  0  0  0  0  0
   20.0737   21.6914   22.5591 H   0  0  0  0  0  0  0  0  0  0  0  0
   19.6756   20.3762   24.2279 C   0  0  0  0  0  0  0  0  0  0  0  0
   20.5566   19.7389   24.3567 H   0  0  0  0  0  0  0  0  0  0  0  0
   19.8815   21.2932   24.7971 H   0  0  0  0  0  0  0  0  0  0  0  0
   18.4024   19.7193   24.8224 C   0  0  0  0  0  0  0  0  0  0  0  0
   18.1105   18.8290   24.2529 H   0  0  0  0  0  0  0  0  0  0  0  0
   17.5719   20.4301   24.7108 H   0  0  0  0  0  0  0  0  0  0  0  0
   18.5240   19.3557   26.3244 C   0  0  0  0  0  0  0  0  0  0  0  0
   19.0436   20.1512   26.8748 H   0  0  0  0  0  0  0  0  0  0  0  0
   17.5107   19.3110   26.7454 H   0  0  0  0  0  0  0  0  0  0  0  0
   19.1907   17.9905   26.5964 C   0  0  0  0  0  0  0  0  0  0  0  0
   18.6980   17.2163   26.0021 H   0  0  0  0  0  0  0  0  0  0  0  0
   19.0631   17.7374   27.6523 H   0  0  0  0  0  0  0  0  0  0  0  0
   20.6750   17.9369   26.3003 N   0  3  0  0  0  0  0  0  0  0  0  0
   20.8668   18.1087   25.3091 H   0  0  0  0  0  0  0  0  0  0  0  0
   21.0752   17.0208   26.5310 H   0  0  0  0  0  0  0  0  0  0  0  0
   21.1950   18.6365   26.8400 H   0  0  0  0  0  0  0  0  0  0  0  0
  1  2  1  0  0  0  0
  1  3  1  0  0  0  0
  1  4  1  0  0  0  0
  1  5  1  0  0  0  0
  5  6  1  0  0  0  0
  5  7  1  0  0  0  0
  5  8  1  0  0  0  0
  8  9  1  0  0  0  0
  8 10  1  0  0  0  0
  8 11  1  0  0  0  0
 11 12  1  0  0  0  0
 11 13  1  0  0  0  0
 11 14  1  0  0  0  0
 14 15  1  0  0  0  0
 14 16  1  0  0  0  0
 14 17  1  0  0  0  0
 17 18  1  0  0  0  0
 17 19  1  0  0  0  0
 17 20  1  0  0  0  0
 20 21  1  0  0  0  0
 20 22  1  0  0  0  0
 20 23  1  0  0  0  0
 23 24  1  0  0  0  0
 23 25  1  0  0  0  0
 23 26  1  0  0  0  0
 26 27  1  0  0  0  0
 26 28  1  0  0  0  0
 26 29  1  0  0  0  0
M  END
> <VM2 Rank>
415

> <Conf_Id>
138

> <Probability>
0.00

> <Sum Probability>
100.00

> <Delta G>
6.162

> <G>
64.310

> <E>
27.092

> <-TS>
37.218

> <U+W>
2.947

> <U>
55.354

> <W>
-52.407

> <W(PB)>
-54.803

> <W(SA)>
2.396

> <Valence>
7.420

> <Coulomb>
47.280

> <VdW>
0.654

> <VdW6>
-10.189

> <VdW12>
10.843

> <Bond>
0.301

> <Angle>
1.787

> <Pdih>
5.332

> <Idih>
0.000

> <Tether>
0.000

$$$$
VeraChem MOL file


 29 28  0  0  0  0  0  0  0  0999 V2000     
   20.8976   20.2365   20.7526 C   0  0  0  0  0  0  0  0  0  0  0  0
   21.8436   19.6848   20.8285 H   0  0  0  0  0  0  0  0  0  0  0  0
   20.4898   20.0794   19.7455 H   0  0  0  0  0  0  0  0  0  0  0  0
   21.1209   21.3057   20.8623 H   0  0  0  0  0  0  0  0  0  0  0  0
   19.8984   19.7750   21.8345 C   0  0  0  0  0  0  0  0  0  0  0  0
   18.9732   20.3619   21.7503 H   0  0  0  0  0  0  0  0  0  0  0  0
   20.3271   19.9845   22.8230 H   0  0  0  0  0  0  0  0  0  0  0  0
   19.5761   18.2686   21.7073 C   0  0  0  0  0  0  0  0  0  0  0  0
   19.2626   18.0574   20.6756 H   0  0  0  0  0  0  0  0  0  0  0  0
   20.4918   17.6845   21.8729 H   0  0  0  0  0  0  0  0  0  0  0  0
   18.4644   17.7667   22.6648 C   0  0  0  0  0  0  0  0  0  0  0  0
   18.2986   16.7022   22.4485 H   0  0  0  0  0  0  0  0  0  0  0  0
   17.5135   18.2665   22.4342 H   0  0  0  0  0  0  0  0  0  0  0  0
   18.7969   17.9069   24.1729 C   0  0  0  0  0  0  0  0  0  0  0  0
   18.3696   17.0445   24.7029 H   0  0  0  0  0  0  0  0  0  0  0  0
   19.8806   17.8392   24.3143 H   0  0  0  0  0  0  0  0  0  0  0  0
   18.2163   19.1964   24.8102 C   0  0  0  0  0  0  0  0  0  0  0  0
   17.1252   19.1751   24.6819 H   0  0  0  0  0  0  0  0  0  0  0  0
   18.5607   20.0924   24.2804 H   0  0  0  0  0  0  0  0  0  0  0  0
   18.5183   19.3422   26.3236 C   0  0  0  0  0  0  0  0  0  0  0  0
   17.7557   20.0012   26.7595 H   0  0  0  0  0  0  0  0  0  0  0  0
   18.4095   18.3767   26.8353 H   0  0  0  0  0  0  0  0  0  0  0  0
   19.8941   19.9660   26.6405 C   0  0  0  0  0  0  0  0  0  0  0  0
   19.9394   20.2022   27.7071 H   0  0  0  0  0  0  0  0  0  0  0  0
   20.0114   20.8992   26.0833 H   0  0  0  0  0  0  0  0  0  0  0  0
   21.0819   19.0796   26.3285 N   0  3  0  0  0  0  0  0  0  0  0  0
   21.0336   18.1888   26.8338 H   0  0  0  0  0  0  0  0  0  0  0  0
   21.9678   19.5262   26.5901 H   0  0  0  0  0  0  0  0  0  0  0  0
   21.1369   18.8634   25.3290 H   0  0  0  0  0  0  0  0  0  0  0  0
  1  2  1  0  0  0  0
  1  3  1  0  0  0  0
  1  4  1  0  0  0  0
  1  5  1  0  0  0  0
  5  6  1  0  0  0  0
  5  7  1  0  0  0  0
  5  8  1  0  0  0  0
  8  9  1  0  0  0  0
  8 10  1  0  0  0  0
  8 11  1  0  0  0  0
 11 12  1  0  0  0  0
 11 13  1  0  0  0  0
 11 14  1  0  0  0  0
 14 15  1  0  0  0  0
 14 16  1  0  0  0  0
 14 17  1  0  0  0  0
 17 18  1  0  0  0  0
 17 19  1  0  0  0  0
 17 20  1  0  0  0  0
 20 21  1  0  0  0  0
 20 22  1  0  0  0  0
 20 23  1  0  0  0  0
 23 24  1  0  0  0  0
 23 25  1  0  0  0  0
 23 26  1  0  0  0  0
 26 27  1  0  0  0  0
 26 28  1  0  0  0  0
 26 29  1  0  0  0  0
M  END
> <VM2 Rank>
416

> <Conf_Id>
871

> <Probability>
0.00

> <Sum Probability>
100.00

> <Delta G>
6.182

> <G>
64.330

> <E>
27.127

> <-TS>
37.203

> <U+W>
2.983

> <U>
55.351

> <W>
-52.369

> <W(PB)>
-54.772

> <W(SA)>
2.403

> <Valence>
7.418

> <Coulomb>
47.279

> <VdW>
0.655

> <VdW6>
-10.188

> <VdW12>
10.843

> <Bond>
0.301

> <Angle>
1.788

> <Pdih>
5.329

> <Idih>
0.000

> <Tether>
0.000

$$$$
VeraChem MOL file


 29 28  0  0  0  0  0  0  0  0999 V2000     
   21.0718   19.8330   20.6049 C   0  0  0  0  0  0  0  0  0  0  0  0
   20.9832   18.9744   19.9265 H   0  0  0  0  0  0  0  0  0  0  0  0
   21.2560   20.7269   19.9949 H   0  0  0  0  0  0  0  0  0  0  0  0
   21.9499   19.6745   21.2444 H   0  0  0  0  0  0  0  0  0  0  0  0
   19.7930   20.0052   21.4513 C   0  0  0  0  0  0  0  0  0  0  0  0
   18.9383   20.1964   20.7873 H   0  0  0  0  0  0  0  0  0  0  0  0
   19.8988   20.8898   22.0948 H   0  0  0  0  0  0  0  0  0  0  0  0
   19.5103   18.7595   22.3192 C   0  0  0  0  0  0  0  0  0  0  0  0
   19.4029   17.8795   21.6702 H   0  0  0  0  0  0  0  0  0  0  0  0
   20.3740   18.5618   22.9649 H   0  0  0  0  0  0  0  0  0  0  0  0
   18.2252   18.9283   23.1661 C   0  0  0  0  0  0  0  0  0  0  0  0
   17.3728   19.0065   22.4771 H   0  0  0  0  0  0  0  0  0  0  0  0
   18.2442   19.8732   23.7249 H   0  0  0  0  0  0  0  0  0  0  0  0
   17.9724   17.7418   24.1304 C   0  0  0  0  0  0  0  0  0  0  0  0
   16.8911   17.5469   24.1492 H   0  0  0  0  0  0  0  0  0  0  0  0
   18.4270   16.8244   23.7318 H   0  0  0  0  0  0  0  0  0  0  0  0
   18.4264   17.9649   25.5983 C   0  0  0  0  0  0  0  0  0  0  0  0
   18.1091   17.0845   26.1741 H   0  0  0  0  0  0  0  0  0  0  0  0
   17.8772   18.8094   26.0342 H   0  0  0  0  0  0  0  0  0  0  0  0
   19.9533   18.1411   25.8113 C   0  0  0  0  0  0  0  0  0  0  0  0
   20.2037   17.8486   26.8397 H   0  0  0  0  0  0  0  0  0  0  0  0
   20.4991   17.4448   25.1614 H   0  0  0  0  0  0  0  0  0  0  0  0
   20.4719   19.5767   25.5839 C   0  0  0  0  0  0  0  0  0  0  0  0
   20.2183   19.9152   24.5776 H   0  0  0  0  0  0  0  0  0  0  0  0
   21.5610   19.5854   25.6796 H   0  0  0  0  0  0  0  0  0  0  0  0
   19.9197   20.5875   26.5695 N   0  3  0  0  0  0  0  0  0  0  0  0
   18.8990   20.6553   26.5113 H   0  0  0  0  0  0  0  0  0  0  0  0
   20.2948   21.5275   26.4017 H   0  0  0  0  0  0  0  0  0  0  0  0
   20.1523   20.3404   27.5369 H   0  0  0  0  0  0  0  0  0  0  0  0
  1  2  1  0  0  0  0
  1  3  1  0  0  0  0
  1  4  1  0  0  0  0
  1  5  1  0  0  0  0
  5  6  1  0  0  0  0
  5  7  1  0  0  0  0
  5  8  1  0  0  0  0
  8  9  1  0  0  0  0
  8 10  1  0  0  0  0
  8 11  1  0  0  0  0
 11 12  1  0  0  0  0
 11 13  1  0  0  0  0
 11 14  1  0  0  0  0
 14 15  1  0  0  0  0
 14 16  1  0  0  0  0
 14 17  1  0  0  0  0
 17 18  1  0  0  0  0
 17 19  1  0  0  0  0
 17 20  1  0  0  0  0
 20 21  1  0  0  0  0
 20 22  1  0  0  0  0
 20 23  1  0  0  0  0
 23 24  1  0  0  0  0
 23 25  1  0  0  0  0
 23 26  1  0  0  0  0
 26 27  1  0  0  0  0
 26 28  1  0  0  0  0
 26 29  1  0  0  0  0
M  END
> <VM2 Rank>
417

> <Conf_Id>
2279

> <Probability>
0.00

> <Sum Probability>
100.00

> <Delta G>
6.185

> <G>
64.333

> <E>
26.117

> <-TS>
38.216

> <U+W>
1.973

> <U>
54.652

> <W>
-52.679

> <W(PB)>
-55.069

> <W(SA)>
2.390

> <Valence>
7.653

> <Coulomb>
46.632

> <VdW>
0.367

> <VdW6>
-10.915

> <VdW12>
11.282

> <Bond>
0.293

> <Angle>
1.887

> <Pdih>
5.473

> <Idih>
0.000

> <Tether>
0.000

$$$$
VeraChem MOL file


 29 28  0  0  0  0  0  0  0  0999 V2000     
   18.8740   18.4340   20.4277 C   0  0  0  0  0  0  0  0  0  0  0  0
   18.3321   17.9566   21.2536 H   0  0  0  0  0  0  0  0  0  0  0  0
   18.2445   18.3542   19.5321 H   0  0  0  0  0  0  0  0  0  0  0  0
   19.7963   17.8688   20.2414 H   0  0  0  0  0  0  0  0  0  0  0  0
   19.1822   19.9145   20.7406 C   0  0  0  0  0  0  0  0  0  0  0  0
   18.2445   20.4421   20.9643 H   0  0  0  0  0  0  0  0  0  0  0  0
   19.5899   20.3884   19.8368 H   0  0  0  0  0  0  0  0  0  0  0  0
   20.1856   20.1254   21.9031 C   0  0  0  0  0  0  0  0  0  0  0  0
   21.1595   19.6856   21.6473 H   0  0  0  0  0  0  0  0  0  0  0  0
   20.3633   21.2059   21.9943 H   0  0  0  0  0  0  0  0  0  0  0  0
   19.7003   19.5970   23.2780 C   0  0  0  0  0  0  0  0  0  0  0  0
   18.6030   19.6204   23.3231 H   0  0  0  0  0  0  0  0  0  0  0  0
   20.0604   20.2883   24.0507 H   0  0  0  0  0  0  0  0  0  0  0  0
   20.2283   18.1790   23.6100 C   0  0  0  0  0  0  0  0  0  0  0  0
   20.0655   17.5128   22.7544 H   0  0  0  0  0  0  0  0  0  0  0  0
   21.3171   18.2230   23.7501 H   0  0  0  0  0  0  0  0  0  0  0  0
   19.5762   17.5261   24.8561 C   0  0  0  0  0  0  0  0  0  0  0  0
   19.9924   16.5140   24.9554 H   0  0  0  0  0  0  0  0  0  0  0  0
   18.4986   17.3895   24.6900 H   0  0  0  0  0  0  0  0  0  0  0  0
   19.8166   18.2778   26.1895 C   0  0  0  0  0  0  0  0  0  0  0  0
   19.7601   17.5537   27.0132 H   0  0  0  0  0  0  0  0  0  0  0  0
   20.8330   18.6930   26.2107 H   0  0  0  0  0  0  0  0  0  0  0  0
   18.7795   19.3861   26.4556 C   0  0  0  0  0  0  0  0  0  0  0  0
   17.7762   18.9519   26.4727 H   0  0  0  0  0  0  0  0  0  0  0  0
   18.8134   20.1355   25.6628 H   0  0  0  0  0  0  0  0  0  0  0  0
   19.0012   20.0981   27.7742 N   0  3  0  0  0  0  0  0  0  0  0  0
   18.9491   19.4530   28.5696 H   0  0  0  0  0  0  0  0  0  0  0  0
   18.2992   20.8287   27.9357 H   0  0  0  0  0  0  0  0  0  0  0  0
   19.9198   20.5519   27.8134 H   0  0  0  0  0  0  0  0  0  0  0  0
  1  2  1  0  0  0  0
  1  3  1  0  0  0  0
  1  4  1  0  0  0  0
  1  5  1  0  0  0  0
  5  6  1  0  0  0  0
  5  7  1  0  0  0  0
  5  8  1  0  0  0  0
  8  9  1  0  0  0  0
  8 10  1  0  0  0  0
  8 11  1  0  0  0  0
 11 12  1  0  0  0  0
 11 13  1  0  0  0  0
 11 14  1  0  0  0  0
 14 15  1  0  0  0  0
 14 16  1  0  0  0  0
 14 17  1  0  0  0  0
 17 18  1  0  0  0  0
 17 19  1  0  0  0  0
 17 20  1  0  0  0  0
 20 21  1  0  0  0  0
 20 22  1  0  0  0  0
 20 23  1  0  0  0  0
 23 24  1  0  0  0  0
 23 25  1  0  0  0  0
 23 26  1  0  0  0  0
 26 27  1  0  0  0  0
 26 28  1  0  0  0  0
 26 29  1  0  0  0  0
M  END
> <VM2 Rank>
418

> <Conf_Id>
611

> <Probability>
0.00

> <Sum Probability>
100.00

> <Delta G>
6.206

> <G>
64.354

> <E>
26.407

> <-TS>
37.947

> <U+W>
2.263

> <U>
54.545

> <W>
-52.282

> <W(PB)>
-54.732

> <W(SA)>
2.450

> <Valence>
7.959

> <Coulomb>
45.783

> <VdW>
0.803

> <VdW6>
-10.230

> <VdW12>
11.033

> <Bond>
0.297

> <Angle>
1.858

> <Pdih>
5.804

> <Idih>
0.000

> <Tether>
0.000

$$$$
VeraChem MOL file


 29 28  0  0  0  0  0  0  0  0999 V2000     
   21.0351   20.0631   21.8185 C   0  0  0  0  0  0  0  0  0  0  0  0
   21.3640   21.1054   21.9189 H   0  0  0  0  0  0  0  0  0  0  0  0
   21.1038   19.5963   22.8067 H   0  0  0  0  0  0  0  0  0  0  0  0
   21.7452   19.5523   21.1554 H   0  0  0  0  0  0  0  0  0  0  0  0
   19.6015   20.0013   21.2415 C   0  0  0  0  0  0  0  0  0  0  0  0
   19.6146   20.4954   20.2599 H   0  0  0  0  0  0  0  0  0  0  0  0
   18.9075   20.5862   21.8599 H   0  0  0  0  0  0  0  0  0  0  0  0
   19.0730   18.5566   21.0552 C   0  0  0  0  0  0  0  0  0  0  0  0
   18.4313   18.5479   20.1633 H   0  0  0  0  0  0  0  0  0  0  0  0
   19.9040   17.8763   20.8235 H   0  0  0  0  0  0  0  0  0  0  0  0
   18.2314   17.9887   22.2303 C   0  0  0  0  0  0  0  0  0  0  0  0
   17.8328   17.0180   21.9045 H   0  0  0  0  0  0  0  0  0  0  0  0
   17.3507   18.6222   22.4040 H   0  0  0  0  0  0  0  0  0  0  0  0
   19.0005   17.7621   23.5566 C   0  0  0  0  0  0  0  0  0  0  0  0
   18.6021   16.8585   24.0384 H   0  0  0  0  0  0  0  0  0  0  0  0
   20.0573   17.5487   23.3479 H   0  0  0  0  0  0  0  0  0  0  0  0
   18.8613   18.9369   24.5554 C   0  0  0  0  0  0  0  0  0  0  0  0
   17.8023   19.0672   24.8179 H   0  0  0  0  0  0  0  0  0  0  0  0
   19.1835   19.8762   24.0910 H   0  0  0  0  0  0  0  0  0  0  0  0
   19.6818   18.6963   25.8413 C   0  0  0  0  0  0  0  0  0  0  0  0
   19.3512   17.7663   26.3228 H   0  0  0  0  0  0  0  0  0  0  0  0
   20.7417   18.5676   25.5846 H   0  0  0  0  0  0  0  0  0  0  0  0
   19.5336   19.8658   26.8301 C   0  0  0  0  0  0  0  0  0  0  0  0
   18.4815   19.9874   27.1016 H   0  0  0  0  0  0  0  0  0  0  0  0
   19.8773   20.7912   26.3600 H   0  0  0  0  0  0  0  0  0  0  0  0
   20.3258   19.6672   28.1060 N   0  3  0  0  0  0  0  0  0  0  0  0
   20.0312   18.8248   28.6110 H   0  0  0  0  0  0  0  0  0  0  0  0
   20.2132   20.4571   28.7511 H   0  0  0  0  0  0  0  0  0  0  0  0
   21.3300   19.5730   27.9213 H   0  0  0  0  0  0  0  0  0  0  0  0
  1  2  1  0  0  0  0
  1  3  1  0  0  0  0
  1  4  1  0  0  0  0
  1  5  1  0  0  0  0
  5  6  1  0  0  0  0
  5  7  1  0  0  0  0
  5  8  1  0  0  0  0
  8  9  1  0  0  0  0
  8 10  1  0  0  0  0
  8 11  1  0  0  0  0
 11 12  1  0  0  0  0
 11 13  1  0  0  0  0
 11 14  1  0  0  0  0
 14 15  1  0  0  0  0
 14 16  1  0  0  0  0
 14 17  1  0  0  0  0
 17 18  1  0  0  0  0
 17 19  1  0  0  0  0
 17 20  1  0  0  0  0
 20 21  1  0  0  0  0
 20 22  1  0  0  0  0
 20 23  1  0  0  0  0
 23 24  1  0  0  0  0
 23 25  1  0  0  0  0
 23 26  1  0  0  0  0
 26 27  1  0  0  0  0
 26 28  1  0  0  0  0
 26 29  1  0  0  0  0
M  END
> <VM2 Rank>
419

> <Conf_Id>
472

> <Probability>
0.00

> <Sum Probability>
100.00

> <Delta G>
6.210

> <G>
64.358

> <E>
26.284

> <-TS>
38.074

> <U+W>
2.139

> <U>
54.030

> <W>
-51.891

> <W(PB)>
-54.325

> <W(SA)>
2.434

> <Valence>
8.166

> <Coulomb>
45.306

> <VdW>
0.558

> <VdW6>
-9.882

> <VdW12>
10.440

> <Bond>
0.281

> <Angle>
1.930

> <Pdih>
5.955

> <Idih>
0.000

> <Tether>
0.000

$$$$
VeraChem MOL file


 29 28  0  0  0  0  0  0  0  0999 V2000     
   20.0815   17.3854   21.7579 C   0  0  0  0  0  0  0  0  0  0  0  0
   20.4161   17.6641   22.7627 H   0  0  0  0  0  0  0  0  0  0  0  0
   19.6765   16.3667   21.8123 H   0  0  0  0  0  0  0  0  0  0  0  0
   20.9638   17.3585   21.1053 H   0  0  0  0  0  0  0  0  0  0  0  0
   19.0175   18.3620   21.2046 C   0  0  0  0  0  0  0  0  0  0  0  0
   18.1016   18.3230   21.8093 H   0  0  0  0  0  0  0  0  0  0  0  0
   18.7291   18.0104   20.2040 H   0  0  0  0  0  0  0  0  0  0  0  0
   19.5234   19.8217   21.0835 C   0  0  0  0  0  0  0  0  0  0  0  0
   20.6004   19.8325   20.8671 H   0  0  0  0  0  0  0  0  0  0  0  0
   19.0441   20.2693   20.2018 H   0  0  0  0  0  0  0  0  0  0  0  0
   19.2134   20.7462   22.2921 C   0  0  0  0  0  0  0  0  0  0  0  0
   18.1282   20.8052   22.4530 H   0  0  0  0  0  0  0  0  0  0  0  0
   19.5224   21.7624   22.0108 H   0  0  0  0  0  0  0  0  0  0  0  0
   19.9340   20.3828   23.6152 C   0  0  0  0  0  0  0  0  0  0  0  0
   20.8908   19.8887   23.4001 H   0  0  0  0  0  0  0  0  0  0  0  0
   20.1893   21.3149   24.1381 H   0  0  0  0  0  0  0  0  0  0  0  0
   19.0699   19.5216   24.5684 C   0  0  0  0  0  0  0  0  0  0  0  0
   18.7329   18.6092   24.0627 H   0  0  0  0  0  0  0  0  0  0  0  0
   18.1629   20.0792   24.8404 H   0  0  0  0  0  0  0  0  0  0  0  0
   19.8395   19.1388   25.8513 C   0  0  0  0  0  0  0  0  0  0  0  0
   20.7460   18.5789   25.5851 H   0  0  0  0  0  0  0  0  0  0  0  0
   20.1640   20.0487   26.3737 H   0  0  0  0  0  0  0  0  0  0  0  0
   18.9718   18.2880   26.7950 C   0  0  0  0  0  0  0  0  0  0  0  0
   18.6605   17.3729   26.2842 H   0  0  0  0  0  0  0  0  0  0  0  0
   18.0755   18.8477   27.0758 H   0  0  0  0  0  0  0  0  0  0  0  0
   19.6930   17.8914   28.0669 N   0  3  0  0  0  0  0  0  0  0  0  0
   19.9894   18.7100   28.6087 H   0  0  0  0  0  0  0  0  0  0  0  0
   20.5335   17.3373   27.8724 H   0  0  0  0  0  0  0  0  0  0  0  0
   19.0975   17.3257   28.6818 H   0  0  0  0  0  0  0  0  0  0  0  0
  1  2  1  0  0  0  0
  1  3  1  0  0  0  0
  1  4  1  0  0  0  0
  1  5  1  0  0  0  0
  5  6  1  0  0  0  0
  5  7  1  0  0  0  0
  5  8  1  0  0  0  0
  8  9  1  0  0  0  0
  8 10  1  0  0  0  0
  8 11  1  0  0  0  0
 11 12  1  0  0  0  0
 11 13  1  0  0  0  0
 11 14  1  0  0  0  0
 14 15  1  0  0  0  0
 14 16  1  0  0  0  0
 14 17  1  0  0  0  0
 17 18  1  0  0  0  0
 17 19  1  0  0  0  0
 17 20  1  0  0  0  0
 20 21  1  0  0  0  0
 20 22  1  0  0  0  0
 20 23  1  0  0  0  0
 23 24  1  0  0  0  0
 23 25  1  0  0  0  0
 23 26  1  0  0  0  0
 26 27  1  0  0  0  0
 26 28  1  0  0  0  0
 26 29  1  0  0  0  0
M  END
> <VM2 Rank>
420

> <Conf_Id>
145

> <Probability>
0.00

> <Sum Probability>
100.00

> <Delta G>
6.224

> <G>
64.372

> <E>
26.298

> <-TS>
38.073

> <U+W>
2.154

> <U>
54.030

> <W>
-51.876

> <W(PB)>
-54.310

> <W(SA)>
2.434

> <Valence>
8.167

> <Coulomb>
45.305

> <VdW>
0.558

> <VdW6>
-9.881

> <VdW12>
10.439

> <Bond>
0.281

> <Angle>
1.930

> <Pdih>
5.955

> <Idih>
0.000

> <Tether>
0.000

$$$$
VeraChem MOL file


 29 28  0  0  0  0  0  0  0  0999 V2000     
   20.5856   17.9999   20.1700 C   0  0  0  0  0  0  0  0  0  0  0  0
   20.6264   18.0586   19.0746 H   0  0  0  0  0  0  0  0  0  0  0  0
   21.6159   18.0290   20.5478 H   0  0  0  0  0  0  0  0  0  0  0  0
   20.1497   17.0290   20.4395 H   0  0  0  0  0  0  0  0  0  0  0  0
   19.7503   19.1623   20.7471 C   0  0  0  0  0  0  0  0  0  0  0  0
   18.7356   19.1264   20.3264 H   0  0  0  0  0  0  0  0  0  0  0  0
   20.1907   20.1187   20.4324 H   0  0  0  0  0  0  0  0  0  0  0  0
   19.6777   19.1030   22.2888 C   0  0  0  0  0  0  0  0  0  0  0  0
   19.2421   18.1409   22.5889 H   0  0  0  0  0  0  0  0  0  0  0  0
   20.6939   19.1425   22.7043 H   0  0  0  0  0  0  0  0  0  0  0  0
   18.8351   20.2626   22.8696 C   0  0  0  0  0  0  0  0  0  0  0  0
   17.8039   20.1886   22.4978 H   0  0  0  0  0  0  0  0  0  0  0  0
   19.2293   21.2154   22.4899 H   0  0  0  0  0  0  0  0  0  0  0  0
   18.8215   20.3227   24.4186 C   0  0  0  0  0  0  0  0  0  0  0  0
   19.8411   20.4877   24.7865 H   0  0  0  0  0  0  0  0  0  0  0  0
   18.2494   21.2139   24.7113 H   0  0  0  0  0  0  0  0  0  0  0  0
   18.1752   19.0858   25.1001 C   0  0  0  0  0  0  0  0  0  0  0  0
   17.4326   18.6489   24.4182 H   0  0  0  0  0  0  0  0  0  0  0  0
   17.6027   19.4122   25.9794 H   0  0  0  0  0  0  0  0  0  0  0  0
   19.1794   17.9861   25.5381 C   0  0  0  0  0  0  0  0  0  0  0  0
   18.6609   17.0184   25.5211 H   0  0  0  0  0  0  0  0  0  0  0  0
   20.0074   17.8985   24.8245 H   0  0  0  0  0  0  0  0  0  0  0  0
   19.7354   18.1865   26.9636 C   0  0  0  0  0  0  0  0  0  0  0  0
   20.3529   17.3257   27.2339 H   0  0  0  0  0  0  0  0  0  0  0  0
   18.9058   18.2439   27.6733 H   0  0  0  0  0  0  0  0  0  0  0  0
   20.5837   19.4291   27.1391 N   0  3  0  0  0  0  0  0  0  0  0  0
   20.0504   20.2782   26.9272 H   0  0  0  0  0  0  0  0  0  0  0  0
   21.4032   19.4196   26.5233 H   0  0  0  0  0  0  0  0  0  0  0  0
   20.9301   19.5208   28.1005 H   0  0  0  0  0  0  0  0  0  0  0  0
  1  2  1  0  0  0  0
  1  3  1  0  0  0  0
  1  4  1  0  0  0  0
  1  5  1  0  0  0  0
  5  6  1  0  0  0  0
  5  7  1  0  0  0  0
  5  8  1  0  0  0  0
  8  9  1  0  0  0  0
  8 10  1  0  0  0  0
  8 11  1  0  0  0  0
 11 12  1  0  0  0  0
 11 13  1  0  0  0  0
 11 14  1  0  0  0  0
 14 15  1  0  0  0  0
 14 16  1  0  0  0  0
 14 17  1  0  0  0  0
 17 18  1  0  0  0  0
 17 19  1  0  0  0  0
 17 20  1  0  0  0  0
 20 21  1  0  0  0  0
 20 22  1  0  0  0  0
 20 23  1  0  0  0  0
 23 24  1  0  0  0  0
 23 25  1  0  0  0  0
 23 26  1  0  0  0  0
 26 27  1  0  0  0  0
 26 28  1  0  0  0  0
 26 29  1  0  0  0  0
M  END
> <VM2 Rank>
421

> <Conf_Id>
1043

> <Probability>
0.00

> <Sum Probability>
100.00

> <Delta G>
6.240

> <G>
64.388

> <E>
26.568

> <-TS>
37.820

> <U+W>
2.424

> <U>
54.599

> <W>
-52.176

> <W(PB)>
-54.634

> <W(SA)>
2.458

> <Valence>
7.415

> <Coulomb>
46.324

> <VdW>
0.860

> <VdW6>
-9.989

> <VdW12>
10.849

> <Bond>
0.296

> <Angle>
1.389

> <Pdih>
5.731

> <Idih>
0.000

> <Tether>
0.000

$$$$
VeraChem MOL file


 29 28  0  0  0  0  0  0  0  0999 V2000     
   19.4544   20.0667   20.4641 C   0  0  0  0  0  0  0  0  0  0  0  0
   20.5291   19.9302   20.2874 H   0  0  0  0  0  0  0  0  0  0  0  0
   19.0291   20.5611   19.5811 H   0  0  0  0  0  0  0  0  0  0  0  0
   19.3235   20.7458   21.3157 H   0  0  0  0  0  0  0  0  0  0  0  0
   18.7552   18.7127   20.7137 C   0  0  0  0  0  0  0  0  0  0  0  0
   18.7853   18.1240   19.7862 H   0  0  0  0  0  0  0  0  0  0  0  0
   17.6917   18.8866   20.9294 H   0  0  0  0  0  0  0  0  0  0  0  0
   19.3841   17.8702   21.8528 C   0  0  0  0  0  0  0  0  0  0  0  0
   18.8390   16.9173   21.8986 H   0  0  0  0  0  0  0  0  0  0  0  0
   20.4206   17.6068   21.6010 H   0  0  0  0  0  0  0  0  0  0  0  0
   19.3215   18.5314   23.2542 C   0  0  0  0  0  0  0  0  0  0  0  0
   19.1539   17.7380   23.9938 H   0  0  0  0  0  0  0  0  0  0  0  0
   18.4547   19.2037   23.3137 H   0  0  0  0  0  0  0  0  0  0  0  0
   20.6210   19.2841   23.6346 C   0  0  0  0  0  0  0  0  0  0  0  0
   21.4359   18.5576   23.7576 H   0  0  0  0  0  0  0  0  0  0  0  0
   20.9269   19.9369   22.8085 H   0  0  0  0  0  0  0  0  0  0  0  0
   20.5093   20.1520   24.9147 C   0  0  0  0  0  0  0  0  0  0  0  0
   19.7617   20.9441   24.7693 H   0  0  0  0  0  0  0  0  0  0  0  0
   21.4692   20.6700   25.0480 H   0  0  0  0  0  0  0  0  0  0  0  0
   20.2030   19.3650   26.2138 C   0  0  0  0  0  0  0  0  0  0  0  0
   20.7295   18.4014   26.2042 H   0  0  0  0  0  0  0  0  0  0  0  0
   20.6043   19.9293   27.0662 H   0  0  0  0  0  0  0  0  0  0  0  0
   18.6955   19.1497   26.4505 C   0  0  0  0  0  0  0  0  0  0  0  0
   18.2604   18.5787   25.6283 H   0  0  0  0  0  0  0  0  0  0  0  0
   18.1906   20.1182   26.4986 H   0  0  0  0  0  0  0  0  0  0  0  0
   18.4000   18.4061   27.7368 N   0  3  0  0  0  0  0  0  0  0  0  0
   17.3923   18.2763   27.8791 H   0  0  0  0  0  0  0  0  0  0  0  0
   18.7553   18.9076   28.5576 H   0  0  0  0  0  0  0  0  0  0  0  0
   18.8261   17.4735   27.7451 H   0  0  0  0  0  0  0  0  0  0  0  0
  1  2  1  0  0  0  0
  1  3  1  0  0  0  0
  1  4  1  0  0  0  0
  1  5  1  0  0  0  0
  5  6  1  0  0  0  0
  5  7  1  0  0  0  0
  5  8  1  0  0  0  0
  8  9  1  0  0  0  0
  8 10  1  0  0  0  0
  8 11  1  0  0  0  0
 11 12  1  0  0  0  0
 11 13  1  0  0  0  0
 11 14  1  0  0  0  0
 14 15  1  0  0  0  0
 14 16  1  0  0  0  0
 14 17  1  0  0  0  0
 17 18  1  0  0  0  0
 17 19  1  0  0  0  0
 17 20  1  0  0  0  0
 20 21  1  0  0  0  0
 20 22  1  0  0  0  0
 20 23  1  0  0  0  0
 23 24  1  0  0  0  0
 23 25  1  0  0  0  0
 23 26  1  0  0  0  0
 26 27  1  0  0  0  0
 26 28  1  0  0  0  0
 26 29  1  0  0  0  0
M  END
> <VM2 Rank>
422

> <Conf_Id>
1334

> <Probability>
0.00

> <Sum Probability>
100.00

> <Delta G>
6.299

> <G>
64.447

> <E>
26.501

> <-TS>
37.947

> <U+W>
2.356

> <U>
54.545

> <W>
-52.189

> <W(PB)>
-54.626

> <W(SA)>
2.437

> <Valence>
7.959

> <Coulomb>
45.783

> <VdW>
0.803

> <VdW6>
-10.230

> <VdW12>
11.033

> <Bond>
0.297

> <Angle>
1.858

> <Pdih>
5.803

> <Idih>
0.000

> <Tether>
0.000

$$$$
VeraChem MOL file


 29 28  0  0  0  0  0  0  0  0999 V2000     
   20.7680   19.3896   20.6570 C   0  0  0  0  0  0  0  0  0  0  0  0
   20.2243   20.3391   20.7379 H   0  0  0  0  0  0  0  0  0  0  0  0
   21.5721   19.3839   21.4041 H   0  0  0  0  0  0  0  0  0  0  0  0
   21.2329   19.3595   19.6632 H   0  0  0  0  0  0  0  0  0  0  0  0
   19.8230   18.1830   20.8483 C   0  0  0  0  0  0  0  0  0  0  0  0
   20.3814   17.2606   20.6363 H   0  0  0  0  0  0  0  0  0  0  0  0
   19.0166   18.2288   20.1031 H   0  0  0  0  0  0  0  0  0  0  0  0
   19.2128   18.0763   22.2689 C   0  0  0  0  0  0  0  0  0  0  0  0
   18.6187   17.1530   22.3079 H   0  0  0  0  0  0  0  0  0  0  0  0
   20.0155   17.9465   23.0054 H   0  0  0  0  0  0  0  0  0  0  0  0
   18.2908   19.2632   22.6596 C   0  0  0  0  0  0  0  0  0  0  0  0
   17.4525   18.8900   23.2637 H   0  0  0  0  0  0  0  0  0  0  0  0
   17.8310   19.6719   21.7493 H   0  0  0  0  0  0  0  0  0  0  0  0
   19.0024   20.4062   23.4332 C   0  0  0  0  0  0  0  0  0  0  0  0
   20.0560   20.4805   23.1358 H   0  0  0  0  0  0  0  0  0  0  0  0
   18.5413   21.3586   23.1379 H   0  0  0  0  0  0  0  0  0  0  0  0
   18.9021   20.2934   24.9762 C   0  0  0  0  0  0  0  0  0  0  0  0
   17.8450   20.3074   25.2757 H   0  0  0  0  0  0  0  0  0  0  0  0
   19.3573   21.1899   25.4197 H   0  0  0  0  0  0  0  0  0  0  0  0
   19.5879   19.0399   25.5657 C   0  0  0  0  0  0  0  0  0  0  0  0
   19.0876   18.1337   25.2015 H   0  0  0  0  0  0  0  0  0  0  0  0
   20.6322   18.9968   25.2289 H   0  0  0  0  0  0  0  0  0  0  0  0
   19.5473   19.0501   27.1037 C   0  0  0  0  0  0  0  0  0  0  0  0
   18.5087   19.0784   27.4443 H   0  0  0  0  0  0  0  0  0  0  0  0
   20.0574   19.9411   27.4797 H   0  0  0  0  0  0  0  0  0  0  0  0
   20.2095   17.8362   27.7225 N   0  3  0  0  0  0  0  0  0  0  0  0
   19.7576   16.9636   27.4296 H   0  0  0  0  0  0  0  0  0  0  0  0
   20.1716   17.8630   28.7475 H   0  0  0  0  0  0  0  0  0  0  0  0
   21.1989   17.7666   27.4620 H   0  0  0  0  0  0  0  0  0  0  0  0
  1  2  1  0  0  0  0
  1  3  1  0  0  0  0
  1  4  1  0  0  0  0
  1  5  1  0  0  0  0
  5  6  1  0  0  0  0
  5  7  1  0  0  0  0
  5  8  1  0  0  0  0
  8  9  1  0  0  0  0
  8 10  1  0  0  0  0
  8 11  1  0  0  0  0
 11 12  1  0  0  0  0
 11 13  1  0  0  0  0
 11 14  1  0  0  0  0
 14 15  1  0  0  0  0
 14 16  1  0  0  0  0
 14 17  1  0  0  0  0
 17 18  1  0  0  0  0
 17 19  1  0  0  0  0
 17 20  1  0  0  0  0
 20 21  1  0  0  0  0
 20 22  1  0  0  0  0
 20 23  1  0  0  0  0
 23 24  1  0  0  0  0
 23 25  1  0  0  0  0
 23 26  1  0  0  0  0
 26 27  1  0  0  0  0
 26 28  1  0  0  0  0
 26 29  1  0  0  0  0
M  END
> <VM2 Rank>
423

> <Conf_Id>
111

> <Probability>
0.00

> <Sum Probability>
100.00

> <Delta G>
6.343

> <G>
64.491

> <E>
26.451

> <-TS>
38.040

> <U+W>
2.307

> <U>
54.449

> <W>
-52.142

> <W(PB)>
-54.574

> <W(SA)>
2.432

> <Valence>
8.133

> <Coulomb>
45.482

> <VdW>
0.833

> <VdW6>
-10.226

> <VdW12>
11.060

> <Bond>
0.317

> <Angle>
1.634

> <Pdih>
6.182

> <Idih>
0.000

> <Tether>
0.000

$$$$
VeraChem MOL file


 29 28  0  0  0  0  0  0  0  0999 V2000     
   19.0014   19.8201   20.2277 C   0  0  0  0  0  0  0  0  0  0  0  0
   18.0113   19.4711   20.5457 H   0  0  0  0  0  0  0  0  0  0  0  0
   18.8483   20.6544   19.5311 H   0  0  0  0  0  0  0  0  0  0  0  0
   19.4925   19.0080   19.6760 H   0  0  0  0  0  0  0  0  0  0  0  0
   19.8588   20.2719   21.4316 C   0  0  0  0  0  0  0  0  0  0  0  0
   19.3300   21.0594   21.9863 H   0  0  0  0  0  0  0  0  0  0  0  0
   20.7833   20.7302   21.0534 H   0  0  0  0  0  0  0  0  0  0  0  0
   20.2350   19.1163   22.3903 C   0  0  0  0  0  0  0  0  0  0  0  0
   20.7728   18.3382   21.8314 H   0  0  0  0  0  0  0  0  0  0  0  0
   20.9446   19.5080   23.1283 H   0  0  0  0  0  0  0  0  0  0  0  0
   19.0116   18.4891   23.1072 C   0  0  0  0  0  0  0  0  0  0  0  0
   18.3403   18.0616   22.3513 H   0  0  0  0  0  0  0  0  0  0  0  0
   18.4306   19.2701   23.6075 H   0  0  0  0  0  0  0  0  0  0  0  0
   19.3810   17.3517   24.0966 C   0  0  0  0  0  0  0  0  0  0  0  0
   18.4621   16.8494   24.4289 H   0  0  0  0  0  0  0  0  0  0  0  0
   19.9443   16.5910   23.5385 H   0  0  0  0  0  0  0  0  0  0  0  0
   20.2153   17.7594   25.3428 C   0  0  0  0  0  0  0  0  0  0  0  0
   21.0207   18.4523   25.0744 H   0  0  0  0  0  0  0  0  0  0  0  0
   20.7287   16.8567   25.7019 H   0  0  0  0  0  0  0  0  0  0  0  0
   19.3940   18.3156   26.5372 C   0  0  0  0  0  0  0  0  0  0  0  0
   18.6546   17.5661   26.8490 H   0  0  0  0  0  0  0  0  0  0  0  0
   20.0672   18.4486   27.3944 H   0  0  0  0  0  0  0  0  0  0  0  0
   18.6654   19.6485   26.2799 C   0  0  0  0  0  0  0  0  0  0  0  0
   18.1769   19.9761   27.2016 H   0  0  0  0  0  0  0  0  0  0  0  0
   17.8904   19.5070   25.5237 H   0  0  0  0  0  0  0  0  0  0  0  0
   19.5815   20.7655   25.8216 N   0  3  0  0  0  0  0  0  0  0  0  0
   20.3167   20.9585   26.5098 H   0  0  0  0  0  0  0  0  0  0  0  0
   19.0691   21.6421   25.6743 H   0  0  0  0  0  0  0  0  0  0  0  0
   20.0423   20.5276   24.9378 H   0  0  0  0  0  0  0  0  0  0  0  0
  1  2  1  0  0  0  0
  1  3  1  0  0  0  0
  1  4  1  0  0  0  0
  1  5  1  0  0  0  0
  5  6  1  0  0  0  0
  5  7  1  0  0  0  0
  5  8  1  0  0  0  0
  8  9  1  0  0  0  0
  8 10  1  0  0  0  0
  8 11  1  0  0  0  0
 11 12  1  0  0  0  0
 11 13  1  0  0  0  0
 11 14  1  0  0  0  0
 14 15  1  0  0  0  0
 14 16  1  0  0  0  0
 14 17  1  0  0  0  0
 17 18  1  0  0  0  0
 17 19  1  0  0  0  0
 17 20  1  0  0  0  0
 20 21  1  0  0  0  0
 20 22  1  0  0  0  0
 20 23  1  0  0  0  0
 23 24  1  0  0  0  0
 23 25  1  0  0  0  0
 23 26  1  0  0  0  0
 26 27  1  0  0  0  0
 26 28  1  0  0  0  0
 26 29  1  0  0  0  0
M  END
> <VM2 Rank>
424

> <Conf_Id>
310

> <Probability>
0.00

> <Sum Probability>
100.00

> <Delta G>
6.344

> <G>
64.492

> <E>
26.357

> <-TS>
38.135

> <U+W>
2.213

> <U>
54.378

> <W>
-52.166

> <W(PB)>
-54.530

> <W(SA)>
2.365

> <Valence>
6.562

> <Coulomb>
47.216

> <VdW>
0.600

> <VdW6>
-11.229

> <VdW12>
11.830

> <Bond>
0.369

> <Angle>
2.511

> <Pdih>
3.682

> <Idih>
0.000

> <Tether>
0.000

$$$$
VeraChem MOL file


 29 28  0  0  0  0  0  0  0  0999 V2000     
   20.7592   19.0683   20.4462 C   0  0  0  0  0  0  0  0  0  0  0  0
   21.2965   18.1121   20.4007 H   0  0  0  0  0  0  0  0  0  0  0  0
   20.9473   19.6007   19.5049 H   0  0  0  0  0  0  0  0  0  0  0  0
   21.1962   19.6626   21.2559 H   0  0  0  0  0  0  0  0  0  0  0  0
   19.2425   18.8398   20.6438 C   0  0  0  0  0  0  0  0  0  0  0  0
   18.8719   18.2686   19.7810 H   0  0  0  0  0  0  0  0  0  0  0  0
   18.7058   19.7985   20.6242 H   0  0  0  0  0  0  0  0  0  0  0  0
   18.8996   18.0563   21.9371 C   0  0  0  0  0  0  0  0  0  0  0  0
   18.0293   17.4188   21.7283 H   0  0  0  0  0  0  0  0  0  0  0  0
   19.7163   17.3670   22.1919 H   0  0  0  0  0  0  0  0  0  0  0  0
   18.5458   18.9394   23.1615 C   0  0  0  0  0  0  0  0  0  0  0  0
   18.2336   18.2765   23.9765 H   0  0  0  0  0  0  0  0  0  0  0  0
   17.6672   19.5544   22.9228 H   0  0  0  0  0  0  0  0  0  0  0  0
   19.6977   19.8593   23.6373 C   0  0  0  0  0  0  0  0  0  0  0  0
   20.6321   19.2888   23.7286 H   0  0  0  0  0  0  0  0  0  0  0  0
   19.8711   20.6185   22.8636 H   0  0  0  0  0  0  0  0  0  0  0  0
   19.3931   20.5971   24.9669 C   0  0  0  0  0  0  0  0  0  0  0  0
   18.3175   20.8064   25.0486 H   0  0  0  0  0  0  0  0  0  0  0  0
   19.8860   21.5787   24.9354 H   0  0  0  0  0  0  0  0  0  0  0  0
   19.8939   19.8634   26.2364 C   0  0  0  0  0  0  0  0  0  0  0  0
   20.9836   19.7392   26.1809 H   0  0  0  0  0  0  0  0  0  0  0  0
   19.6977   20.4991   27.1101 H   0  0  0  0  0  0  0  0  0  0  0  0
   19.2350   18.4910   26.4600 C   0  0  0  0  0  0  0  0  0  0  0  0
   19.4881   17.8232   25.6326 H   0  0  0  0  0  0  0  0  0  0  0  0
   18.1483   18.6052   26.4947 H   0  0  0  0  0  0  0  0  0  0  0  0
   19.6773   17.8234   27.7459 N   0  3  0  0  0  0  0  0  0  0  0  0
   19.4450   18.3890   28.5691 H   0  0  0  0  0  0  0  0  0  0  0  0
   20.6901   17.6645   27.7647 H   0  0  0  0  0  0  0  0  0  0  0  0
   19.2286   16.9098   27.8749 H   0  0  0  0  0  0  0  0  0  0  0  0
  1  2  1  0  0  0  0
  1  3  1  0  0  0  0
  1  4  1  0  0  0  0
  1  5  1  0  0  0  0
  5  6  1  0  0  0  0
  5  7  1  0  0  0  0
  5  8  1  0  0  0  0
  8  9  1  0  0  0  0
  8 10  1  0  0  0  0
  8 11  1  0  0  0  0
 11 12  1  0  0  0  0
 11 13  1  0  0  0  0
 11 14  1  0  0  0  0
 14 15  1  0  0  0  0
 14 16  1  0  0  0  0
 14 17  1  0  0  0  0
 17 18  1  0  0  0  0
 17 19  1  0  0  0  0
 17 20  1  0  0  0  0
 20 21  1  0  0  0  0
 20 22  1  0  0  0  0
 20 23  1  0  0  0  0
 23 24  1  0  0  0  0
 23 25  1  0  0  0  0
 23 26  1  0  0  0  0
 26 27  1  0  0  0  0
 26 28  1  0  0  0  0
 26 29  1  0  0  0  0
M  END
> <VM2 Rank>
425

> <Conf_Id>
271

> <Probability>
0.00

> <Sum Probability>
100.00

> <Delta G>
6.357

> <G>
64.505

> <E>
26.734

> <-TS>
37.771

> <U+W>
2.589

> <U>
54.695

> <W>
-52.106

> <W(PB)>
-54.546

> <W(SA)>
2.440

> <Valence>
8.195

> <Coulomb>
45.591

> <VdW>
0.910

> <VdW6>
-10.005

> <VdW12>
10.915

> <Bond>
0.309

> <Angle>
1.846

> <Pdih>
6.039

> <Idih>
0.000

> <Tether>
0.000

$$$$
VeraChem MOL file


 29 28  0  0  0  0  0  0  0  0999 V2000     
   20.3161   18.1213   20.6286 C   0  0  0  0  0  0  0  0  0  0  0  0
   20.9323   17.5879   21.3639 H   0  0  0  0  0  0  0  0  0  0  0  0
   19.2936   17.7268   20.6796 H   0  0  0  0  0  0  0  0  0  0  0  0
   20.7094   17.8902   19.6302 H   0  0  0  0  0  0  0  0  0  0  0  0
   20.3438   19.6447   20.8809 C   0  0  0  0  0  0  0  0  0  0  0  0
   19.7005   20.1485   20.1460 H   0  0  0  0  0  0  0  0  0  0  0  0
   21.3625   20.0142   20.6978 H   0  0  0  0  0  0  0  0  0  0  0  0
   19.9184   20.0566   22.3131 C   0  0  0  0  0  0  0  0  0  0  0  0
   20.6120   19.6206   23.0428 H   0  0  0  0  0  0  0  0  0  0  0  0
   20.0411   21.1452   22.3972 H   0  0  0  0  0  0  0  0  0  0  0  0
   18.4483   19.7053   22.6694 C   0  0  0  0  0  0  0  0  0  0  0  0
   17.8466   19.7157   21.7502 H   0  0  0  0  0  0  0  0  0  0  0  0
   18.0261   20.5001   23.2996 H   0  0  0  0  0  0  0  0  0  0  0  0
   18.2664   18.3404   23.3870 C   0  0  0  0  0  0  0  0  0  0  0  0
   17.3112   17.9064   23.0608 H   0  0  0  0  0  0  0  0  0  0  0  0
   19.0399   17.6287   23.0722 H   0  0  0  0  0  0  0  0  0  0  0  0
   18.2382   18.4299   24.9346 C   0  0  0  0  0  0  0  0  0  0  0  0
   18.0179   17.4309   25.3358 H   0  0  0  0  0  0  0  0  0  0  0  0
   17.4060   19.0754   25.2481 H   0  0  0  0  0  0  0  0  0  0  0  0
   19.5535   18.9432   25.5635 C   0  0  0  0  0  0  0  0  0  0  0  0
   20.3945   18.3300   25.2139 H   0  0  0  0  0  0  0  0  0  0  0  0
   19.7436   19.9753   25.2426 H   0  0  0  0  0  0  0  0  0  0  0  0
   19.4938   18.9001   27.1004 C   0  0  0  0  0  0  0  0  0  0  0  0
   19.3207   17.8732   27.4335 H   0  0  0  0  0  0  0  0  0  0  0  0
   18.6665   19.5211   27.4543 H   0  0  0  0  0  0  0  0  0  0  0  0
   20.7655   19.3964   27.7574 N   0  3  0  0  0  0  0  0  0  0  0  0
   20.9709   20.3690   27.5057 H   0  0  0  0  0  0  0  0  0  0  0  0
   21.5797   18.8353   27.4858 H   0  0  0  0  0  0  0  0  0  0  0  0
   20.7046   19.3590   28.7809 H   0  0  0  0  0  0  0  0  0  0  0  0
  1  2  1  0  0  0  0
  1  3  1  0  0  0  0
  1  4  1  0  0  0  0
  1  5  1  0  0  0  0
  5  6  1  0  0  0  0
  5  7  1  0  0  0  0
  5  8  1  0  0  0  0
  8  9  1  0  0  0  0
  8 10  1  0  0  0  0
  8 11  1  0  0  0  0
 11 12  1  0  0  0  0
 11 13  1  0  0  0  0
 11 14  1  0  0  0  0
 14 15  1  0  0  0  0
 14 16  1  0  0  0  0
 14 17  1  0  0  0  0
 17 18  1  0  0  0  0
 17 19  1  0  0  0  0
 17 20  1  0  0  0  0
 20 21  1  0  0  0  0
 20 22  1  0  0  0  0
 20 23  1  0  0  0  0
 23 24  1  0  0  0  0
 23 25  1  0  0  0  0
 23 26  1  0  0  0  0
 26 27  1  0  0  0  0
 26 28  1  0  0  0  0
 26 29  1  0  0  0  0
M  END
> <VM2 Rank>
426

> <Conf_Id>
784

> <Probability>
0.00

> <Sum Probability>
100.00

> <Delta G>
6.361

> <G>
64.510

> <E>
26.470

> <-TS>
38.040

> <U+W>
2.325

> <U>
54.449

> <W>
-52.123

> <W(PB)>
-54.568

> <W(SA)>
2.445

> <Valence>
8.134

> <Coulomb>
45.482

> <VdW>
0.833

> <VdW6>
-10.226

> <VdW12>
11.059

> <Bond>
0.317

> <Angle>
1.634

> <Pdih>
6.182

> <Idih>
0.000

> <Tether>
0.000

$$$$
VeraChem MOL file


 29 28  0  0  0  0  0  0  0  0999 V2000     
   20.5159   18.3842   20.4312 C   0  0  0  0  0  0  0  0  0  0  0  0
   21.5371   18.7868   20.4165 H   0  0  0  0  0  0  0  0  0  0  0  0
   20.4675   17.6159   21.2106 H   0  0  0  0  0  0  0  0  0  0  0  0
   20.3390   17.8905   19.4670 H   0  0  0  0  0  0  0  0  0  0  0  0
   19.4818   19.5114   20.6588 C   0  0  0  0  0  0  0  0  0  0  0  0
   18.4605   19.1089   20.6086 H   0  0  0  0  0  0  0  0  0  0  0  0
   19.5678   20.2218   19.8246 H   0  0  0  0  0  0  0  0  0  0  0  0
   19.6924   20.2834   21.9868 C   0  0  0  0  0  0  0  0  0  0  0  0
   20.7572   20.2912   22.2574 H   0  0  0  0  0  0  0  0  0  0  0  0
   19.4233   21.3349   21.8157 H   0  0  0  0  0  0  0  0  0  0  0  0
   18.8429   19.7747   23.1800 C   0  0  0  0  0  0  0  0  0  0  0  0
   17.7768   19.8629   22.9295 H   0  0  0  0  0  0  0  0  0  0  0  0
   19.0080   20.4528   24.0250 H   0  0  0  0  0  0  0  0  0  0  0  0
   19.1479   18.3160   23.6028 C   0  0  0  0  0  0  0  0  0  0  0  0
   18.8137   17.6492   22.7974 H   0  0  0  0  0  0  0  0  0  0  0  0
   20.2313   18.1638   23.7035 H   0  0  0  0  0  0  0  0  0  0  0  0
   18.4271   17.8846   24.9064 C   0  0  0  0  0  0  0  0  0  0  0  0
   18.1893   16.8146   24.8290 H   0  0  0  0  0  0  0  0  0  0  0  0
   17.4600   18.3989   24.9949 H   0  0  0  0  0  0  0  0  0  0  0  0
   19.2609   18.0859   26.1967 C   0  0  0  0  0  0  0  0  0  0  0  0
   18.6949   17.6832   27.0473 H   0  0  0  0  0  0  0  0  0  0  0  0
   20.1846   17.4958   26.1308 H   0  0  0  0  0  0  0  0  0  0  0  0
   19.6143   19.5557   26.4837 C   0  0  0  0  0  0  0  0  0  0  0  0
   18.6995   20.1526   26.5292 H   0  0  0  0  0  0  0  0  0  0  0  0
   20.2439   19.9455   25.6798 H   0  0  0  0  0  0  0  0  0  0  0  0
   20.3609   19.7422   27.7886 N   0  3  0  0  0  0  0  0  0  0  0  0
   21.2459   19.2245   27.7993 H   0  0  0  0  0  0  0  0  0  0  0  0
   19.8120   19.4184   28.5919 H   0  0  0  0  0  0  0  0  0  0  0  0
   20.5886   20.7277   27.9599 H   0  0  0  0  0  0  0  0  0  0  0  0
  1  2  1  0  0  0  0
  1  3  1  0  0  0  0
  1  4  1  0  0  0  0
  1  5  1  0  0  0  0
  5  6  1  0  0  0  0
  5  7  1  0  0  0  0
  5  8  1  0  0  0  0
  8  9  1  0  0  0  0
  8 10  1  0  0  0  0
  8 11  1  0  0  0  0
 11 12  1  0  0  0  0
 11 13  1  0  0  0  0
 11 14  1  0  0  0  0
 14 15  1  0  0  0  0
 14 16  1  0  0  0  0
 14 17  1  0  0  0  0
 17 18  1  0  0  0  0
 17 19  1  0  0  0  0
 17 20  1  0  0  0  0
 20 21  1  0  0  0  0
 20 22  1  0  0  0  0
 20 23  1  0  0  0  0
 23 24  1  0  0  0  0
 23 25  1  0  0  0  0
 23 26  1  0  0  0  0
 26 27  1  0  0  0  0
 26 28  1  0  0  0  0
 26 29  1  0  0  0  0
M  END
> <VM2 Rank>
427

> <Conf_Id>
2256

> <Probability>
0.00

> <Sum Probability>
100.00

> <Delta G>
6.384

> <G>
64.532

> <E>
26.760

> <-TS>
37.772

> <U+W>
2.616

> <U>
54.695

> <W>
-52.079

> <W(PB)>
-54.531

> <W(SA)>
2.452

> <Valence>
8.195

> <Coulomb>
45.591

> <VdW>
0.910

> <VdW6>
-10.005

> <VdW12>
10.915

> <Bond>
0.309

> <Angle>
1.847

> <Pdih>
6.039

> <Idih>
0.000

> <Tether>
0.000

$$$$
VeraChem MOL file


 29 28  0  0  0  0  0  0  0  0999 V2000     
   21.2722   19.3043   21.8514 C   0  0  0  0  0  0  0  0  0  0  0  0
   22.1983   19.8018   21.5357 H   0  0  0  0  0  0  0  0  0  0  0  0
   21.2351   19.3464   22.9465 H   0  0  0  0  0  0  0  0  0  0  0  0
   21.3341   18.2526   21.5432 H   0  0  0  0  0  0  0  0  0  0  0  0
   20.0454   19.9980   21.2203 C   0  0  0  0  0  0  0  0  0  0  0  0
   20.2048   20.0762   20.1358 H   0  0  0  0  0  0  0  0  0  0  0  0
   19.9786   21.0297   21.5929 H   0  0  0  0  0  0  0  0  0  0  0  0
   18.7003   19.2683   21.4676 C   0  0  0  0  0  0  0  0  0  0  0  0
   17.9199   19.8221   20.9277 H   0  0  0  0  0  0  0  0  0  0  0  0
   18.7230   18.2686   21.0123 H   0  0  0  0  0  0  0  0  0  0  0  0
   18.2816   19.1731   22.9576 C   0  0  0  0  0  0  0  0  0  0  0  0
   17.1871   19.2510   23.0149 H   0  0  0  0  0  0  0  0  0  0  0  0
   18.6699   20.0397   23.5044 H   0  0  0  0  0  0  0  0  0  0  0  0
   18.7006   17.8387   23.6286 C   0  0  0  0  0  0  0  0  0  0  0  0
   18.1896   17.0218   23.1006 H   0  0  0  0  0  0  0  0  0  0  0  0
   19.7727   17.6474   23.5025 H   0  0  0  0  0  0  0  0  0  0  0  0
   18.3263   17.7544   25.1310 C   0  0  0  0  0  0  0  0  0  0  0  0
   18.1180   16.7031   25.3734 H   0  0  0  0  0  0  0  0  0  0  0  0
   17.3892   18.2956   25.3216 H   0  0  0  0  0  0  0  0  0  0  0  0
   19.4345   18.2458   26.0962 C   0  0  0  0  0  0  0  0  0  0  0  0
   19.1059   18.0653   27.1284 H   0  0  0  0  0  0  0  0  0  0  0  0
   20.3412   17.6441   25.9492 H   0  0  0  0  0  0  0  0  0  0  0  0
   19.7799   19.7367   25.9374 C   0  0  0  0  0  0  0  0  0  0  0  0
   18.8759   20.3396   26.0583 H   0  0  0  0  0  0  0  0  0  0  0  0
   20.1859   19.9154   24.9388 H   0  0  0  0  0  0  0  0  0  0  0  0
   20.8032   20.2188   26.9449 N   0  3  0  0  0  0  0  0  0  0  0  0
   21.6877   19.7062   26.8661 H   0  0  0  0  0  0  0  0  0  0  0  0
   20.4727   20.1038   27.9088 H   0  0  0  0  0  0  0  0  0  0  0  0
   21.0213   21.2135   26.8206 H   0  0  0  0  0  0  0  0  0  0  0  0
  1  2  1  0  0  0  0
  1  3  1  0  0  0  0
  1  4  1  0  0  0  0
  1  5  1  0  0  0  0
  5  6  1  0  0  0  0
  5  7  1  0  0  0  0
  5  8  1  0  0  0  0
  8  9  1  0  0  0  0
  8 10  1  0  0  0  0
  8 11  1  0  0  0  0
 11 12  1  0  0  0  0
 11 13  1  0  0  0  0
 11 14  1  0  0  0  0
 14 15  1  0  0  0  0
 14 16  1  0  0  0  0
 14 17  1  0  0  0  0
 17 18  1  0  0  0  0
 17 19  1  0  0  0  0
 17 20  1  0  0  0  0
 20 21  1  0  0  0  0
 20 22  1  0  0  0  0
 20 23  1  0  0  0  0
 23 24  1  0  0  0  0
 23 25  1  0  0  0  0
 23 26  1  0  0  0  0
 26 27  1  0  0  0  0
 26 28  1  0  0  0  0
 26 29  1  0  0  0  0
M  END
> <VM2 Rank>
428

> <Conf_Id>
2484

> <Probability>
0.00

> <Sum Probability>
100.00

> <Delta G>
6.397

> <G>
64.545

> <E>
26.442

> <-TS>
38.103

> <U+W>
2.298

> <U>
54.948

> <W>
-52.650

> <W(PB)>
-55.033

> <W(SA)>
2.383

> <Valence>
8.055

> <Coulomb>
46.364

> <VdW>
0.529

> <VdW6>
-10.581

> <VdW12>
11.110

> <Bond>
0.311

> <Angle>
1.872

> <Pdih>
5.872

> <Idih>
0.000

> <Tether>
0.000

$$$$
VeraChem MOL file


 29 28  0  0  0  0  0  0  0  0999 V2000     
   20.7440   17.8214   21.8184 C   0  0  0  0  0  0  0  0  0  0  0  0
   20.6731   17.7689   22.9114 H   0  0  0  0  0  0  0  0  0  0  0  0
   21.1517   16.8636   21.4702 H   0  0  0  0  0  0  0  0  0  0  0  0
   21.4609   18.6085   21.5514 H   0  0  0  0  0  0  0  0  0  0  0  0
   19.3639   18.0847   21.1776 C   0  0  0  0  0  0  0  0  0  0  0  0
   18.6549   17.3136   21.5099 H   0  0  0  0  0  0  0  0  0  0  0  0
   19.4534   17.9664   20.0887 H   0  0  0  0  0  0  0  0  0  0  0  0
   18.7792   19.4898   21.4726 C   0  0  0  0  0  0  0  0  0  0  0  0
   19.4350   20.2672   21.0570 H   0  0  0  0  0  0  0  0  0  0  0  0
   17.8321   19.5756   20.9222 H   0  0  0  0  0  0  0  0  0  0  0  0
   18.4938   19.7690   22.9709 C   0  0  0  0  0  0  0  0  0  0  0  0
   18.2394   18.8312   23.4773 H   0  0  0  0  0  0  0  0  0  0  0  0
   17.5957   20.3981   23.0405 H   0  0  0  0  0  0  0  0  0  0  0  0
   19.6522   20.5105   23.6883 C   0  0  0  0  0  0  0  0  0  0  0  0
   20.6057   19.9862   23.5548 H   0  0  0  0  0  0  0  0  0  0  0  0
   19.7799   21.4867   23.2004 H   0  0  0  0  0  0  0  0  0  0  0  0
   19.3943   20.7527   25.1980 C   0  0  0  0  0  0  0  0  0  0  0  0
   18.3234   20.9183   25.3802 H   0  0  0  0  0  0  0  0  0  0  0  0
   19.8937   21.6885   25.4848 H   0  0  0  0  0  0  0  0  0  0  0  0
   19.9289   19.6339   26.1272 C   0  0  0  0  0  0  0  0  0  0  0  0
   21.0139   19.5325   25.9914 H   0  0  0  0  0  0  0  0  0  0  0  0
   19.7737   19.9403   27.1703 H   0  0  0  0  0  0  0  0  0  0  0  0
   19.2568   18.2678   25.9045 C   0  0  0  0  0  0  0  0  0  0  0  0
   19.4726   17.9125   24.8940 H   0  0  0  0  0  0  0  0  0  0  0  0
   18.1736   18.3676   26.0141 H   0  0  0  0  0  0  0  0  0  0  0  0
   19.7308   17.2081   26.8776 N   0  3  0  0  0  0  0  0  0  0  0  0
   19.5338   17.4678   27.8498 H   0  0  0  0  0  0  0  0  0  0  0  0
   20.7413   17.0491   26.8067 H   0  0  0  0  0  0  0  0  0  0  0  0
   19.2730   16.3053   26.7109 H   0  0  0  0  0  0  0  0  0  0  0  0
  1  2  1  0  0  0  0
  1  3  1  0  0  0  0
  1  4  1  0  0  0  0
  1  5  1  0  0  0  0
  5  6  1  0  0  0  0
  5  7  1  0  0  0  0
  5  8  1  0  0  0  0
  8  9  1  0  0  0  0
  8 10  1  0  0  0  0
  8 11  1  0  0  0  0
 11 12  1  0  0  0  0
 11 13  1  0  0  0  0
 11 14  1  0  0  0  0
 14 15  1  0  0  0  0
 14 16  1  0  0  0  0
 14 17  1  0  0  0  0
 17 18  1  0  0  0  0
 17 19  1  0  0  0  0
 17 20  1  0  0  0  0
 20 21  1  0  0  0  0
 20 22  1  0  0  0  0
 20 23  1  0  0  0  0
 23 24  1  0  0  0  0
 23 25  1  0  0  0  0
 23 26  1  0  0  0  0
 26 27  1  0  0  0  0
 26 28  1  0  0  0  0
 26 29  1  0  0  0  0
M  END
> <VM2 Rank>
429

> <Conf_Id>
2266

> <Probability>
0.00

> <Sum Probability>
100.00

> <Delta G>
6.406

> <G>
64.554

> <E>
26.451

> <-TS>
38.103

> <U+W>
2.306

> <U>
54.948

> <W>
-52.642

> <W(PB)>
-55.027

> <W(SA)>
2.384

> <Valence>
8.055

> <Coulomb>
46.364

> <VdW>
0.529

> <VdW6>
-10.581

> <VdW12>
11.110

> <Bond>
0.311

> <Angle>
1.872

> <Pdih>
5.872

> <Idih>
0.000

> <Tether>
0.000

$$$$
VeraChem MOL file


 29 28  0  0  0  0  0  0  0  0999 V2000     
   18.6823   18.9176   20.2075 C   0  0  0  0  0  0  0  0  0  0  0  0
   18.0484   18.3934   19.4806 H   0  0  0  0  0  0  0  0  0  0  0  0
   18.1274   19.7986   20.5528 H   0  0  0  0  0  0  0  0  0  0  0  0
   19.5825   19.2613   19.6816 H   0  0  0  0  0  0  0  0  0  0  0  0
   19.0478   17.9801   21.3806 C   0  0  0  0  0  0  0  0  0  0  0  0
   19.4838   17.0578   20.9717 H   0  0  0  0  0  0  0  0  0  0  0  0
   18.1337   17.6790   21.9109 H   0  0  0  0  0  0  0  0  0  0  0  0
   20.0534   18.6031   22.3790 C   0  0  0  0  0  0  0  0  0  0  0  0
   20.3484   17.8236   23.0909 H   0  0  0  0  0  0  0  0  0  0  0  0
   20.9686   18.8914   21.8438 H   0  0  0  0  0  0  0  0  0  0  0  0
   19.4864   19.8310   23.1371 C   0  0  0  0  0  0  0  0  0  0  0  0
   18.5366   19.5699   23.6143 H   0  0  0  0  0  0  0  0  0  0  0  0
   19.2437   20.6149   22.4082 H   0  0  0  0  0  0  0  0  0  0  0  0
   20.4748   20.4432   24.1653 C   0  0  0  0  0  0  0  0  0  0  0  0
   21.3988   20.7019   23.6299 H   0  0  0  0  0  0  0  0  0  0  0  0
   20.0714   21.3978   24.5300 H   0  0  0  0  0  0  0  0  0  0  0  0
   20.8499   19.5528   25.3827 C   0  0  0  0  0  0  0  0  0  0  0  0
   21.8115   19.9169   25.7699 H   0  0  0  0  0  0  0  0  0  0  0  0
   21.0442   18.5189   25.0758 H   0  0  0  0  0  0  0  0  0  0  0  0
   19.8449   19.5899   26.5655 C   0  0  0  0  0  0  0  0  0  0  0  0
   20.2728   19.0295   27.4073 H   0  0  0  0  0  0  0  0  0  0  0  0
   19.7368   20.6245   26.9170 H   0  0  0  0  0  0  0  0  0  0  0  0
   18.4440   19.0228   26.2661 C   0  0  0  0  0  0  0  0  0  0  0  0
   17.9409   19.6498   25.5270 H   0  0  0  0  0  0  0  0  0  0  0  0
   17.8454   19.0391   27.1808 H   0  0  0  0  0  0  0  0  0  0  0  0
   18.4605   17.5975   25.7512 N   0  3  0  0  0  0  0  0  0  0  0  0
   17.5131   17.2446   25.5766 H   0  0  0  0  0  0  0  0  0  0  0  0
   18.9014   16.9583   26.4209 H   0  0  0  0  0  0  0  0  0  0  0  0
   18.9808   17.5274   24.8712 H   0  0  0  0  0  0  0  0  0  0  0  0
  1  2  1  0  0  0  0
  1  3  1  0  0  0  0
  1  4  1  0  0  0  0
  1  5  1  0  0  0  0
  5  6  1  0  0  0  0
  5  7  1  0  0  0  0
  5  8  1  0  0  0  0
  8  9  1  0  0  0  0
  8 10  1  0  0  0  0
  8 11  1  0  0  0  0
 11 12  1  0  0  0  0
 11 13  1  0  0  0  0
 11 14  1  0  0  0  0
 14 15  1  0  0  0  0
 14 16  1  0  0  0  0
 14 17  1  0  0  0  0
 17 18  1  0  0  0  0
 17 19  1  0  0  0  0
 17 20  1  0  0  0  0
 20 21  1  0  0  0  0
 20 22  1  0  0  0  0
 20 23  1  0  0  0  0
 23 24  1  0  0  0  0
 23 25  1  0  0  0  0
 23 26  1  0  0  0  0
 26 27  1  0  0  0  0
 26 28  1  0  0  0  0
 26 29  1  0  0  0  0
M  END
> <VM2 Rank>
430

> <Conf_Id>
2606

> <Probability>
0.00

> <Sum Probability>
100.00

> <Delta G>
6.416

> <G>
64.564

> <E>
26.429

> <-TS>
38.135

> <U+W>
2.284

> <U>
54.378

> <W>
-52.094

> <W(PB)>
-54.453

> <W(SA)>
2.360

> <Valence>
6.562

> <Coulomb>
47.216

> <VdW>
0.600

> <VdW6>
-11.229

> <VdW12>
11.830

> <Bond>
0.369

> <Angle>
2.511

> <Pdih>
3.682

> <Idih>
0.000

> <Tether>
0.000

$$$$
VeraChem MOL file


 29 28  0  0  0  0  0  0  0  0999 V2000     
   19.9305   17.1794   21.1516 C   0  0  0  0  0  0  0  0  0  0  0  0
   20.8635   16.9987   21.7013 H   0  0  0  0  0  0  0  0  0  0  0  0
   19.3594   16.2421   21.1397 H   0  0  0  0  0  0  0  0  0  0  0  0
   20.1877   17.4307   20.1144 H   0  0  0  0  0  0  0  0  0  0  0  0
   19.1101   18.3090   21.8090 C   0  0  0  0  0  0  0  0  0  0  0  0
   18.8338   18.0068   22.8256 H   0  0  0  0  0  0  0  0  0  0  0  0
   18.1686   18.4410   21.2579 H   0  0  0  0  0  0  0  0  0  0  0  0
   19.8907   19.6455   21.8248 C   0  0  0  0  0  0  0  0  0  0  0  0
   20.8765   19.5175   22.2911 H   0  0  0  0  0  0  0  0  0  0  0  0
   20.0889   19.9319   20.7827 H   0  0  0  0  0  0  0  0  0  0  0  0
   19.1219   20.8039   22.5103 C   0  0  0  0  0  0  0  0  0  0  0  0
   18.0396   20.6776   22.3696 H   0  0  0  0  0  0  0  0  0  0  0  0
   19.3781   21.7326   21.9820 H   0  0  0  0  0  0  0  0  0  0  0  0
   19.4422   21.0292   24.0132 C   0  0  0  0  0  0  0  0  0  0  0  0
   20.5135   21.2348   24.1443 H   0  0  0  0  0  0  0  0  0  0  0  0
   18.9290   21.9516   24.3186 H   0  0  0  0  0  0  0  0  0  0  0  0
   18.9909   19.8989   24.9730 C   0  0  0  0  0  0  0  0  0  0  0  0
   18.1025   19.3941   24.5705 H   0  0  0  0  0  0  0  0  0  0  0  0
   18.6716   20.3610   25.9167 H   0  0  0  0  0  0  0  0  0  0  0  0
   20.1116   18.8754   25.2876 C   0  0  0  0  0  0  0  0  0  0  0  0
   20.5322   18.4729   24.3598 H   0  0  0  0  0  0  0  0  0  0  0  0
   20.9390   19.3779   25.8059 H   0  0  0  0  0  0  0  0  0  0  0  0
   19.6132   17.6952   26.1431 C   0  0  0  0  0  0  0  0  0  0  0  0
   20.4242   16.9735   26.2736 H   0  0  0  0  0  0  0  0  0  0  0  0
   18.7882   17.1925   25.6312 H   0  0  0  0  0  0  0  0  0  0  0  0
   19.1329   18.1015   27.5223 N   0  3  0  0  0  0  0  0  0  0  0  0
   18.3450   18.7549   27.4718 H   0  0  0  0  0  0  0  0  0  0  0  0
   19.8735   18.5604   28.0629 H   0  0  0  0  0  0  0  0  0  0  0  0
   18.8187   17.2928   28.0699 H   0  0  0  0  0  0  0  0  0  0  0  0
  1  2  1  0  0  0  0
  1  3  1  0  0  0  0
  1  4  1  0  0  0  0
  1  5  1  0  0  0  0
  5  6  1  0  0  0  0
  5  7  1  0  0  0  0
  5  8  1  0  0  0  0
  8  9  1  0  0  0  0
  8 10  1  0  0  0  0
  8 11  1  0  0  0  0
 11 12  1  0  0  0  0
 11 13  1  0  0  0  0
 11 14  1  0  0  0  0
 14 15  1  0  0  0  0
 14 16  1  0  0  0  0
 14 17  1  0  0  0  0
 17 18  1  0  0  0  0
 17 19  1  0  0  0  0
 17 20  1  0  0  0  0
 20 21  1  0  0  0  0
 20 22  1  0  0  0  0
 20 23  1  0  0  0  0
 23 24  1  0  0  0  0
 23 25  1  0  0  0  0
 23 26  1  0  0  0  0
 26 27  1  0  0  0  0
 26 28  1  0  0  0  0
 26 29  1  0  0  0  0
M  END
> <VM2 Rank>
431

> <Conf_Id>
1656

> <Probability>
0.00

> <Sum Probability>
100.00

> <Delta G>
6.456

> <G>
64.604

> <E>
26.379

> <-TS>
38.226

> <U+W>
2.234

> <U>
54.670

> <W>
-52.436

> <W(PB)>
-54.813

> <W(SA)>
2.377

> <Valence>
8.314

> <Coulomb>
45.816

> <VdW>
0.539

> <VdW6>
-10.655

> <VdW12>
11.194

> <Bond>
0.310

> <Angle>
1.974

> <Pdih>
6.030

> <Idih>
0.000

> <Tether>
0.000

$$$$
VeraChem MOL file


 29 28  0  0  0  0  0  0  0  0999 V2000     
   21.0566   20.3422   21.2223 C   0  0  0  0  0  0  0  0  0  0  0  0
   21.8861   19.8709   21.7654 H   0  0  0  0  0  0  0  0  0  0  0  0
   21.1118   20.0263   20.1724 H   0  0  0  0  0  0  0  0  0  0  0  0
   21.2061   21.4291   21.2556 H   0  0  0  0  0  0  0  0  0  0  0  0
   19.6978   19.9598   21.8458 C   0  0  0  0  0  0  0  0  0  0  0  0
   18.8924   20.4741   21.3032 H   0  0  0  0  0  0  0  0  0  0  0  0
   19.6601   20.3281   22.8774 H   0  0  0  0  0  0  0  0  0  0  0  0
   19.4585   18.4314   21.7977 C   0  0  0  0  0  0  0  0  0  0  0  0
   19.4459   18.1257   20.7424 H   0  0  0  0  0  0  0  0  0  0  0  0
   20.2968   17.8893   22.2548 H   0  0  0  0  0  0  0  0  0  0  0  0
   18.1211   17.9930   22.4475 C   0  0  0  0  0  0  0  0  0  0  0  0
   17.7405   17.1330   21.8792 H   0  0  0  0  0  0  0  0  0  0  0  0
   17.3640   18.7800   22.3271 H   0  0  0  0  0  0  0  0  0  0  0  0
   18.2058   17.5567   23.9356 C   0  0  0  0  0  0  0  0  0  0  0  0
   17.2211   17.1547   24.2115 H   0  0  0  0  0  0  0  0  0  0  0  0
   18.9045   16.7157   24.0434 H   0  0  0  0  0  0  0  0  0  0  0  0
   18.5565   18.6789   24.9457 C   0  0  0  0  0  0  0  0  0  0  0  0
   18.0038   18.4854   25.8748 H   0  0  0  0  0  0  0  0  0  0  0  0
   18.1925   19.6468   24.5761 H   0  0  0  0  0  0  0  0  0  0  0  0
   20.0672   18.7509   25.2849 C   0  0  0  0  0  0  0  0  0  0  0  0
   20.3839   17.8186   25.7711 H   0  0  0  0  0  0  0  0  0  0  0  0
   20.6606   18.8336   24.3678 H   0  0  0  0  0  0  0  0  0  0  0  0
   20.4144   19.9455   26.1934 C   0  0  0  0  0  0  0  0  0  0  0  0
   20.0997   20.8762   25.7135 H   0  0  0  0  0  0  0  0  0  0  0  0
   21.4970   19.9868   26.3409 H   0  0  0  0  0  0  0  0  0  0  0  0
   19.7660   19.8796   27.5621 N   0  3  0  0  0  0  0  0  0  0  0  0
   18.7433   19.8736   27.4969 H   0  0  0  0  0  0  0  0  0  0  0  0
   20.0257   20.6825   28.1457 H   0  0  0  0  0  0  0  0  0  0  0  0
   20.0425   19.0351   28.0735 H   0  0  0  0  0  0  0  0  0  0  0  0
  1  2  1  0  0  0  0
  1  3  1  0  0  0  0
  1  4  1  0  0  0  0
  1  5  1  0  0  0  0
  5  6  1  0  0  0  0
  5  7  1  0  0  0  0
  5  8  1  0  0  0  0
  8  9  1  0  0  0  0
  8 10  1  0  0  0  0
  8 11  1  0  0  0  0
 11 12  1  0  0  0  0
 11 13  1  0  0  0  0
 11 14  1  0  0  0  0
 14 15  1  0  0  0  0
 14 16  1  0  0  0  0
 14 17  1  0  0  0  0
 17 18  1  0  0  0  0
 17 19  1  0  0  0  0
 17 20  1  0  0  0  0
 20 21  1  0  0  0  0
 20 22  1  0  0  0  0
 20 23  1  0  0  0  0
 23 24  1  0  0  0  0
 23 25  1  0  0  0  0
 23 26  1  0  0  0  0
 26 27  1  0  0  0  0
 26 28  1  0  0  0  0
 26 29  1  0  0  0  0
M  END
> <VM2 Rank>
432

> <Conf_Id>
1921

> <Probability>
0.00

> <Sum Probability>
100.00

> <Delta G>
6.500

> <G>
64.648

> <E>
26.422

> <-TS>
38.226

> <U+W>
2.278

> <U>
54.669

> <W>
-52.392

> <W(PB)>
-54.785

> <W(SA)>
2.393

> <Valence>
8.314

> <Coulomb>
45.816

> <VdW>
0.539

> <VdW6>
-10.655

> <VdW12>
11.194

> <Bond>
0.310

> <Angle>
1.975

> <Pdih>
6.030

> <Idih>
0.000

> <Tether>
0.000

$$$$
VeraChem MOL file


 29 28  0  0  0  0  0  0  0  0999 V2000     
   20.0785   17.4209   21.5136 C   0  0  0  0  0  0  0  0  0  0  0  0
   19.2728   17.2428   22.2364 H   0  0  0  0  0  0  0  0  0  0  0  0
   20.1285   16.5428   20.8569 H   0  0  0  0  0  0  0  0  0  0  0  0
   21.0299   17.4886   22.0566 H   0  0  0  0  0  0  0  0  0  0  0  0
   19.8168   18.6982   20.6861 C   0  0  0  0  0  0  0  0  0  0  0  0
   18.8297   18.6267   20.2085 H   0  0  0  0  0  0  0  0  0  0  0  0
   20.5482   18.7428   19.8672 H   0  0  0  0  0  0  0  0  0  0  0  0
   19.9070   20.0162   21.4971 C   0  0  0  0  0  0  0  0  0  0  0  0
   20.9229   20.1466   21.8945 H   0  0  0  0  0  0  0  0  0  0  0  0
   19.7557   20.8469   20.7939 H   0  0  0  0  0  0  0  0  0  0  0  0
   18.8616   20.1513   22.6348 C   0  0  0  0  0  0  0  0  0  0  0  0
   17.9527   19.5892   22.3795 H   0  0  0  0  0  0  0  0  0  0  0  0
   18.5580   21.2051   22.7036 H   0  0  0  0  0  0  0  0  0  0  0  0
   19.3982   19.7117   24.0187 C   0  0  0  0  0  0  0  0  0  0  0  0
   19.7465   18.6759   23.9643 H   0  0  0  0  0  0  0  0  0  0  0  0
   20.2651   20.3320   24.2850 H   0  0  0  0  0  0  0  0  0  0  0  0
   18.3158   19.8363   25.1166 C   0  0  0  0  0  0  0  0  0  0  0  0
   17.4966   19.1357   24.9038 H   0  0  0  0  0  0  0  0  0  0  0  0
   17.8773   20.8428   25.0720 H   0  0  0  0  0  0  0  0  0  0  0  0
   18.8347   19.5998   26.5581 C   0  0  0  0  0  0  0  0  0  0  0  0
   19.6115   20.3339   26.8102 H   0  0  0  0  0  0  0  0  0  0  0  0
   18.0037   19.7908   27.2500 H   0  0  0  0  0  0  0  0  0  0  0  0
   19.3505   18.1708   26.8265 C   0  0  0  0  0  0  0  0  0  0  0  0
   18.7053   17.4431   26.3271 H   0  0  0  0  0  0  0  0  0  0  0  0
   19.3138   17.9753   27.9017 H   0  0  0  0  0  0  0  0  0  0  0  0
   20.7810   17.9327   26.3835 N   0  3  0  0  0  0  0  0  0  0  0  0
   20.8989   18.0934   25.3792 H   0  0  0  0  0  0  0  0  0  0  0  0
   21.0832   16.9713   26.5757 H   0  0  0  0  0  0  0  0  0  0  0  0
   21.4359   18.5545   26.8692 H   0  0  0  0  0  0  0  0  0  0  0  0
  1  2  1  0  0  0  0
  1  3  1  0  0  0  0
  1  4  1  0  0  0  0
  1  5  1  0  0  0  0
  5  6  1  0  0  0  0
  5  7  1  0  0  0  0
  5  8  1  0  0  0  0
  8  9  1  0  0  0  0
  8 10  1  0  0  0  0
  8 11  1  0  0  0  0
 11 12  1  0  0  0  0
 11 13  1  0  0  0  0
 11 14  1  0  0  0  0
 14 15  1  0  0  0  0
 14 16  1  0  0  0  0
 14 17  1  0  0  0  0
 17 18  1  0  0  0  0
 17 19  1  0  0  0  0
 17 20  1  0  0  0  0
 20 21  1  0  0  0  0
 20 22  1  0  0  0  0
 20 23  1  0  0  0  0
 23 24  1  0  0  0  0
 23 25  1  0  0  0  0
 23 26  1  0  0  0  0
 26 27  1  0  0  0  0
 26 28  1  0  0  0  0
 26 29  1  0  0  0  0
M  END
> <VM2 Rank>
433

> <Conf_Id>
1628

> <Probability>
0.00

> <Sum Probability>
100.00

> <Delta G>
6.524

> <G>
64.672

> <E>
26.971

> <-TS>
37.701

> <U+W>
2.826

> <U>
55.032

> <W>
-52.206

> <W(PB)>
-54.590

> <W(SA)>
2.384

> <Valence>
7.133

> <Coulomb>
47.194

> <VdW>
0.706

> <VdW6>
-10.153

> <VdW12>
10.859

> <Bond>
0.291

> <Angle>
1.686

> <Pdih>
5.156

> <Idih>
0.000

> <Tether>
0.000

$$$$
VeraChem MOL file


 29 28  0  0  0  0  0  0  0  0999 V2000     
   20.5012   19.8603   20.8164 C   0  0  0  0  0  0  0  0  0  0  0  0
   20.8033   20.5752   20.0402 H   0  0  0  0  0  0  0  0  0  0  0  0
   20.8881   20.2338   21.7722 H   0  0  0  0  0  0  0  0  0  0  0  0
   20.9823   18.8990   20.5941 H   0  0  0  0  0  0  0  0  0  0  0  0
   18.9640   19.7202   20.8513 C   0  0  0  0  0  0  0  0  0  0  0  0
   18.6046   19.5350   19.8294 H   0  0  0  0  0  0  0  0  0  0  0  0
   18.5182   20.6754   21.1619 H   0  0  0  0  0  0  0  0  0  0  0  0
   18.4453   18.5816   21.7665 C   0  0  0  0  0  0  0  0  0  0  0  0
   17.3510   18.5553   21.6699 H   0  0  0  0  0  0  0  0  0  0  0  0
   18.7970   17.6097   21.3946 H   0  0  0  0  0  0  0  0  0  0  0  0
   18.7912   18.7438   23.2701 C   0  0  0  0  0  0  0  0  0  0  0  0
   17.9595   18.3379   23.8621 H   0  0  0  0  0  0  0  0  0  0  0  0
   18.8569   19.8115   23.5125 H   0  0  0  0  0  0  0  0  0  0  0  0
   20.0897   18.0087   23.6887 C   0  0  0  0  0  0  0  0  0  0  0  0
   20.0476   16.9755   23.3176 H   0  0  0  0  0  0  0  0  0  0  0  0
   20.9601   18.4667   23.2046 H   0  0  0  0  0  0  0  0  0  0  0  0
   20.3323   17.9545   25.2192 C   0  0  0  0  0  0  0  0  0  0  0  0
   21.2415   17.3605   25.3861 H   0  0  0  0  0  0  0  0  0  0  0  0
   19.5239   17.3954   25.7079 H   0  0  0  0  0  0  0  0  0  0  0  0
   20.5339   19.3351   25.8993 C   0  0  0  0  0  0  0  0  0  0  0  0
   21.1560   19.2031   26.7946 H   0  0  0  0  0  0  0  0  0  0  0  0
   21.1037   19.9955   25.2322 H   0  0  0  0  0  0  0  0  0  0  0  0
   19.2274   20.0382   26.3240 C   0  0  0  0  0  0  0  0  0  0  0  0
   18.5659   20.1641   25.4655 H   0  0  0  0  0  0  0  0  0  0  0  0
   19.4647   21.0308   26.7164 H   0  0  0  0  0  0  0  0  0  0  0  0
   18.4590   19.2957   27.3995 N   0  3  0  0  0  0  0  0  0  0  0  0
   19.0187   19.1718   28.2494 H   0  0  0  0  0  0  0  0  0  0  0  0
   18.1736   18.3629   27.0860 H   0  0  0  0  0  0  0  0  0  0  0  0
   17.6060   19.7961   27.6724 H   0  0  0  0  0  0  0  0  0  0  0  0
  1  2  1  0  0  0  0
  1  3  1  0  0  0  0
  1  4  1  0  0  0  0
  1  5  1  0  0  0  0
  5  6  1  0  0  0  0
  5  7  1  0  0  0  0
  5  8  1  0  0  0  0
  8  9  1  0  0  0  0
  8 10  1  0  0  0  0
  8 11  1  0  0  0  0
 11 12  1  0  0  0  0
 11 13  1  0  0  0  0
 11 14  1  0  0  0  0
 14 15  1  0  0  0  0
 14 16  1  0  0  0  0
 14 17  1  0  0  0  0
 17 18  1  0  0  0  0
 17 19  1  0  0  0  0
 17 20  1  0  0  0  0
 20 21  1  0  0  0  0
 20 22  1  0  0  0  0
 20 23  1  0  0  0  0
 23 24  1  0  0  0  0
 23 25  1  0  0  0  0
 23 26  1  0  0  0  0
 26 27  1  0  0  0  0
 26 28  1  0  0  0  0
 26 29  1  0  0  0  0
M  END
> <VM2 Rank>
434

> <Conf_Id>
2561

> <Probability>
0.00

> <Sum Probability>
100.00

> <Delta G>
6.545

> <G>
64.693

> <E>
26.877

> <-TS>
37.817

> <U+W>
2.732

> <U>
55.108

> <W>
-52.375

> <W(PB)>
-54.802

> <W(SA)>
2.426

> <Valence>
8.106

> <Coulomb>
46.145

> <VdW>
0.857

> <VdW6>
-10.798

> <VdW12>
11.655

> <Bond>
0.339

> <Angle>
2.103

> <Pdih>
5.663

> <Idih>
0.000

> <Tether>
0.000

$$$$
VeraChem MOL file


 29 28  0  0  0  0  0  0  0  0999 V2000     
   21.0137   20.0471   21.5722 C   0  0  0  0  0  0  0  0  0  0  0  0
   21.7007   19.3722   22.0987 H   0  0  0  0  0  0  0  0  0  0  0  0
   21.6164   20.7212   20.9500 H   0  0  0  0  0  0  0  0  0  0  0  0
   20.4915   20.6654   22.3127 H   0  0  0  0  0  0  0  0  0  0  0  0
   20.0156   19.2562   20.6986 C   0  0  0  0  0  0  0  0  0  0  0  0
   20.5660   18.7919   19.8684 H   0  0  0  0  0  0  0  0  0  0  0  0
   19.3025   19.9540   20.2380 H   0  0  0  0  0  0  0  0  0  0  0  0
   19.2415   18.1469   21.4555 C   0  0  0  0  0  0  0  0  0  0  0  0
   18.6094   17.6270   20.7223 H   0  0  0  0  0  0  0  0  0  0  0  0
   19.9409   17.3885   21.8333 H   0  0  0  0  0  0  0  0  0  0  0  0
   18.3297   18.6578   22.6015 C   0  0  0  0  0  0  0  0  0  0  0  0
   17.4278   18.0311   22.6329 H   0  0  0  0  0  0  0  0  0  0  0  0
   17.9840   19.6773   22.3813 H   0  0  0  0  0  0  0  0  0  0  0  0
   19.0038   18.6045   23.9941 C   0  0  0  0  0  0  0  0  0  0  0  0
   19.2797   17.5661   24.2237 H   0  0  0  0  0  0  0  0  0  0  0  0
   19.9290   19.1882   23.9757 H   0  0  0  0  0  0  0  0  0  0  0  0
   18.0708   19.1490   25.1012 C   0  0  0  0  0  0  0  0  0  0  0  0
   17.0955   18.6491   25.0229 H   0  0  0  0  0  0  0  0  0  0  0  0
   17.8820   20.2175   24.9276 H   0  0  0  0  0  0  0  0  0  0  0  0
   18.6018   18.9474   26.5434 C   0  0  0  0  0  0  0  0  0  0  0  0
   17.8276   19.2980   27.2388 H   0  0  0  0  0  0  0  0  0  0  0  0
   18.7356   17.8783   26.7557 H   0  0  0  0  0  0  0  0  0  0  0  0
   19.9012   19.7161   26.8608 C   0  0  0  0  0  0  0  0  0  0  0  0
   19.9812   19.8485   27.9432 H   0  0  0  0  0  0  0  0  0  0  0  0
   19.8688   20.7067   26.3993 H   0  0  0  0  0  0  0  0  0  0  0  0
   21.1659   19.0130   26.4077 N   0  3  0  0  0  0  0  0  0  0  0  0
   21.2730   18.0987   26.8596 H   0  0  0  0  0  0  0  0  0  0  0  0
   22.0053   19.5581   26.6335 H   0  0  0  0  0  0  0  0  0  0  0  0
   21.1700   18.8535   25.3964 H   0  0  0  0  0  0  0  0  0  0  0  0
  1  2  1  0  0  0  0
  1  3  1  0  0  0  0
  1  4  1  0  0  0  0
  1  5  1  0  0  0  0
  5  6  1  0  0  0  0
  5  7  1  0  0  0  0
  5  8  1  0  0  0  0
  8  9  1  0  0  0  0
  8 10  1  0  0  0  0
  8 11  1  0  0  0  0
 11 12  1  0  0  0  0
 11 13  1  0  0  0  0
 11 14  1  0  0  0  0
 14 15  1  0  0  0  0
 14 16  1  0  0  0  0
 14 17  1  0  0  0  0
 17 18  1  0  0  0  0
 17 19  1  0  0  0  0
 17 20  1  0  0  0  0
 20 21  1  0  0  0  0
 20 22  1  0  0  0  0
 20 23  1  0  0  0  0
 23 24  1  0  0  0  0
 23 25  1  0  0  0  0
 23 26  1  0  0  0  0
 26 27  1  0  0  0  0
 26 28  1  0  0  0  0
 26 29  1  0  0  0  0
M  END
> <VM2 Rank>
435

> <Conf_Id>
347

> <Probability>
0.00

> <Sum Probability>
100.00

> <Delta G>
6.554

> <G>
64.702

> <E>
27.000

> <-TS>
37.702

> <U+W>
2.855

> <U>
55.032

> <W>
-52.177

> <W(PB)>
-54.589

> <W(SA)>
2.412

> <Valence>
7.133

> <Coulomb>
47.194

> <VdW>
0.706

> <VdW6>
-10.154

> <VdW12>
10.860

> <Bond>
0.291

> <Angle>
1.686

> <Pdih>
5.156

> <Idih>
0.000

> <Tether>
0.000

$$$$
VeraChem MOL file


 29 28  0  0  0  0  0  0  0  0999 V2000     
   19.8187   18.4635   20.0432 C   0  0  0  0  0  0  0  0  0  0  0  0
   19.8593   17.5998   20.7164 H   0  0  0  0  0  0  0  0  0  0  0  0
   19.2076   18.1828   19.1757 H   0  0  0  0  0  0  0  0  0  0  0  0
   20.8375   18.6583   19.6840 H   0  0  0  0  0  0  0  0  0  0  0  0
   19.2314   19.7142   20.7377 C   0  0  0  0  0  0  0  0  0  0  0  0
   18.1817   19.5413   21.0128 H   0  0  0  0  0  0  0  0  0  0  0  0
   19.2205   20.5348   20.0068 H   0  0  0  0  0  0  0  0  0  0  0  0
   20.0477   20.1638   21.9768 C   0  0  0  0  0  0  0  0  0  0  0  0
   21.0932   19.8394   21.8822 H   0  0  0  0  0  0  0  0  0  0  0  0
   20.0794   21.2622   21.9852 H   0  0  0  0  0  0  0  0  0  0  0  0
   19.4702   19.7035   23.3403 C   0  0  0  0  0  0  0  0  0  0  0  0
   18.4635   20.1233   23.4717 H   0  0  0  0  0  0  0  0  0  0  0  0
   20.0989   20.1408   24.1254 H   0  0  0  0  0  0  0  0  0  0  0  0
   19.4196   18.1674   23.5245 C   0  0  0  0  0  0  0  0  0  0  0  0
   18.8113   17.7285   22.7241 H   0  0  0  0  0  0  0  0  0  0  0  0
   20.4304   17.7521   23.4120 H   0  0  0  0  0  0  0  0  0  0  0  0
   18.8150   17.6995   24.8739 C   0  0  0  0  0  0  0  0  0  0  0  0
   18.7979   16.6009   24.8648 H   0  0  0  0  0  0  0  0  0  0  0  0
   17.7638   18.0119   24.9447 H   0  0  0  0  0  0  0  0  0  0  0  0
   19.5914   18.1586   26.1339 C   0  0  0  0  0  0  0  0  0  0  0  0
   19.4618   17.4028   26.9199 H   0  0  0  0  0  0  0  0  0  0  0  0
   20.6676   18.2023   25.9202 H   0  0  0  0  0  0  0  0  0  0  0  0
   19.0968   19.5102   26.6852 C   0  0  0  0  0  0  0  0  0  0  0  0
   18.0389   19.4320   26.9496 H   0  0  0  0  0  0  0  0  0  0  0  0
   19.2013   20.2901   25.9287 H   0  0  0  0  0  0  0  0  0  0  0  0
   19.8532   19.9572   27.9193 N   0  3  0  0  0  0  0  0  0  0  0  0
   19.7678   19.2805   28.6850 H   0  0  0  0  0  0  0  0  0  0  0  0
   19.5066   20.8553   28.2743 H   0  0  0  0  0  0  0  0  0  0  0  0
   20.8542   20.0759   27.7315 H   0  0  0  0  0  0  0  0  0  0  0  0
  1  2  1  0  0  0  0
  1  3  1  0  0  0  0
  1  4  1  0  0  0  0
  1  5  1  0  0  0  0
  5  6  1  0  0  0  0
  5  7  1  0  0  0  0
  5  8  1  0  0  0  0
  8  9  1  0  0  0  0
  8 10  1  0  0  0  0
  8 11  1  0  0  0  0
 11 12  1  0  0  0  0
 11 13  1  0  0  0  0
 11 14  1  0  0  0  0
 14 15  1  0  0  0  0
 14 16  1  0  0  0  0
 14 17  1  0  0  0  0
 17 18  1  0  0  0  0
 17 19  1  0  0  0  0
 17 20  1  0  0  0  0
 20 21  1  0  0  0  0
 20 22  1  0  0  0  0
 20 23  1  0  0  0  0
 23 24  1  0  0  0  0
 23 25  1  0  0  0  0
 23 26  1  0  0  0  0
 26 27  1  0  0  0  0
 26 28  1  0  0  0  0
 26 29  1  0  0  0  0
M  END
> <VM2 Rank>
436

> <Conf_Id>
967

> <Probability>
0.00

> <Sum Probability>
100.00

> <Delta G>
6.623

> <G>
64.771

> <E>
26.993

> <-TS>
37.778

> <U+W>
2.849

> <U>
54.913

> <W>
-52.065

> <W(PB)>
-54.526

> <W(SA)>
2.461

> <Valence>
8.260

> <Coulomb>
45.700

> <VdW>
0.953

> <VdW6>
-10.016

> <VdW12>
10.969

> <Bond>
0.304

> <Angle>
1.968

> <Pdih>
5.989

> <Idih>
0.000

> <Tether>
0.000

$$$$
VeraChem MOL file


 29 28  0  0  0  0  0  0  0  0999 V2000     
   21.3066   18.7871   20.7325 C   0  0  0  0  0  0  0  0  0  0  0  0
   21.9252   18.2219   21.4418 H   0  0  0  0  0  0  0  0  0  0  0  0
   21.3159   18.2504   19.7750 H   0  0  0  0  0  0  0  0  0  0  0  0
   21.7761   19.7668   20.5742 H   0  0  0  0  0  0  0  0  0  0  0  0
   19.8632   18.9414   21.2565 C   0  0  0  0  0  0  0  0  0  0  0  0
   19.4131   17.9460   21.3635 H   0  0  0  0  0  0  0  0  0  0  0  0
   19.2624   19.4813   20.5114 H   0  0  0  0  0  0  0  0  0  0  0  0
   19.8252   19.6989   22.6051 C   0  0  0  0  0  0  0  0  0  0  0  0
   20.4299   19.1590   23.3432 H   0  0  0  0  0  0  0  0  0  0  0  0
   20.3037   20.6788   22.4712 H   0  0  0  0  0  0  0  0  0  0  0  0
   18.3866   19.9231   23.1397 C   0  0  0  0  0  0  0  0  0  0  0  0
   17.7759   20.3307   22.3224 H   0  0  0  0  0  0  0  0  0  0  0  0
   18.3912   20.7034   23.9123 H   0  0  0  0  0  0  0  0  0  0  0  0
   17.6965   18.6475   23.6929 C   0  0  0  0  0  0  0  0  0  0  0  0
   16.6313   18.7016   23.4289 H   0  0  0  0  0  0  0  0  0  0  0  0
   18.0749   17.7492   23.1893 H   0  0  0  0  0  0  0  0  0  0  0  0
   17.7800   18.4571   25.2315 C   0  0  0  0  0  0  0  0  0  0  0  0
   17.1696   17.5798   25.4867 H   0  0  0  0  0  0  0  0  0  0  0  0
   17.3043   19.3056   25.7426 H   0  0  0  0  0  0  0  0  0  0  0  0
   19.2022   18.2275   25.7998 C   0  0  0  0  0  0  0  0  0  0  0  0
   19.1163   17.6596   26.7357 H   0  0  0  0  0  0  0  0  0  0  0  0
   19.7869   17.6024   25.1122 H   0  0  0  0  0  0  0  0  0  0  0  0
   19.9480   19.5405   26.1063 C   0  0  0  0  0  0  0  0  0  0  0  0
   19.3787   20.1232   26.8354 H   0  0  0  0  0  0  0  0  0  0  0  0
   20.0495   20.1371   25.1978 H   0  0  0  0  0  0  0  0  0  0  0  0
   21.3355   19.3149   26.6708 N   0  3  0  0  0  0  0  0  0  0  0  0
   21.9322   18.7917   26.0217 H   0  0  0  0  0  0  0  0  0  0  0  0
   21.3080   18.7859   27.5487 H   0  0  0  0  0  0  0  0  0  0  0  0
   21.8139   20.2002   26.8707 H   0  0  0  0  0  0  0  0  0  0  0  0
  1  2  1  0  0  0  0
  1  3  1  0  0  0  0
  1  4  1  0  0  0  0
  1  5  1  0  0  0  0
  5  6  1  0  0  0  0
  5  7  1  0  0  0  0
  5  8  1  0  0  0  0
  8  9  1  0  0  0  0
  8 10  1  0  0  0  0
  8 11  1  0  0  0  0
 11 12  1  0  0  0  0
 11 13  1  0  0  0  0
 11 14  1  0  0  0  0
 14 15  1  0  0  0  0
 14 16  1  0  0  0  0
 14 17  1  0  0  0  0
 17 18  1  0  0  0  0
 17 19  1  0  0  0  0
 17 20  1  0  0  0  0
 20 21  1  0  0  0  0
 20 22  1  0  0  0  0
 20 23  1  0  0  0  0
 23 24  1  0  0  0  0
 23 25  1  0  0  0  0
 23 26  1  0  0  0  0
 26 27  1  0  0  0  0
 26 28  1  0  0  0  0
 26 29  1  0  0  0  0
M  END
> <VM2 Rank>
437

> <Conf_Id>
350

> <Probability>
0.00

> <Sum Probability>
100.00

> <Delta G>
6.650

> <G>
64.798

> <E>
26.633

> <-TS>
38.164

> <U+W>
2.489

> <U>
55.371

> <W>
-52.882

> <W(PB)>
-55.303

> <W(SA)>
2.421

> <Valence>
8.230

> <Coulomb>
46.640

> <VdW>
0.501

> <VdW6>
-10.691

> <VdW12>
11.191

> <Bond>
0.310

> <Angle>
1.952

> <Pdih>
5.968

> <Idih>
0.000

> <Tether>
0.000

$$$$
VeraChem MOL file


 29 28  0  0  0  0  0  0  0  0999 V2000     
   20.0195   17.9302   20.7351 C   0  0  0  0  0  0  0  0  0  0  0  0
   20.2086   17.4053   21.6798 H   0  0  0  0  0  0  0  0  0  0  0  0
   19.9235   17.1695   19.9497 H   0  0  0  0  0  0  0  0  0  0  0  0
   20.8944   18.5492   20.4978 H   0  0  0  0  0  0  0  0  0  0  0  0
   18.7373   18.7870   20.8163 C   0  0  0  0  0  0  0  0  0  0  0  0
   17.8888   18.1466   21.0947 H   0  0  0  0  0  0  0  0  0  0  0  0
   18.5090   19.1759   19.8141 H   0  0  0  0  0  0  0  0  0  0  0  0
   18.8294   19.9817   21.7997 C   0  0  0  0  0  0  0  0  0  0  0  0
   19.6121   20.6808   21.4743 H   0  0  0  0  0  0  0  0  0  0  0  0
   17.8857   20.5402   21.7304 H   0  0  0  0  0  0  0  0  0  0  0  0
   19.0471   19.5811   23.2819 C   0  0  0  0  0  0  0  0  0  0  0  0
   18.6187   18.5870   23.4687 H   0  0  0  0  0  0  0  0  0  0  0  0
   18.4856   20.2872   23.9068 H   0  0  0  0  0  0  0  0  0  0  0  0
   20.5335   19.6246   23.7158 C   0  0  0  0  0  0  0  0  0  0  0  0
   21.1524   19.1145   22.9681 H   0  0  0  0  0  0  0  0  0  0  0  0
   20.8768   20.6682   23.7236 H   0  0  0  0  0  0  0  0  0  0  0  0
   20.8211   18.9775   25.0952 C   0  0  0  0  0  0  0  0  0  0  0  0
   21.9071   19.0200   25.2569 H   0  0  0  0  0  0  0  0  0  0  0  0
   20.5715   17.9091   25.0669 H   0  0  0  0  0  0  0  0  0  0  0  0
   20.1339   19.6693   26.3030 C   0  0  0  0  0  0  0  0  0  0  0  0
   20.7171   19.4609   27.2098 H   0  0  0  0  0  0  0  0  0  0  0  0
   20.1644   20.7588   26.1699 H   0  0  0  0  0  0  0  0  0  0  0  0
   18.6781   19.2251   26.5586 C   0  0  0  0  0  0  0  0  0  0  0  0
   18.0641   19.4055   25.6749 H   0  0  0  0  0  0  0  0  0  0  0  0
   18.2633   19.8117   27.3828 H   0  0  0  0  0  0  0  0  0  0  0  0
   18.5440   17.7613   26.9294 N   0  3  0  0  0  0  0  0  0  0  0  0
   18.8848   17.1485   26.1823 H   0  0  0  0  0  0  0  0  0  0  0  0
   17.5681   17.5022   27.1106 H   0  0  0  0  0  0  0  0  0  0  0  0
   19.0767   17.5335   27.7753 H   0  0  0  0  0  0  0  0  0  0  0  0
  1  2  1  0  0  0  0
  1  3  1  0  0  0  0
  1  4  1  0  0  0  0
  1  5  1  0  0  0  0
  5  6  1  0  0  0  0
  5  7  1  0  0  0  0
  5  8  1  0  0  0  0
  8  9  1  0  0  0  0
  8 10  1  0  0  0  0
  8 11  1  0  0  0  0
 11 12  1  0  0  0  0
 11 13  1  0  0  0  0
 11 14  1  0  0  0  0
 14 15  1  0  0  0  0
 14 16  1  0  0  0  0
 14 17  1  0  0  0  0
 17 18  1  0  0  0  0
 17 19  1  0  0  0  0
 17 20  1  0  0  0  0
 20 21  1  0  0  0  0
 20 22  1  0  0  0  0
 20 23  1  0  0  0  0
 23 24  1  0  0  0  0
 23 25  1  0  0  0  0
 23 26  1  0  0  0  0
 26 27  1  0  0  0  0
 26 28  1  0  0  0  0
 26 29  1  0  0  0  0
M  END
> <VM2 Rank>
438

> <Conf_Id>
957

> <Probability>
0.00

> <Sum Probability>
100.00

> <Delta G>
6.701

> <G>
64.849

> <E>
26.841

> <-TS>
38.009

> <U+W>
2.696

> <U>
55.223

> <W>
-52.527

> <W(PB)>
-54.946

> <W(SA)>
2.419

> <Valence>
8.119

> <Coulomb>
46.277

> <VdW>
0.827

> <VdW6>
-10.855

> <VdW12>
11.681

> <Bond>
0.330

> <Angle>
2.067

> <Pdih>
5.721

> <Idih>
0.000

> <Tether>
0.000

$$$$
VeraChem MOL file


 29 28  0  0  0  0  0  0  0  0999 V2000     
   21.4274   18.8211   21.6132 C   0  0  0  0  0  0  0  0  0  0  0  0
   21.4480   17.9080   21.0042 H   0  0  0  0  0  0  0  0  0  0  0  0
   22.3247   19.4050   21.3703 H   0  0  0  0  0  0  0  0  0  0  0  0
   21.4969   18.5281   22.6659 H   0  0  0  0  0  0  0  0  0  0  0  0
   20.1517   19.6453   21.3281 C   0  0  0  0  0  0  0  0  0  0  0  0
   20.1706   19.9621   20.2760 H   0  0  0  0  0  0  0  0  0  0  0  0
   20.1612   20.5704   21.9189 H   0  0  0  0  0  0  0  0  0  0  0  0
   18.8434   18.8537   21.5785 C   0  0  0  0  0  0  0  0  0  0  0  0
   17.9948   19.4410   21.2016 H   0  0  0  0  0  0  0  0  0  0  0  0
   18.8628   17.9359   20.9748 H   0  0  0  0  0  0  0  0  0  0  0  0
   18.5741   18.4764   23.0579 C   0  0  0  0  0  0  0  0  0  0  0  0
   19.3986   17.8652   23.4435 H   0  0  0  0  0  0  0  0  0  0  0  0
   17.6829   17.8348   23.0904 H   0  0  0  0  0  0  0  0  0  0  0  0
   18.3315   19.7071   23.9682 C   0  0  0  0  0  0  0  0  0  0  0  0
   19.2286   20.3333   24.0268 H   0  0  0  0  0  0  0  0  0  0  0  0
   17.5604   20.3387   23.5059 H   0  0  0  0  0  0  0  0  0  0  0  0
   17.8523   19.3350   25.3945 C   0  0  0  0  0  0  0  0  0  0  0  0
   16.8893   18.8122   25.3146 H   0  0  0  0  0  0  0  0  0  0  0  0
   17.6425   20.2607   25.9480 H   0  0  0  0  0  0  0  0  0  0  0  0
   18.8195   18.4595   26.2350 C   0  0  0  0  0  0  0  0  0  0  0  0
   18.3148   18.2204   27.1804 H   0  0  0  0  0  0  0  0  0  0  0  0
   19.0030   17.4944   25.7459 H   0  0  0  0  0  0  0  0  0  0  0  0
   20.1558   19.1464   26.5835 C   0  0  0  0  0  0  0  0  0  0  0  0
   20.5957   18.6539   27.4549 H   0  0  0  0  0  0  0  0  0  0  0  0
   19.9763   20.1938   26.8403 H   0  0  0  0  0  0  0  0  0  0  0  0
   21.1882   19.0934   25.4761 N   0  3  0  0  0  0  0  0  0  0  0  0
   21.4595   18.1282   25.2616 H   0  0  0  0  0  0  0  0  0  0  0  0
   22.0451   19.5967   25.7319 H   0  0  0  0  0  0  0  0  0  0  0  0
   20.8305   19.5115   24.6117 H   0  0  0  0  0  0  0  0  0  0  0  0
  1  2  1  0  0  0  0
  1  3  1  0  0  0  0
  1  4  1  0  0  0  0
  1  5  1  0  0  0  0
  5  6  1  0  0  0  0
  5  7  1  0  0  0  0
  5  8  1  0  0  0  0
  8  9  1  0  0  0  0
  8 10  1  0  0  0  0
  8 11  1  0  0  0  0
 11 12  1  0  0  0  0
 11 13  1  0  0  0  0
 11 14  1  0  0  0  0
 14 15  1  0  0  0  0
 14 16  1  0  0  0  0
 14 17  1  0  0  0  0
 17 18  1  0  0  0  0
 17 19  1  0  0  0  0
 17 20  1  0  0  0  0
 20 21  1  0  0  0  0
 20 22  1  0  0  0  0
 20 23  1  0  0  0  0
 23 24  1  0  0  0  0
 23 25  1  0  0  0  0
 23 26  1  0  0  0  0
 26 27  1  0  0  0  0
 26 28  1  0  0  0  0
 26 29  1  0  0  0  0
M  END
> <VM2 Rank>
439

> <Conf_Id>
1347

> <Probability>
0.00

> <Sum Probability>
100.00

> <Delta G>
6.731

> <G>
64.879

> <E>
26.524

> <-TS>
38.356

> <U+W>
2.379

> <U>
54.078

> <W>
-51.699

> <W(PB)>
-54.037

> <W(SA)>
2.338

> <Valence>
5.807

> <Coulomb>
48.135

> <VdW>
0.136

> <VdW6>
-11.657

> <VdW12>
11.793

> <Bond>
0.321

> <Angle>
2.065

> <Pdih>
3.422

> <Idih>
0.000

> <Tether>
0.000

$$$$
VeraChem MOL file


 29 28  0  0  0  0  0  0  0  0999 V2000     
   21.2074   19.3555   21.4862 C   0  0  0  0  0  0  0  0  0  0  0  0
   21.6352   18.4687   21.0011 H   0  0  0  0  0  0  0  0  0  0  0  0
   21.8641   20.2063   21.2633 H   0  0  0  0  0  0  0  0  0  0  0  0
   21.2328   19.1914   22.5685 H   0  0  0  0  0  0  0  0  0  0  0  0
   19.7752   19.6283   20.9701 C   0  0  0  0  0  0  0  0  0  0  0  0
   19.8376   19.7993   19.8863 H   0  0  0  0  0  0  0  0  0  0  0  0
   19.3791   20.5597   21.3963 H   0  0  0  0  0  0  0  0  0  0  0  0
   18.7926   18.4571   21.2242 C   0  0  0  0  0  0  0  0  0  0  0  0
   18.0794   18.4330   20.3887 H   0  0  0  0  0  0  0  0  0  0  0  0
   19.3269   17.4982   21.1796 H   0  0  0  0  0  0  0  0  0  0  0  0
   17.9614   18.5440   22.5330 C   0  0  0  0  0  0  0  0  0  0  0  0
   17.2313   17.7232   22.5084 H   0  0  0  0  0  0  0  0  0  0  0  0
   17.3636   19.4658   22.5399 H   0  0  0  0  0  0  0  0  0  0  0  0
   18.7697   18.4175   23.8492 C   0  0  0  0  0  0  0  0  0  0  0  0
   18.1620   17.8535   24.5695 H   0  0  0  0  0  0  0  0  0  0  0  0
   19.6720   17.8147   23.6807 H   0  0  0  0  0  0  0  0  0  0  0  0
   19.1302   19.7872   24.4794 C   0  0  0  0  0  0  0  0  0  0  0  0
   18.2084   20.3136   24.7632 H   0  0  0  0  0  0  0  0  0  0  0  0
   19.6269   20.4245   23.7385 H   0  0  0  0  0  0  0  0  0  0  0  0
   20.0503   19.6605   25.7160 C   0  0  0  0  0  0  0  0  0  0  0  0
   20.9865   19.1634   25.4292 H   0  0  0  0  0  0  0  0  0  0  0  0
   20.3216   20.6664   26.0630 H   0  0  0  0  0  0  0  0  0  0  0  0
   19.3887   18.8897   26.8735 C   0  0  0  0  0  0  0  0  0  0  0  0
   19.1531   17.8716   26.5532 H   0  0  0  0  0  0  0  0  0  0  0  0
   18.4574   19.3853   27.1607 H   0  0  0  0  0  0  0  0  0  0  0  0
   20.2685   18.7981   28.1033 N   0  3  0  0  0  0  0  0  0  0  0  0
   21.1522   18.3171   27.9056 H   0  0  0  0  0  0  0  0  0  0  0  0
   19.8100   18.2817   28.8621 H   0  0  0  0  0  0  0  0  0  0  0  0
   20.5051   19.7248   28.4732 H   0  0  0  0  0  0  0  0  0  0  0  0
  1  2  1  0  0  0  0
  1  3  1  0  0  0  0
  1  4  1  0  0  0  0
  1  5  1  0  0  0  0
  5  6  1  0  0  0  0
  5  7  1  0  0  0  0
  5  8  1  0  0  0  0
  8  9  1  0  0  0  0
  8 10  1  0  0  0  0
  8 11  1  0  0  0  0
 11 12  1  0  0  0  0
 11 13  1  0  0  0  0
 11 14  1  0  0  0  0
 14 15  1  0  0  0  0
 14 16  1  0  0  0  0
 14 17  1  0  0  0  0
 17 18  1  0  0  0  0
 17 19  1  0  0  0  0
 17 20  1  0  0  0  0
 20 21  1  0  0  0  0
 20 22  1  0  0  0  0
 20 23  1  0  0  0  0
 23 24  1  0  0  0  0
 23 25  1  0  0  0  0
 23 26  1  0  0  0  0
 26 27  1  0  0  0  0
 26 28  1  0  0  0  0
 26 29  1  0  0  0  0
M  END
> <VM2 Rank>
440

> <Conf_Id>
614

> <Probability>
0.00

> <Sum Probability>
100.00

> <Delta G>
6.736

> <G>
64.884

> <E>
26.689

> <-TS>
38.195

> <U+W>
2.544

> <U>
54.575

> <W>
-52.031

> <W(PB)>
-54.446

> <W(SA)>
2.415

> <Valence>
8.495

> <Coulomb>
45.440

> <VdW>
0.639

> <VdW6>
-10.456

> <VdW12>
11.095

> <Bond>
0.307

> <Angle>
2.041

> <Pdih>
6.147

> <Idih>
0.000

> <Tether>
0.000

$$$$
VeraChem MOL file


 29 28  0  0  0  0  0  0  0  0999 V2000     
   19.9674   17.9650   19.8152 C   0  0  0  0  0  0  0  0  0  0  0  0
   20.3987   18.8386   19.3092 H   0  0  0  0  0  0  0  0  0  0  0  0
   20.7907   17.3080   20.1248 H   0  0  0  0  0  0  0  0  0  0  0  0
   19.3574   17.4191   19.0838 H   0  0  0  0  0  0  0  0  0  0  0  0
   19.1126   18.3920   21.0270 C   0  0  0  0  0  0  0  0  0  0  0  0
   18.6678   17.5007   21.4913 H   0  0  0  0  0  0  0  0  0  0  0  0
   18.2787   19.0194   20.6820 H   0  0  0  0  0  0  0  0  0  0  0  0
   19.9480   19.1639   22.0720 C   0  0  0  0  0  0  0  0  0  0  0  0
   20.7837   18.5350   22.4082 H   0  0  0  0  0  0  0  0  0  0  0  0
   20.3902   20.0536   21.6025 H   0  0  0  0  0  0  0  0  0  0  0  0
   19.0953   19.5923   23.2873 C   0  0  0  0  0  0  0  0  0  0  0  0
   18.6278   18.7092   23.7380 H   0  0  0  0  0  0  0  0  0  0  0  0
   18.2695   20.2310   22.9443 H   0  0  0  0  0  0  0  0  0  0  0  0
   19.9329   20.3683   24.3334 C   0  0  0  0  0  0  0  0  0  0  0  0
   20.8581   19.8302   24.5791 H   0  0  0  0  0  0  0  0  0  0  0  0
   20.2533   21.3143   23.8751 H   0  0  0  0  0  0  0  0  0  0  0  0
   19.1432   20.6913   25.6275 C   0  0  0  0  0  0  0  0  0  0  0  0
   18.0716   20.7859   25.4035 H   0  0  0  0  0  0  0  0  0  0  0  0
   19.4583   21.6833   25.9795 H   0  0  0  0  0  0  0  0  0  0  0  0
   19.3534   19.6951   26.7993 C   0  0  0  0  0  0  0  0  0  0  0  0
   20.4060   19.6960   27.1120 H   0  0  0  0  0  0  0  0  0  0  0  0
   18.7852   20.0679   27.6619 H   0  0  0  0  0  0  0  0  0  0  0  0
   18.8928   18.2494   26.5241 C   0  0  0  0  0  0  0  0  0  0  0  0
   17.9484   18.2586   25.9736 H   0  0  0  0  0  0  0  0  0  0  0  0
   18.7260   17.7399   27.4771 H   0  0  0  0  0  0  0  0  0  0  0  0
   19.8984   17.4207   25.7491 N   0  3  0  0  0  0  0  0  0  0  0  0
   19.5553   16.4694   25.5757 H   0  0  0  0  0  0  0  0  0  0  0  0
   20.7859   17.3322   26.2552 H   0  0  0  0  0  0  0  0  0  0  0  0
   20.1055   17.8451   24.8390 H   0  0  0  0  0  0  0  0  0  0  0  0
  1  2  1  0  0  0  0
  1  3  1  0  0  0  0
  1  4  1  0  0  0  0
  1  5  1  0  0  0  0
  5  6  1  0  0  0  0
  5  7  1  0  0  0  0
  5  8  1  0  0  0  0
  8  9  1  0  0  0  0
  8 10  1  0  0  0  0
  8 11  1  0  0  0  0
 11 12  1  0  0  0  0
 11 13  1  0  0  0  0
 11 14  1  0  0  0  0
 14 15  1  0  0  0  0
 14 16  1  0  0  0  0
 14 17  1  0  0  0  0
 17 18  1  0  0  0  0
 17 19  1  0  0  0  0
 17 20  1  0  0  0  0
 20 21  1  0  0  0  0
 20 22  1  0  0  0  0
 20 23  1  0  0  0  0
 23 24  1  0  0  0  0
 23 25  1  0  0  0  0
 23 26  1  0  0  0  0
 26 27  1  0  0  0  0
 26 28  1  0  0  0  0
 26 29  1  0  0  0  0
M  END
> <VM2 Rank>
441

> <Conf_Id>
2252

> <Probability>
0.00

> <Sum Probability>
100.00

> <Delta G>
6.755

> <G>
64.903

> <E>
26.927

> <-TS>
37.976

> <U+W>
2.782

> <U>
54.340

> <W>
-51.558

> <W(PB)>
-54.002

> <W(SA)>
2.445

> <Valence>
6.615

> <Coulomb>
47.220

> <VdW>
0.505

> <VdW6>
-10.122

> <VdW12>
10.627

> <Bond>
0.248

> <Angle>
1.458

> <Pdih>
4.909

> <Idih>
0.000

> <Tether>
0.000

$$$$
VeraChem MOL file


 29 28  0  0  0  0  0  0  0  0999 V2000     
   21.2191   18.2827   21.4527 C   0  0  0  0  0  0  0  0  0  0  0  0
   21.9462   19.0674   21.2068 H   0  0  0  0  0  0  0  0  0  0  0  0
   21.2127   18.1570   22.5405 H   0  0  0  0  0  0  0  0  0  0  0  0
   21.5809   17.3444   21.0126 H   0  0  0  0  0  0  0  0  0  0  0  0
   19.8190   18.6344   20.8979 C   0  0  0  0  0  0  0  0  0  0  0  0
   19.1130   17.8157   21.0950 H   0  0  0  0  0  0  0  0  0  0  0  0
   19.8980   18.7083   19.8043 H   0  0  0  0  0  0  0  0  0  0  0  0
   19.2576   19.9731   21.4426 C   0  0  0  0  0  0  0  0  0  0  0  0
   20.0796   20.6660   21.6690 H   0  0  0  0  0  0  0  0  0  0  0  0
   18.6801   20.4524   20.6400 H   0  0  0  0  0  0  0  0  0  0  0  0
   18.3212   19.8362   22.6709 C   0  0  0  0  0  0  0  0  0  0  0  0
   17.4487   19.2267   22.3978 H   0  0  0  0  0  0  0  0  0  0  0  0
   17.9322   20.8334   22.9190 H   0  0  0  0  0  0  0  0  0  0  0  0
   18.9975   19.2346   23.9240 C   0  0  0  0  0  0  0  0  0  0  0  0
   19.2647   18.1880   23.7293 H   0  0  0  0  0  0  0  0  0  0  0  0
   19.9231   19.7877   24.1246 H   0  0  0  0  0  0  0  0  0  0  0  0
   18.0697   19.2978   25.1602 C   0  0  0  0  0  0  0  0  0  0  0  0
   17.0902   18.8791   24.8906 H   0  0  0  0  0  0  0  0  0  0  0  0
   17.8902   20.3474   25.4313 H   0  0  0  0  0  0  0  0  0  0  0  0
   18.5984   18.5287   26.3979 C   0  0  0  0  0  0  0  0  0  0  0  0
   17.8244   18.5707   27.1757 H   0  0  0  0  0  0  0  0  0  0  0  0
   18.7289   17.4647   26.1599 H   0  0  0  0  0  0  0  0  0  0  0  0
   19.8994   19.0993   26.9993 C   0  0  0  0  0  0  0  0  0  0  0  0
   19.9850   18.7706   28.0386 H   0  0  0  0  0  0  0  0  0  0  0  0
   19.8644   20.1920   26.9910 H   0  0  0  0  0  0  0  0  0  0  0  0
   21.1621   18.6513   26.2895 N   0  3  0  0  0  0  0  0  0  0  0  0
   21.2695   17.6319   26.3156 H   0  0  0  0  0  0  0  0  0  0  0  0
   22.0025   19.0518   26.7210 H   0  0  0  0  0  0  0  0  0  0  0  0
   21.1630   18.9322   25.3051 H   0  0  0  0  0  0  0  0  0  0  0  0
  1  2  1  0  0  0  0
  1  3  1  0  0  0  0
  1  4  1  0  0  0  0
  1  5  1  0  0  0  0
  5  6  1  0  0  0  0
  5  7  1  0  0  0  0
  5  8  1  0  0  0  0
  8  9  1  0  0  0  0
  8 10  1  0  0  0  0
  8 11  1  0  0  0  0
 11 12  1  0  0  0  0
 11 13  1  0  0  0  0
 11 14  1  0  0  0  0
 14 15  1  0  0  0  0
 14 16  1  0  0  0  0
 14 17  1  0  0  0  0
 17 18  1  0  0  0  0
 17 19  1  0  0  0  0
 17 20  1  0  0  0  0
 20 21  1  0  0  0  0
 20 22  1  0  0  0  0
 20 23  1  0  0  0  0
 23 24  1  0  0  0  0
 23 25  1  0  0  0  0
 23 26  1  0  0  0  0
 26 27  1  0  0  0  0
 26 28  1  0  0  0  0
 26 29  1  0  0  0  0
M  END
> <VM2 Rank>
442

> <Conf_Id>
1592

> <Probability>
0.00

> <Sum Probability>
100.00

> <Delta G>
6.781

> <G>
64.929

> <E>
27.253

> <-TS>
37.676

> <U+W>
3.109

> <U>
55.183

> <W>
-52.075

> <W(PB)>
-54.499

> <W(SA)>
2.425

> <Valence>
7.142

> <Coulomb>
47.365

> <VdW>
0.676

> <VdW6>
-10.168

> <VdW12>
10.844

> <Bond>
0.287

> <Angle>
1.759

> <Pdih>
5.096

> <Idih>
0.000

> <Tether>
0.000

$$$$
VeraChem MOL file


 29 28  0  0  0  0  0  0  0  0999 V2000     
   20.4319   17.5100   22.0876 C   0  0  0  0  0  0  0  0  0  0  0  0
   20.1819   16.4427   22.0318 H   0  0  0  0  0  0  0  0  0  0  0  0
   21.4461   17.6361   21.6872 H   0  0  0  0  0  0  0  0  0  0  0  0
   20.4517   17.7929   23.1449 H   0  0  0  0  0  0  0  0  0  0  0  0
   19.4137   18.3479   21.2797 C   0  0  0  0  0  0  0  0  0  0  0  0
   18.3885   18.1474   21.6186 H   0  0  0  0  0  0  0  0  0  0  0  0
   19.4541   18.0082   20.2353 H   0  0  0  0  0  0  0  0  0  0  0  0
   19.7058   19.8692   21.3126 C   0  0  0  0  0  0  0  0  0  0  0  0
   20.7862   20.0457   21.4062 H   0  0  0  0  0  0  0  0  0  0  0  0
   19.4258   20.2849   20.3348 H   0  0  0  0  0  0  0  0  0  0  0  0
   18.9382   20.6798   22.3921 C   0  0  0  0  0  0  0  0  0  0  0  0
   17.8550   20.5778   22.2399 H   0  0  0  0  0  0  0  0  0  0  0  0
   19.1583   21.7420   22.2171 H   0  0  0  0  0  0  0  0  0  0  0  0
   19.3080   20.3572   23.8624 C   0  0  0  0  0  0  0  0  0  0  0  0
   20.3530   20.0272   23.9186 H   0  0  0  0  0  0  0  0  0  0  0  0
   19.2560   21.2886   24.4430 H   0  0  0  0  0  0  0  0  0  0  0  0
   18.3541   19.3292   24.5239 C   0  0  0  0  0  0  0  0  0  0  0  0
   18.3506   18.3866   23.9642 H   0  0  0  0  0  0  0  0  0  0  0  0
   17.3264   19.7148   24.4771 H   0  0  0  0  0  0  0  0  0  0  0  0
   18.7054   19.0429   26.0025 C   0  0  0  0  0  0  0  0  0  0  0  0
   18.6874   19.9799   26.5749 H   0  0  0  0  0  0  0  0  0  0  0  0
   17.9302   18.3957   26.4339 H   0  0  0  0  0  0  0  0  0  0  0  0
   20.0768   18.3614   26.1659 C   0  0  0  0  0  0  0  0  0  0  0  0
   20.8634   19.0132   25.7773 H   0  0  0  0  0  0  0  0  0  0  0  0
   20.0924   17.4261   25.5999 H   0  0  0  0  0  0  0  0  0  0  0  0
   20.4101   18.0404   27.6083 N   0  3  0  0  0  0  0  0  0  0  0  0
   20.4368   18.8840   28.1906 H   0  0  0  0  0  0  0  0  0  0  0  0
   21.3264   17.5872   27.6961 H   0  0  0  0  0  0  0  0  0  0  0  0
   19.7217   17.4063   28.0272 H   0  0  0  0  0  0  0  0  0  0  0  0
  1  2  1  0  0  0  0
  1  3  1  0  0  0  0
  1  4  1  0  0  0  0
  1  5  1  0  0  0  0
  5  6  1  0  0  0  0
  5  7  1  0  0  0  0
  5  8  1  0  0  0  0
  8  9  1  0  0  0  0
  8 10  1  0  0  0  0
  8 11  1  0  0  0  0
 11 12  1  0  0  0  0
 11 13  1  0  0  0  0
 11 14  1  0  0  0  0
 14 15  1  0  0  0  0
 14 16  1  0  0  0  0
 14 17  1  0  0  0  0
 17 18  1  0  0  0  0
 17 19  1  0  0  0  0
 17 20  1  0  0  0  0
 20 21  1  0  0  0  0
 20 22  1  0  0  0  0
 20 23  1  0  0  0  0
 23 24  1  0  0  0  0
 23 25  1  0  0  0  0
 23 26  1  0  0  0  0
 26 27  1  0  0  0  0
 26 28  1  0  0  0  0
 26 29  1  0  0  0  0
M  END
> <VM2 Rank>
443

> <Conf_Id>
2246

> <Probability>
0.00

> <Sum Probability>
100.00

> <Delta G>
6.804

> <G>
64.952

> <E>
26.642

> <-TS>
38.310

> <U+W>
2.497

> <U>
54.905

> <W>
-52.407

> <W(PB)>
-54.812

> <W(SA)>
2.405

> <Valence>
8.488

> <Coulomb>
45.987

> <VdW>
0.429

> <VdW6>
-10.773

> <VdW12>
11.202

> <Bond>
0.308

> <Angle>
2.070

> <Pdih>
6.110

> <Idih>
0.000

> <Tether>
0.000

$$$$
VeraChem MOL file


 29 28  0  0  0  0  0  0  0  0999 V2000     
   18.9086   19.5492   19.7368 C   0  0  0  0  0  0  0  0  0  0  0  0
   18.8808   20.6306   19.9243 H   0  0  0  0  0  0  0  0  0  0  0  0
   19.8690   19.3089   19.2624 H   0  0  0  0  0  0  0  0  0  0  0  0
   18.1104   19.3104   19.0220 H   0  0  0  0  0  0  0  0  0  0  0  0
   18.7229   18.7543   21.0465 C   0  0  0  0  0  0  0  0  0  0  0  0
   18.7206   17.6783   20.8225 H   0  0  0  0  0  0  0  0  0  0  0  0
   17.7408   18.9902   21.4799 H   0  0  0  0  0  0  0  0  0  0  0  0
   19.8346   19.0719   22.0709 C   0  0  0  0  0  0  0  0  0  0  0  0
   20.8134   18.8353   21.6313 H   0  0  0  0  0  0  0  0  0  0  0  0
   19.8343   20.1494   22.2797 H   0  0  0  0  0  0  0  0  0  0  0  0
   19.6505   18.2730   23.3838 C   0  0  0  0  0  0  0  0  0  0  0  0
   19.6394   17.2009   23.1430 H   0  0  0  0  0  0  0  0  0  0  0  0
   18.6694   18.5069   23.8139 H   0  0  0  0  0  0  0  0  0  0  0  0
   20.7778   18.5363   24.4164 C   0  0  0  0  0  0  0  0  0  0  0  0
   20.7956   17.7374   25.1695 H   0  0  0  0  0  0  0  0  0  0  0  0
   21.7437   18.4623   23.8978 H   0  0  0  0  0  0  0  0  0  0  0  0
   20.6928   19.9164   25.1219 C   0  0  0  0  0  0  0  0  0  0  0  0
   20.2145   20.6578   24.4694 H   0  0  0  0  0  0  0  0  0  0  0  0
   21.7178   20.2809   25.2766 H   0  0  0  0  0  0  0  0  0  0  0  0
   19.9894   19.9113   26.5052 C   0  0  0  0  0  0  0  0  0  0  0  0
   20.5363   19.2675   27.2069 H   0  0  0  0  0  0  0  0  0  0  0  0
   20.0552   20.9267   26.9180 H   0  0  0  0  0  0  0  0  0  0  0  0
   18.5005   19.5117   26.4797 C   0  0  0  0  0  0  0  0  0  0  0  0
   18.0143   19.9457   25.6020 H   0  0  0  0  0  0  0  0  0  0  0  0
   18.0085   19.9080   27.3721 H   0  0  0  0  0  0  0  0  0  0  0  0
   18.2668   18.0140   26.4737 N   0  3  0  0  0  0  0  0  0  0  0  0
   18.7104   17.5713   25.6628 H   0  0  0  0  0  0  0  0  0  0  0  0
   17.2674   17.7841   26.4424 H   0  0  0  0  0  0  0  0  0  0  0  0
   18.6510   17.5677   27.3132 H   0  0  0  0  0  0  0  0  0  0  0  0
  1  2  1  0  0  0  0
  1  3  1  0  0  0  0
  1  4  1  0  0  0  0
  1  5  1  0  0  0  0
  5  6  1  0  0  0  0
  5  7  1  0  0  0  0
  5  8  1  0  0  0  0
  8  9  1  0  0  0  0
  8 10  1  0  0  0  0
  8 11  1  0  0  0  0
 11 12  1  0  0  0  0
 11 13  1  0  0  0  0
 11 14  1  0  0  0  0
 14 15  1  0  0  0  0
 14 16  1  0  0  0  0
 14 17  1  0  0  0  0
 17 18  1  0  0  0  0
 17 19  1  0  0  0  0
 17 20  1  0  0  0  0
 20 21  1  0  0  0  0
 20 22  1  0  0  0  0
 20 23  1  0  0  0  0
 23 24  1  0  0  0  0
 23 25  1  0  0  0  0
 23 26  1  0  0  0  0
 26 27  1  0  0  0  0
 26 28  1  0  0  0  0
 26 29  1  0  0  0  0
M  END
> <VM2 Rank>
444

> <Conf_Id>
1989

> <Probability>
0.00

> <Sum Probability>
100.00

> <Delta G>
6.847

> <G>
64.995

> <E>
26.997

> <-TS>
37.998

> <U+W>
2.853

> <U>
55.101

> <W>
-52.248

> <W(PB)>
-54.682

> <W(SA)>
2.434

> <Valence>
7.379

> <Coulomb>
47.020

> <VdW>
0.702

> <VdW6>
-10.390

> <VdW12>
11.091

> <Bond>
0.297

> <Angle>
1.605

> <Pdih>
5.476

> <Idih>
0.000

> <Tether>
0.000

$$$$
VeraChem MOL file


 29 28  0  0  0  0  0  0  0  0999 V2000     
   20.8968   20.1251   20.7566 C   0  0  0  0  0  0  0  0  0  0  0  0
   20.2550   20.0947   19.8664 H   0  0  0  0  0  0  0  0  0  0  0  0
   21.2718   21.1509   20.8670 H   0  0  0  0  0  0  0  0  0  0  0  0
   21.7590   19.4690   20.5794 H   0  0  0  0  0  0  0  0  0  0  0  0
   20.1179   19.6914   22.0164 C   0  0  0  0  0  0  0  0  0  0  0  0
   19.2928   20.3962   22.1746 H   0  0  0  0  0  0  0  0  0  0  0  0
   20.7784   19.7549   22.8914 H   0  0  0  0  0  0  0  0  0  0  0  0
   19.5618   18.2567   21.8756 C   0  0  0  0  0  0  0  0  0  0  0  0
   18.7957   18.2400   21.0884 H   0  0  0  0  0  0  0  0  0  0  0  0
   20.3692   17.5983   21.5264 H   0  0  0  0  0  0  0  0  0  0  0  0
   18.9787   17.6456   23.1767 C   0  0  0  0  0  0  0  0  0  0  0  0
   19.7598   17.5434   23.9371 H   0  0  0  0  0  0  0  0  0  0  0  0
   18.6862   16.6139   22.9371 H   0  0  0  0  0  0  0  0  0  0  0  0
   17.7239   18.3576   23.7519 C   0  0  0  0  0  0  0  0  0  0  0  0
   17.0792   18.6794   22.9227 H   0  0  0  0  0  0  0  0  0  0  0  0
   17.1361   17.6102   24.3026 H   0  0  0  0  0  0  0  0  0  0  0  0
   17.9646   19.5578   24.7101 C   0  0  0  0  0  0  0  0  0  0  0  0
   16.9762   19.9236   25.0208 H   0  0  0  0  0  0  0  0  0  0  0  0
   18.4279   20.4025   24.1888 H   0  0  0  0  0  0  0  0  0  0  0  0
   18.7671   19.2197   25.9921 C   0  0  0  0  0  0  0  0  0  0  0  0
   18.3838   19.8346   26.8173 H   0  0  0  0  0  0  0  0  0  0  0  0
   18.5985   18.1741   26.2820 H   0  0  0  0  0  0  0  0  0  0  0  0
   20.2753   19.5015   25.8492 C   0  0  0  0  0  0  0  0  0  0  0  0
   20.4291   20.5587   25.6170 H   0  0  0  0  0  0  0  0  0  0  0  0
   20.6967   18.9096   25.0348 H   0  0  0  0  0  0  0  0  0  0  0  0
   21.0578   19.1826   27.1064 N   0  3  0  0  0  0  0  0  0  0  0  0
   20.9764   18.1941   27.3663 H   0  0  0  0  0  0  0  0  0  0  0  0
   20.7324   19.7330   27.9080 H   0  0  0  0  0  0  0  0  0  0  0  0
   22.0580   19.3812   26.9938 H   0  0  0  0  0  0  0  0  0  0  0  0
  1  2  1  0  0  0  0
  1  3  1  0  0  0  0
  1  4  1  0  0  0  0
  1  5  1  0  0  0  0
  5  6  1  0  0  0  0
  5  7  1  0  0  0  0
  5  8  1  0  0  0  0
  8  9  1  0  0  0  0
  8 10  1  0  0  0  0
  8 11  1  0  0  0  0
 11 12  1  0  0  0  0
 11 13  1  0  0  0  0
 11 14  1  0  0  0  0
 14 15  1  0  0  0  0
 14 16  1  0  0  0  0
 14 17  1  0  0  0  0
 17 18  1  0  0  0  0
 17 19  1  0  0  0  0
 17 20  1  0  0  0  0
 20 21  1  0  0  0  0
 20 22  1  0  0  0  0
 20 23  1  0  0  0  0
 23 24  1  0  0  0  0
 23 25  1  0  0  0  0
 23 26  1  0  0  0  0
 26 27  1  0  0  0  0
 26 28  1  0  0  0  0
 26 29  1  0  0  0  0
M  END
> <VM2 Rank>
445

> <Conf_Id>
1652

> <Probability>
0.00

> <Sum Probability>
100.00

> <Delta G>
6.918

> <G>
65.066

> <E>
27.115

> <-TS>
37.951

> <U+W>
2.971

> <U>
55.710

> <W>
-52.739

> <W(PB)>
-55.149

> <W(SA)>
2.410

> <Valence>
8.730

> <Coulomb>
46.536

> <VdW>
0.444

> <VdW6>
-10.614

> <VdW12>
11.058

> <Bond>
0.338

> <Angle>
2.906

> <Pdih>
5.486

> <Idih>
0.000

> <Tether>
0.000

$$$$
VeraChem MOL file


 29 28  0  0  0  0  0  0  0  0999 V2000     
   21.4072   19.3715   21.5490 C   0  0  0  0  0  0  0  0  0  0  0  0
   21.4434   19.1402   22.6187 H   0  0  0  0  0  0  0  0  0  0  0  0
   21.7661   18.4901   21.0017 H   0  0  0  0  0  0  0  0  0  0  0  0
   22.1132   20.1905   21.3602 H   0  0  0  0  0  0  0  0  0  0  0  0
   19.9852   19.7653   21.0856 C   0  0  0  0  0  0  0  0  0  0  0  0
   20.0298   19.9903   20.0108 H   0  0  0  0  0  0  0  0  0  0  0  0
   19.6669   20.6958   21.5758 H   0  0  0  0  0  0  0  0  0  0  0  0
   18.9340   18.6487   21.3138 C   0  0  0  0  0  0  0  0  0  0  0  0
   18.2240   18.6707   20.4755 H   0  0  0  0  0  0  0  0  0  0  0  0
   19.4130   17.6610   21.2694 H   0  0  0  0  0  0  0  0  0  0  0  0
   18.1138   18.7844   22.6227 C   0  0  0  0  0  0  0  0  0  0  0  0
   17.3665   17.9793   22.6436 H   0  0  0  0  0  0  0  0  0  0  0  0
   17.5483   19.7262   22.6025 H   0  0  0  0  0  0  0  0  0  0  0  0
   18.9609   18.7221   23.9147 C   0  0  0  0  0  0  0  0  0  0  0  0
   19.5927   17.8235   23.8959 H   0  0  0  0  0  0  0  0  0  0  0  0
   19.6202   19.5965   23.9452 H   0  0  0  0  0  0  0  0  0  0  0  0
   18.0733   18.7088   25.1816 C   0  0  0  0  0  0  0  0  0  0  0  0
   17.3181   17.9173   25.0793 H   0  0  0  0  0  0  0  0  0  0  0  0
   17.5182   19.6546   25.2504 H   0  0  0  0  0  0  0  0  0  0  0  0
   18.8465   18.4667   26.5032 C   0  0  0  0  0  0  0  0  0  0  0  0
   18.1098   18.3879   27.3137 H   0  0  0  0  0  0  0  0  0  0  0  0
   19.3642   17.4988   26.4716 H   0  0  0  0  0  0  0  0  0  0  0  0
   19.8396   19.5858   26.8795 C   0  0  0  0  0  0  0  0  0  0  0  0
   20.0333   19.5426   27.9547 H   0  0  0  0  0  0  0  0  0  0  0  0
   19.4026   20.5619   26.6525 H   0  0  0  0  0  0  0  0  0  0  0  0
   21.1836   19.4848   26.1849 N   0  3  0  0  0  0  0  0  0  0  0  0
   21.6605   18.6054   26.4101 H   0  0  0  0  0  0  0  0  0  0  0  0
   21.8127   20.2460   26.4634 H   0  0  0  0  0  0  0  0  0  0  0  0
   21.0874   19.5267   25.1667 H   0  0  0  0  0  0  0  0  0  0  0  0
  1  2  1  0  0  0  0
  1  3  1  0  0  0  0
  1  4  1  0  0  0  0
  1  5  1  0  0  0  0
  5  6  1  0  0  0  0
  5  7  1  0  0  0  0
  5  8  1  0  0  0  0
  8  9  1  0  0  0  0
  8 10  1  0  0  0  0
  8 11  1  0  0  0  0
 11 12  1  0  0  0  0
 11 13  1  0  0  0  0
 11 14  1  0  0  0  0
 14 15  1  0  0  0  0
 14 16  1  0  0  0  0
 14 17  1  0  0  0  0
 17 18  1  0  0  0  0
 17 19  1  0  0  0  0
 17 20  1  0  0  0  0
 20 21  1  0  0  0  0
 20 22  1  0  0  0  0
 20 23  1  0  0  0  0
 23 24  1  0  0  0  0
 23 25  1  0  0  0  0
 23 26  1  0  0  0  0
 26 27  1  0  0  0  0
 26 28  1  0  0  0  0
 26 29  1  0  0  0  0
M  END
> <VM2 Rank>
446

> <Conf_Id>
672

> <Probability>
0.00

> <Sum Probability>
100.00

> <Delta G>
6.972

> <G>
65.120

> <E>
27.478

> <-TS>
37.642

> <U+W>
3.334

> <U>
55.356

> <W>
-52.023

> <W(PB)>
-54.422

> <W(SA)>
2.399

> <Valence>
7.162

> <Coulomb>
47.546

> <VdW>
0.649

> <VdW6>
-10.234

> <VdW12>
10.883

> <Bond>
0.291

> <Angle>
1.731

> <Pdih>
5.140

> <Idih>
0.000

> <Tether>
0.000

$$$$
VeraChem MOL file


 29 28  0  0  0  0  0  0  0  0999 V2000     
   21.2908   19.2034   21.6047 C   0  0  0  0  0  0  0  0  0  0  0  0
   21.3755   20.0207   22.3326 H   0  0  0  0  0  0  0  0  0  0  0  0
   21.3519   18.2481   22.1397 H   0  0  0  0  0  0  0  0  0  0  0  0
   22.1585   19.2584   20.9346 H   0  0  0  0  0  0  0  0  0  0  0  0
   19.9790   19.3094   20.7972 C   0  0  0  0  0  0  0  0  0  0  0  0
   19.8831   18.4335   20.1404 H   0  0  0  0  0  0  0  0  0  0  0  0
   20.0457   20.1818   20.1322 H   0  0  0  0  0  0  0  0  0  0  0  0
   18.7027   19.4522   21.6651 C   0  0  0  0  0  0  0  0  0  0  0  0
   18.7472   20.3842   22.2415 H   0  0  0  0  0  0  0  0  0  0  0  0
   17.8528   19.5734   20.9794 H   0  0  0  0  0  0  0  0  0  0  0  0
   18.4027   18.2389   22.5874 C   0  0  0  0  0  0  0  0  0  0  0  0
   18.7776   17.3209   22.1145 H   0  0  0  0  0  0  0  0  0  0  0  0
   17.3138   18.1086   22.6554 H   0  0  0  0  0  0  0  0  0  0  0  0
   18.9689   18.3471   24.0277 C   0  0  0  0  0  0  0  0  0  0  0  0
   18.8321   17.3764   24.5237 H   0  0  0  0  0  0  0  0  0  0  0  0
   20.0465   18.5316   23.9886 H   0  0  0  0  0  0  0  0  0  0  0  0
   18.2790   19.4445   24.8770 C   0  0  0  0  0  0  0  0  0  0  0  0
   17.1902   19.3493   24.7652 H   0  0  0  0  0  0  0  0  0  0  0  0
   18.5412   20.4388   24.4930 H   0  0  0  0  0  0  0  0  0  0  0  0
   18.6148   19.3850   26.3890 C   0  0  0  0  0  0  0  0  0  0  0  0
   18.0015   20.1393   26.8996 H   0  0  0  0  0  0  0  0  0  0  0  0
   18.3143   18.4166   26.8107 H   0  0  0  0  0  0  0  0  0  0  0  0
   20.0920   19.6745   26.7272 C   0  0  0  0  0  0  0  0  0  0  0  0
   20.1630   19.9876   27.7724 H   0  0  0  0  0  0  0  0  0  0  0  0
   20.4624   20.4917   26.1024 H   0  0  0  0  0  0  0  0  0  0  0  0
   21.0142   18.4829   26.5598 N   0  3  0  0  0  0  0  0  0  0  0  0
   21.0095   18.1322   25.5979 H   0  0  0  0  0  0  0  0  0  0  0  0
   20.7408   17.7043   27.1683 H   0  0  0  0  0  0  0  0  0  0  0  0
   21.9852   18.7183   26.7931 H   0  0  0  0  0  0  0  0  0  0  0  0
  1  2  1  0  0  0  0
  1  3  1  0  0  0  0
  1  4  1  0  0  0  0
  1  5  1  0  0  0  0
  5  6  1  0  0  0  0
  5  7  1  0  0  0  0
  5  8  1  0  0  0  0
  8  9  1  0  0  0  0
  8 10  1  0  0  0  0
  8 11  1  0  0  0  0
 11 12  1  0  0  0  0
 11 13  1  0  0  0  0
 11 14  1  0  0  0  0
 14 15  1  0  0  0  0
 14 16  1  0  0  0  0
 14 17  1  0  0  0  0
 17 18  1  0  0  0  0
 17 19  1  0  0  0  0
 17 20  1  0  0  0  0
 20 21  1  0  0  0  0
 20 22  1  0  0  0  0
 20 23  1  0  0  0  0
 23 24  1  0  0  0  0
 23 25  1  0  0  0  0
 23 26  1  0  0  0  0
 26 27  1  0  0  0  0
 26 28  1  0  0  0  0
 26 29  1  0  0  0  0
M  END
> <VM2 Rank>
447

> <Conf_Id>
2255

> <Probability>
0.00

> <Sum Probability>
100.00

> <Delta G>
6.994

> <G>
65.142

> <E>
27.494

> <-TS>
37.648

> <U+W>
3.349

> <U>
55.770

> <W>
-52.421

> <W(PB)>
-54.802

> <W(SA)>
2.381

> <Valence>
7.801

> <Coulomb>
47.165

> <VdW>
0.805

> <VdW6>
-10.759

> <VdW12>
11.563

> <Bond>
0.351

> <Angle>
2.050

> <Pdih>
5.400

> <Idih>
0.000

> <Tether>
0.000

$$$$
VeraChem MOL file


 29 28  0  0  0  0  0  0  0  0999 V2000     
   20.8108   17.6966   21.5115 C   0  0  0  0  0  0  0  0  0  0  0  0
   21.6532   18.1739   20.9942 H   0  0  0  0  0  0  0  0  0  0  0  0
   20.9702   17.8106   22.5888 H   0  0  0  0  0  0  0  0  0  0  0  0
   20.8434   16.6239   21.2808 H   0  0  0  0  0  0  0  0  0  0  0  0
   19.4662   18.3079   21.0532 C   0  0  0  0  0  0  0  0  0  0  0  0
   18.6249   17.7691   21.5109 H   0  0  0  0  0  0  0  0  0  0  0  0
   19.3735   18.1479   19.9699 H   0  0  0  0  0  0  0  0  0  0  0  0
   19.3533   19.8274   21.3400 C   0  0  0  0  0  0  0  0  0  0  0  0
   20.3491   20.2915   21.3275 H   0  0  0  0  0  0  0  0  0  0  0  0
   18.8006   20.2918   20.5116 H   0  0  0  0  0  0  0  0  0  0  0  0
   18.6138   20.1888   22.6541 C   0  0  0  0  0  0  0  0  0  0  0  0
   17.5808   19.8177   22.6049 H   0  0  0  0  0  0  0  0  0  0  0  0
   18.5429   21.2834   22.7173 H   0  0  0  0  0  0  0  0  0  0  0  0
   19.2919   19.6509   23.9353 C   0  0  0  0  0  0  0  0  0  0  0  0
   19.2498   18.5563   23.9221 H   0  0  0  0  0  0  0  0  0  0  0  0
   20.3496   19.9480   23.9428 H   0  0  0  0  0  0  0  0  0  0  0  0
   18.5949   20.1721   25.2143 C   0  0  0  0  0  0  0  0  0  0  0  0
   17.5661   19.7882   25.2537 H   0  0  0  0  0  0  0  0  0  0  0  0
   18.5114   21.2660   25.1540 H   0  0  0  0  0  0  0  0  0  0  0  0
   19.3287   19.8186   26.5332 C   0  0  0  0  0  0  0  0  0  0  0  0
   20.3422   20.2414   26.5322 H   0  0  0  0  0  0  0  0  0  0  0  0
   18.7968   20.3135   27.3566 H   0  0  0  0  0  0  0  0  0  0  0  0
   19.3851   18.3100   26.8513 C   0  0  0  0  0  0  0  0  0  0  0  0
   18.4324   17.8401   26.5927 H   0  0  0  0  0  0  0  0  0  0  0  0
   19.5477   18.1788   27.9245 H   0  0  0  0  0  0  0  0  0  0  0  0
   20.4994   17.5655   26.1422 N   0  3  0  0  0  0  0  0  0  0  0  0
   21.4218   17.9355   26.3947 H   0  0  0  0  0  0  0  0  0  0  0  0
   20.4123   17.6338   25.1246 H   0  0  0  0  0  0  0  0  0  0  0  0
   20.5015   16.5678   26.3818 H   0  0  0  0  0  0  0  0  0  0  0  0
  1  2  1  0  0  0  0
  1  3  1  0  0  0  0
  1  4  1  0  0  0  0
  1  5  1  0  0  0  0
  5  6  1  0  0  0  0
  5  7  1  0  0  0  0
  5  8  1  0  0  0  0
  8  9  1  0  0  0  0
  8 10  1  0  0  0  0
  8 11  1  0  0  0  0
 11 12  1  0  0  0  0
 11 13  1  0  0  0  0
 11 14  1  0  0  0  0
 14 15  1  0  0  0  0
 14 16  1  0  0  0  0
 14 17  1  0  0  0  0
 17 18  1  0  0  0  0
 17 19  1  0  0  0  0
 17 20  1  0  0  0  0
 20 21  1  0  0  0  0
 20 22  1  0  0  0  0
 20 23  1  0  0  0  0
 23 24  1  0  0  0  0
 23 25  1  0  0  0  0
 23 26  1  0  0  0  0
 26 27  1  0  0  0  0
 26 28  1  0  0  0  0
 26 29  1  0  0  0  0
M  END
> <VM2 Rank>
448

> <Conf_Id>
294

> <Probability>
0.00

> <Sum Probability>
100.00

> <Delta G>
6.997

> <G>
65.145

> <E>
27.503

> <-TS>
37.642

> <U+W>
3.358

> <U>
55.356

> <W>
-51.998

> <W(PB)>
-54.383

> <W(SA)>
2.386

> <Valence>
7.162

> <Coulomb>
47.545

> <VdW>
0.649

> <VdW6>
-10.233

> <VdW12>
10.882

> <Bond>
0.291

> <Angle>
1.731

> <Pdih>
5.140

> <Idih>
0.000

> <Tether>
0.000

$$$$
VeraChem MOL file


 29 28  0  0  0  0  0  0  0  0999 V2000     
   19.7270   18.1623   20.4558 C   0  0  0  0  0  0  0  0  0  0  0  0
   20.4511   17.7647   21.1753 H   0  0  0  0  0  0  0  0  0  0  0  0
   19.2968   17.3109   19.9128 H   0  0  0  0  0  0  0  0  0  0  0  0
   20.2746   18.7776   19.7302 H   0  0  0  0  0  0  0  0  0  0  0  0
   18.6119   18.9830   21.1446 C   0  0  0  0  0  0  0  0  0  0  0  0
   18.0286   18.3423   21.8205 H   0  0  0  0  0  0  0  0  0  0  0  0
   17.9114   19.3198   20.3677 H   0  0  0  0  0  0  0  0  0  0  0  0
   19.1412   20.2268   21.9041 C   0  0  0  0  0  0  0  0  0  0  0  0
   20.0533   20.6068   21.4237 H   0  0  0  0  0  0  0  0  0  0  0  0
   18.3978   21.0297   21.8031 H   0  0  0  0  0  0  0  0  0  0  0  0
   19.3860   20.0074   23.4192 C   0  0  0  0  0  0  0  0  0  0  0  0
   18.4369   19.7280   23.8897 H   0  0  0  0  0  0  0  0  0  0  0  0
   19.6774   20.9708   23.8588 H   0  0  0  0  0  0  0  0  0  0  0  0
   20.4784   18.9561   23.7379 C   0  0  0  0  0  0  0  0  0  0  0  0
   20.1457   17.9553   23.4341 H   0  0  0  0  0  0  0  0  0  0  0  0
   21.3624   19.1883   23.1282 H   0  0  0  0  0  0  0  0  0  0  0  0
   20.9166   18.9253   25.2258 C   0  0  0  0  0  0  0  0  0  0  0  0
   20.9668   19.9440   25.6324 H   0  0  0  0  0  0  0  0  0  0  0  0
   21.9479   18.5478   25.2618 H   0  0  0  0  0  0  0  0  0  0  0  0
   20.0624   18.0097   26.1430 C   0  0  0  0  0  0  0  0  0  0  0  0
   20.0863   16.9836   25.7529 H   0  0  0  0  0  0  0  0  0  0  0  0
   20.5316   17.9658   27.1349 H   0  0  0  0  0  0  0  0  0  0  0  0
   18.5924   18.4370   26.3157 C   0  0  0  0  0  0  0  0  0  0  0  0
   18.0911   17.7394   26.9921 H   0  0  0  0  0  0  0  0  0  0  0  0
   18.0788   18.3966   25.3530 H   0  0  0  0  0  0  0  0  0  0  0  0
   18.4280   19.8305   26.8887 N   0  3  0  0  0  0  0  0  0  0  0  0
   18.8614   19.9128   27.8143 H   0  0  0  0  0  0  0  0  0  0  0  0
   17.4400   20.0851   26.9957 H   0  0  0  0  0  0  0  0  0  0  0  0
   18.8615   20.5369   26.2864 H   0  0  0  0  0  0  0  0  0  0  0  0
  1  2  1  0  0  0  0
  1  3  1  0  0  0  0
  1  4  1  0  0  0  0
  1  5  1  0  0  0  0
  5  6  1  0  0  0  0
  5  7  1  0  0  0  0
  5  8  1  0  0  0  0
  8  9  1  0  0  0  0
  8 10  1  0  0  0  0
  8 11  1  0  0  0  0
 11 12  1  0  0  0  0
 11 13  1  0  0  0  0
 11 14  1  0  0  0  0
 14 15  1  0  0  0  0
 14 16  1  0  0  0  0
 14 17  1  0  0  0  0
 17 18  1  0  0  0  0
 17 19  1  0  0  0  0
 17 20  1  0  0  0  0
 20 21  1  0  0  0  0
 20 22  1  0  0  0  0
 20 23  1  0  0  0  0
 23 24  1  0  0  0  0
 23 25  1  0  0  0  0
 23 26  1  0  0  0  0
 26 27  1  0  0  0  0
 26 28  1  0  0  0  0
 26 29  1  0  0  0  0
M  END
> <VM2 Rank>
449

> <Conf_Id>
1984

> <Probability>
0.00

> <Sum Probability>
100.00

> <Delta G>
7.017

> <G>
65.165

> <E>
27.190

> <-TS>
37.975

> <U+W>
3.045

> <U>
55.537

> <W>
-52.492

> <W(PB)>
-54.890

> <W(SA)>
2.399

> <Valence>
8.236

> <Coulomb>
46.626

> <VdW>
0.674

> <VdW6>
-11.047

> <VdW12>
11.722

> <Bond>
0.341

> <Angle>
2.227

> <Pdih>
5.668

> <Idih>
0.000

> <Tether>
0.000

$$$$
VeraChem MOL file


 29 28  0  0  0  0  0  0  0  0999 V2000     
   19.1446   17.5828   20.8993 C   0  0  0  0  0  0  0  0  0  0  0  0
   18.8962   16.5142   20.9353 H   0  0  0  0  0  0  0  0  0  0  0  0
   18.2010   18.1388   20.8443 H   0  0  0  0  0  0  0  0  0  0  0  0
   19.7039   17.7650   19.9725 H   0  0  0  0  0  0  0  0  0  0  0  0
   19.9761   17.9861   22.1385 C   0  0  0  0  0  0  0  0  0  0  0  0
   20.8578   17.3327   22.1935 H   0  0  0  0  0  0  0  0  0  0  0  0
   19.3945   17.7894   23.0464 H   0  0  0  0  0  0  0  0  0  0  0  0
   20.4570   19.4600   22.0983 C   0  0  0  0  0  0  0  0  0  0  0  0
   21.2374   19.6201   22.8539 H   0  0  0  0  0  0  0  0  0  0  0  0
   20.9517   19.6288   21.1319 H   0  0  0  0  0  0  0  0  0  0  0  0
   19.3388   20.5223   22.2745 C   0  0  0  0  0  0  0  0  0  0  0  0
   18.3910   20.1666   21.8522 H   0  0  0  0  0  0  0  0  0  0  0  0
   19.6144   21.3970   21.6693 H   0  0  0  0  0  0  0  0  0  0  0  0
   19.1122   21.0252   23.7260 C   0  0  0  0  0  0  0  0  0  0  0  0
   20.0371   21.4670   24.1216 H   0  0  0  0  0  0  0  0  0  0  0  0
   18.3925   21.8539   23.6733 H   0  0  0  0  0  0  0  0  0  0  0  0
   18.5504   19.9748   24.7176 C   0  0  0  0  0  0  0  0  0  0  0  0
   17.9360   19.2392   24.1813 H   0  0  0  0  0  0  0  0  0  0  0  0
   17.8684   20.4840   25.4127 H   0  0  0  0  0  0  0  0  0  0  0  0
   19.6455   19.2721   25.5550 C   0  0  0  0  0  0  0  0  0  0  0  0
   20.3872   18.7982   24.9028 H   0  0  0  0  0  0  0  0  0  0  0  0
   20.1834   20.0191   26.1538 H   0  0  0  0  0  0  0  0  0  0  0  0
   19.0402   18.2108   26.4899 C   0  0  0  0  0  0  0  0  0  0  0  0
   18.5158   17.4554   25.8985 H   0  0  0  0  0  0  0  0  0  0  0  0
   18.3196   18.6818   27.1640 H   0  0  0  0  0  0  0  0  0  0  0  0
   20.0791   17.5037   27.3360 N   0  3  0  0  0  0  0  0  0  0  0  0
   20.7733   17.0159   26.7603 H   0  0  0  0  0  0  0  0  0  0  0  0
   19.6545   16.8015   27.9519 H   0  0  0  0  0  0  0  0  0  0  0  0
   20.5908   18.1579   27.9374 H   0  0  0  0  0  0  0  0  0  0  0  0
  1  2  1  0  0  0  0
  1  3  1  0  0  0  0
  1  4  1  0  0  0  0
  1  5  1  0  0  0  0
  5  6  1  0  0  0  0
  5  7  1  0  0  0  0
  5  8  1  0  0  0  0
  8  9  1  0  0  0  0
  8 10  1  0  0  0  0
  8 11  1  0  0  0  0
 11 12  1  0  0  0  0
 11 13  1  0  0  0  0
 11 14  1  0  0  0  0
 14 15  1  0  0  0  0
 14 16  1  0  0  0  0
 14 17  1  0  0  0  0
 17 18  1  0  0  0  0
 17 19  1  0  0  0  0
 17 20  1  0  0  0  0
 20 21  1  0  0  0  0
 20 22  1  0  0  0  0
 20 23  1  0  0  0  0
 23 24  1  0  0  0  0
 23 25  1  0  0  0  0
 23 26  1  0  0  0  0
 26 27  1  0  0  0  0
 26 28  1  0  0  0  0
 26 29  1  0  0  0  0
M  END
> <VM2 Rank>
450

> <Conf_Id>
993

> <Probability>
0.00

> <Sum Probability>
100.00

> <Delta G>
7.035

> <G>
65.183

> <E>
27.073

> <-TS>
38.110

> <U+W>
2.929

> <U>
55.529

> <W>
-52.600

> <W(PB)>
-55.024

> <W(SA)>
2.424

> <Valence>
8.892

> <Coulomb>
46.031

> <VdW>
0.606

> <VdW6>
-10.527

> <VdW12>
11.133

> <Bond>
0.331

> <Angle>
2.234

> <Pdih>
6.326

> <Idih>
0.000

> <Tether>
0.000

$$$$
VeraChem MOL file


 29 28  0  0  0  0  0  0  0  0999 V2000     
   20.1971   20.5359   20.9653 C   0  0  0  0  0  0  0  0  0  0  0  0
   19.1154   20.7043   20.9016 H   0  0  0  0  0  0  0  0  0  0  0  0
   20.6797   21.5184   21.0473 H   0  0  0  0  0  0  0  0  0  0  0  0
   20.5284   20.0781   20.0242 H   0  0  0  0  0  0  0  0  0  0  0  0
   20.5687   19.6490   22.1757 C   0  0  0  0  0  0  0  0  0  0  0  0
   20.2297   20.1329   23.0989 H   0  0  0  0  0  0  0  0  0  0  0  0
   21.6641   19.5951   22.2442 H   0  0  0  0  0  0  0  0  0  0  0  0
   20.0101   18.2062   22.0703 C   0  0  0  0  0  0  0  0  0  0  0  0
   20.3003   17.8011   21.0911 H   0  0  0  0  0  0  0  0  0  0  0  0
   20.5028   17.5589   22.8078 H   0  0  0  0  0  0  0  0  0  0  0  0
   18.4698   18.0840   22.2200 C   0  0  0  0  0  0  0  0  0  0  0  0
   18.1389   17.2570   21.5767 H   0  0  0  0  0  0  0  0  0  0  0  0
   17.9664   18.9753   21.8256 H   0  0  0  0  0  0  0  0  0  0  0  0
   17.9558   17.7806   23.6535 C   0  0  0  0  0  0  0  0  0  0  0  0
   16.8751   17.5964   23.5782 H   0  0  0  0  0  0  0  0  0  0  0  0
   18.3874   16.8383   24.0181 H   0  0  0  0  0  0  0  0  0  0  0  0
   18.1706   18.9092   24.6938 C   0  0  0  0  0  0  0  0  0  0  0  0
   17.3105   18.9188   25.3778 H   0  0  0  0  0  0  0  0  0  0  0  0
   18.1672   19.8881   24.1959 H   0  0  0  0  0  0  0  0  0  0  0  0
   19.4514   18.7275   25.5428 C   0  0  0  0  0  0  0  0  0  0  0  0
   19.3875   17.7857   26.1039 H   0  0  0  0  0  0  0  0  0  0  0  0
   20.3348   18.6512   24.8995 H   0  0  0  0  0  0  0  0  0  0  0  0
   19.6402   19.8944   26.5275 C   0  0  0  0  0  0  0  0  0  0  0  0
   18.7747   19.9586   27.1926 H   0  0  0  0  0  0  0  0  0  0  0  0
   19.7197   20.8339   25.9740 H   0  0  0  0  0  0  0  0  0  0  0  0
   20.8801   19.7513   27.3861 N   0  3  0  0  0  0  0  0  0  0  0  0
   20.9864   20.5387   28.0353 H   0  0  0  0  0  0  0  0  0  0  0  0
   21.7344   19.7128   26.8204 H   0  0  0  0  0  0  0  0  0  0  0  0
   20.8546   18.8978   27.9538 H   0  0  0  0  0  0  0  0  0  0  0  0
  1  2  1  0  0  0  0
  1  3  1  0  0  0  0
  1  4  1  0  0  0  0
  1  5  1  0  0  0  0
  5  6  1  0  0  0  0
  5  7  1  0  0  0  0
  5  8  1  0  0  0  0
  8  9  1  0  0  0  0
  8 10  1  0  0  0  0
  8 11  1  0  0  0  0
 11 12  1  0  0  0  0
 11 13  1  0  0  0  0
 11 14  1  0  0  0  0
 14 15  1  0  0  0  0
 14 16  1  0  0  0  0
 14 17  1  0  0  0  0
 17 18  1  0  0  0  0
 17 19  1  0  0  0  0
 17 20  1  0  0  0  0
 20 21  1  0  0  0  0
 20 22  1  0  0  0  0
 20 23  1  0  0  0  0
 23 24  1  0  0  0  0
 23 25  1  0  0  0  0
 23 26  1  0  0  0  0
 26 27  1  0  0  0  0
 26 28  1  0  0  0  0
 26 29  1  0  0  0  0
M  END
> <VM2 Rank>
451

> <Conf_Id>
1331

> <Probability>
0.00

> <Sum Probability>
100.00

> <Delta G>
7.057

> <G>
65.205

> <E>
27.095

> <-TS>
38.110

> <U+W>
2.950

> <U>
55.529

> <W>
-52.578

> <W(PB)>
-54.980

> <W(SA)>
2.402

> <Valence>
8.891

> <Coulomb>
46.031

> <VdW>
0.606

> <VdW6>
-10.528

> <VdW12>
11.134

> <Bond>
0.331

> <Angle>
2.234

> <Pdih>
6.326

> <Idih>
0.000

> <Tether>
0.000

$$$$
VeraChem MOL file


 29 28  0  0  0  0  0  0  0  0999 V2000     
   21.1472   18.7048   21.2078 C   0  0  0  0  0  0  0  0  0  0  0  0
   21.9112   18.6154   20.4248 H   0  0  0  0  0  0  0  0  0  0  0  0
   21.4807   19.4839   21.9042 H   0  0  0  0  0  0  0  0  0  0  0  0
   21.1042   17.7493   21.7464 H   0  0  0  0  0  0  0  0  0  0  0  0
   19.7772   19.0563   20.5876 C   0  0  0  0  0  0  0  0  0  0  0  0
   19.5580   18.3366   19.7866 H   0  0  0  0  0  0  0  0  0  0  0  0
   19.8371   20.0412   20.1040 H   0  0  0  0  0  0  0  0  0  0  0  0
   18.6013   19.0425   21.5971 C   0  0  0  0  0  0  0  0  0  0  0  0
   17.6800   19.2478   21.0348 H   0  0  0  0  0  0  0  0  0  0  0  0
   18.4785   18.0322   22.0069 H   0  0  0  0  0  0  0  0  0  0  0  0
   18.7169   20.0941   22.7344 C   0  0  0  0  0  0  0  0  0  0  0  0
   17.7167   20.4894   22.9593 H   0  0  0  0  0  0  0  0  0  0  0  0
   19.2981   20.9546   22.3755 H   0  0  0  0  0  0  0  0  0  0  0  0
   19.3403   19.5612   24.0503 C   0  0  0  0  0  0  0  0  0  0  0  0
   20.2696   19.0187   23.8394 H   0  0  0  0  0  0  0  0  0  0  0  0
   19.6106   20.4281   24.6656 H   0  0  0  0  0  0  0  0  0  0  0  0
   18.3743   18.6558   24.8556 C   0  0  0  0  0  0  0  0  0  0  0  0
   17.9709   17.8728   24.2012 H   0  0  0  0  0  0  0  0  0  0  0  0
   17.5102   19.2485   25.1864 H   0  0  0  0  0  0  0  0  0  0  0  0
   19.0212   17.9625   26.0818 C   0  0  0  0  0  0  0  0  0  0  0  0
   18.2710   17.2938   26.5244 H   0  0  0  0  0  0  0  0  0  0  0  0
   19.8496   17.3163   25.7622 H   0  0  0  0  0  0  0  0  0  0  0  0
   19.4993   18.9277   27.1863 C   0  0  0  0  0  0  0  0  0  0  0  0
   19.5623   18.3828   28.1322 H   0  0  0  0  0  0  0  0  0  0  0  0
   18.7764   19.7386   27.3094 H   0  0  0  0  0  0  0  0  0  0  0  0
   20.8663   19.5331   26.9340 N   0  3  0  0  0  0  0  0  0  0  0  0
   21.1453   20.1695   27.6889 H   0  0  0  0  0  0  0  0  0  0  0  0
   20.8888   20.0689   26.0619 H   0  0  0  0  0  0  0  0  0  0  0  0
   21.5929   18.8128   26.8665 H   0  0  0  0  0  0  0  0  0  0  0  0
  1  2  1  0  0  0  0
  1  3  1  0  0  0  0
  1  4  1  0  0  0  0
  1  5  1  0  0  0  0
  5  6  1  0  0  0  0
  5  7  1  0  0  0  0
  5  8  1  0  0  0  0
  8  9  1  0  0  0  0
  8 10  1  0  0  0  0
  8 11  1  0  0  0  0
 11 12  1  0  0  0  0
 11 13  1  0  0  0  0
 11 14  1  0  0  0  0
 14 15  1  0  0  0  0
 14 16  1  0  0  0  0
 14 17  1  0  0  0  0
 17 18  1  0  0  0  0
 17 19  1  0  0  0  0
 17 20  1  0  0  0  0
 20 21  1  0  0  0  0
 20 22  1  0  0  0  0
 20 23  1  0  0  0  0
 23 24  1  0  0  0  0
 23 25  1  0  0  0  0
 23 26  1  0  0  0  0
 26 27  1  0  0  0  0
 26 28  1  0  0  0  0
 26 29  1  0  0  0  0
M  END
> <VM2 Rank>
452

> <Conf_Id>
2614

> <Probability>
0.00

> <Sum Probability>
100.00

> <Delta G>
7.105

> <G>
65.253

> <E>
27.409

> <-TS>
37.844

> <U+W>
3.265

> <U>
55.673

> <W>
-52.409

> <W(PB)>
-54.827

> <W(SA)>
2.418

> <Valence>
7.999

> <Coulomb>
46.770

> <VdW>
0.905

> <VdW6>
-10.579

> <VdW12>
11.484

> <Bond>
0.338

> <Angle>
1.894

> <Pdih>
5.767

> <Idih>
0.000

> <Tether>
0.000

$$$$
VeraChem MOL file


 29 28  0  0  0  0  0  0  0  0999 V2000     
   21.0677   19.4972   21.4077 C   0  0  0  0  0  0  0  0  0  0  0  0
   21.7822   19.5238   20.5748 H   0  0  0  0  0  0  0  0  0  0  0  0
   20.4768   20.4205   21.3633 H   0  0  0  0  0  0  0  0  0  0  0  0
   21.6424   19.4944   22.3428 H   0  0  0  0  0  0  0  0  0  0  0  0
   20.1656   18.2481   21.3051 C   0  0  0  0  0  0  0  0  0  0  0  0
   20.8049   17.3591   21.2128 H   0  0  0  0  0  0  0  0  0  0  0  0
   19.5777   18.2974   20.3779 H   0  0  0  0  0  0  0  0  0  0  0  0
   19.2156   18.0487   22.5133 C   0  0  0  0  0  0  0  0  0  0  0  0
   18.6822   17.1002   22.3616 H   0  0  0  0  0  0  0  0  0  0  0  0
   19.8050   17.9135   23.4270 H   0  0  0  0  0  0  0  0  0  0  0  0
   18.1582   19.1715   22.6938 C   0  0  0  0  0  0  0  0  0  0  0  0
   17.2258   18.7322   23.0740 H   0  0  0  0  0  0  0  0  0  0  0  0
   17.9029   19.5783   21.7057 H   0  0  0  0  0  0  0  0  0  0  0  0
   18.5850   20.3347   23.6308 C   0  0  0  0  0  0  0  0  0  0  0  0
   19.6673   20.5025   23.5835 H   0  0  0  0  0  0  0  0  0  0  0  0
   18.1287   21.2585   23.2493 H   0  0  0  0  0  0  0  0  0  0  0  0
   18.1312   20.1691   25.1060 C   0  0  0  0  0  0  0  0  0  0  0  0
   17.0381   20.0623   25.1356 H   0  0  0  0  0  0  0  0  0  0  0  0
   18.3551   21.0978   25.6490 H   0  0  0  0  0  0  0  0  0  0  0  0
   18.7733   18.9845   25.8664 C   0  0  0  0  0  0  0  0  0  0  0  0
   18.3454   18.9397   26.8767 H   0  0  0  0  0  0  0  0  0  0  0  0
   18.5091   18.0376   25.3793 H   0  0  0  0  0  0  0  0  0  0  0  0
   20.3038   19.1161   25.9793 C   0  0  0  0  0  0  0  0  0  0  0  0
   20.5550   20.0438   26.5006 H   0  0  0  0  0  0  0  0  0  0  0  0
   20.7478   19.1524   24.9814 H   0  0  0  0  0  0  0  0  0  0  0  0
   20.9434   17.9681   26.7326 N   0  3  0  0  0  0  0  0  0  0  0  0
   21.9617   18.0752   26.7971 H   0  0  0  0  0  0  0  0  0  0  0  0
   20.7651   17.0662   26.2788 H   0  0  0  0  0  0  0  0  0  0  0  0
   20.5895   17.8983   27.6924 H   0  0  0  0  0  0  0  0  0  0  0  0
  1  2  1  0  0  0  0
  1  3  1  0  0  0  0
  1  4  1  0  0  0  0
  1  5  1  0  0  0  0
  5  6  1  0  0  0  0
  5  7  1  0  0  0  0
  5  8  1  0  0  0  0
  8  9  1  0  0  0  0
  8 10  1  0  0  0  0
  8 11  1  0  0  0  0
 11 12  1  0  0  0  0
 11 13  1  0  0  0  0
 11 14  1  0  0  0  0
 14 15  1  0  0  0  0
 14 16  1  0  0  0  0
 14 17  1  0  0  0  0
 17 18  1  0  0  0  0
 17 19  1  0  0  0  0
 17 20  1  0  0  0  0
 20 21  1  0  0  0  0
 20 22  1  0  0  0  0
 20 23  1  0  0  0  0
 23 24  1  0  0  0  0
 23 25  1  0  0  0  0
 23 26  1  0  0  0  0
 26 27  1  0  0  0  0
 26 28  1  0  0  0  0
 26 29  1  0  0  0  0
M  END
> <VM2 Rank>
453

> <Conf_Id>
2575

> <Probability>
0.00

> <Sum Probability>
100.00

> <Delta G>
7.130

> <G>
65.278

> <E>
26.851

> <-TS>
38.427

> <U+W>
2.706

> <U>
55.584

> <W>
-52.878

> <W(PB)>
-55.246

> <W(SA)>
2.368

> <Valence>
8.543

> <Coulomb>
46.640

> <VdW>
0.401

> <VdW6>
-11.498

> <VdW12>
11.899

> <Bond>
0.349

> <Angle>
2.078

> <Pdih>
6.116

> <Idih>
0.000

> <Tether>
0.000

$$$$
VeraChem MOL file


 29 28  0  0  0  0  0  0  0  0999 V2000     
   20.9196   17.4760   21.6187 C   0  0  0  0  0  0  0  0  0  0  0  0
   20.9057   16.3854   21.7426 H   0  0  0  0  0  0  0  0  0  0  0  0
   21.0935   17.6924   20.5566 H   0  0  0  0  0  0  0  0  0  0  0  0
   21.7694   17.8699   22.1913 H   0  0  0  0  0  0  0  0  0  0  0  0
   19.5913   18.0964   22.1001 C   0  0  0  0  0  0  0  0  0  0  0  0
   19.4276   17.8269   23.1493 H   0  0  0  0  0  0  0  0  0  0  0  0
   18.7587   17.6561   21.5339 H   0  0  0  0  0  0  0  0  0  0  0  0
   19.5804   19.6335   21.9213 C   0  0  0  0  0  0  0  0  0  0  0  0
   20.4665   20.0885   22.3833 H   0  0  0  0  0  0  0  0  0  0  0  0
   19.6610   19.8487   20.8468 H   0  0  0  0  0  0  0  0  0  0  0  0
   18.2925   20.3063   22.4604 C   0  0  0  0  0  0  0  0  0  0  0  0
   17.4408   19.6170   22.3792 H   0  0  0  0  0  0  0  0  0  0  0  0
   18.0511   21.1475   21.7960 H   0  0  0  0  0  0  0  0  0  0  0  0
   18.3839   20.8734   23.9034 C   0  0  0  0  0  0  0  0  0  0  0  0
   19.1760   21.6326   23.9601 H   0  0  0  0  0  0  0  0  0  0  0  0
   17.4475   21.4143   24.0985 H   0  0  0  0  0  0  0  0  0  0  0  0
   18.5651   19.8234   25.0297 C   0  0  0  0  0  0  0  0  0  0  0  0
   18.0715   18.8849   24.7474 H   0  0  0  0  0  0  0  0  0  0  0  0
   18.0361   20.1828   25.9233 H   0  0  0  0  0  0  0  0  0  0  0  0
   20.0465   19.5860   25.4198 C   0  0  0  0  0  0  0  0  0  0  0  0
   20.6327   19.2453   24.5595 H   0  0  0  0  0  0  0  0  0  0  0  0
   20.4913   20.5388   25.7361 H   0  0  0  0  0  0  0  0  0  0  0  0
   20.2009   18.5745   26.5712 C   0  0  0  0  0  0  0  0  0  0  0  0
   19.6117   18.9031   27.4316 H   0  0  0  0  0  0  0  0  0  0  0  0
   21.2504   18.5271   26.8743 H   0  0  0  0  0  0  0  0  0  0  0  0
   19.7637   17.1684   26.2103 N   0  3  0  0  0  0  0  0  0  0  0  0
   20.3035   16.7925   25.4240 H   0  0  0  0  0  0  0  0  0  0  0  0
   18.7740   17.1357   25.9466 H   0  0  0  0  0  0  0  0  0  0  0  0
   19.8867   16.5201   26.9960 H   0  0  0  0  0  0  0  0  0  0  0  0
  1  2  1  0  0  0  0
  1  3  1  0  0  0  0
  1  4  1  0  0  0  0
  1  5  1  0  0  0  0
  5  6  1  0  0  0  0
  5  7  1  0  0  0  0
  5  8  1  0  0  0  0
  8  9  1  0  0  0  0
  8 10  1  0  0  0  0
  8 11  1  0  0  0  0
 11 12  1  0  0  0  0
 11 13  1  0  0  0  0
 11 14  1  0  0  0  0
 14 15  1  0  0  0  0
 14 16  1  0  0  0  0
 14 17  1  0  0  0  0
 17 18  1  0  0  0  0
 17 19  1  0  0  0  0
 17 20  1  0  0  0  0
 20 21  1  0  0  0  0
 20 22  1  0  0  0  0
 20 23  1  0  0  0  0
 23 24  1  0  0  0  0
 23 25  1  0  0  0  0
 23 26  1  0  0  0  0
 26 27  1  0  0  0  0
 26 28  1  0  0  0  0
 26 29  1  0  0  0  0
M  END
> <VM2 Rank>
454

> <Conf_Id>
1605

> <Probability>
0.00

> <Sum Probability>
100.00

> <Delta G>
7.163

> <G>
65.311

> <E>
26.981

> <-TS>
38.329

> <U+W>
2.837

> <U>
55.689

> <W>
-52.852

> <W(PB)>
-55.193

> <W(SA)>
2.341

> <Valence>
8.281

> <Coulomb>
47.124

> <VdW>
0.284

> <VdW6>
-11.007

> <VdW12>
11.291

> <Bond>
0.312

> <Angle>
2.003

> <Pdih>
5.965

> <Idih>
0.000

> <Tether>
0.000

$$$$
VeraChem MOL file


 29 28  0  0  0  0  0  0  0  0999 V2000     
   21.2594   19.3870   20.8762 C   0  0  0  0  0  0  0  0  0  0  0  0
   21.2245   18.6496   20.0637 H   0  0  0  0  0  0  0  0  0  0  0  0
   21.6550   20.3243   20.4641 H   0  0  0  0  0  0  0  0  0  0  0  0
   21.9668   19.0269   21.6346 H   0  0  0  0  0  0  0  0  0  0  0  0
   19.8588   19.6077   21.4851 C   0  0  0  0  0  0  0  0  0  0  0  0
   19.1850   20.0010   20.7111 H   0  0  0  0  0  0  0  0  0  0  0  0
   19.9188   20.3791   22.2623 H   0  0  0  0  0  0  0  0  0  0  0  0
   19.2728   18.2958   22.0600 C   0  0  0  0  0  0  0  0  0  0  0  0
   19.1492   17.5876   21.2290 H   0  0  0  0  0  0  0  0  0  0  0  0
   19.9795   17.8211   22.7534 H   0  0  0  0  0  0  0  0  0  0  0  0
   17.8982   18.4914   22.7478 C   0  0  0  0  0  0  0  0  0  0  0  0
   17.2756   17.6183   22.5083 H   0  0  0  0  0  0  0  0  0  0  0  0
   17.3728   19.3521   22.3117 H   0  0  0  0  0  0  0  0  0  0  0  0
   17.9359   18.6189   24.2946 C   0  0  0  0  0  0  0  0  0  0  0  0
   16.8930   18.6444   24.6396 H   0  0  0  0  0  0  0  0  0  0  0  0
   18.3608   17.7073   24.7329 H   0  0  0  0  0  0  0  0  0  0  0  0
   18.6433   19.8850   24.8500 C   0  0  0  0  0  0  0  0  0  0  0  0
   18.1370   20.1869   25.7764 H   0  0  0  0  0  0  0  0  0  0  0  0
   18.4933   20.7238   24.1574 H   0  0  0  0  0  0  0  0  0  0  0  0
   20.1573   19.7193   25.1549 C   0  0  0  0  0  0  0  0  0  0  0  0
   20.7076   19.4826   24.2384 H   0  0  0  0  0  0  0  0  0  0  0  0
   20.5573   20.6803   25.5040 H   0  0  0  0  0  0  0  0  0  0  0  0
   20.4769   18.6379   26.2074 C   0  0  0  0  0  0  0  0  0  0  0  0
   21.5591   18.5852   26.3543 H   0  0  0  0  0  0  0  0  0  0  0  0
   20.1365   17.6618   25.8534 H   0  0  0  0  0  0  0  0  0  0  0  0
   19.8414   18.8950   27.5591 N   0  3  0  0  0  0  0  0  0  0  0  0
   20.1449   19.7894   27.9579 H   0  0  0  0  0  0  0  0  0  0  0  0
   20.0821   18.1654   28.2388 H   0  0  0  0  0  0  0  0  0  0  0  0
   18.8189   18.9222   27.4949 H   0  0  0  0  0  0  0  0  0  0  0  0
  1  2  1  0  0  0  0
  1  3  1  0  0  0  0
  1  4  1  0  0  0  0
  1  5  1  0  0  0  0
  5  6  1  0  0  0  0
  5  7  1  0  0  0  0
  5  8  1  0  0  0  0
  8  9  1  0  0  0  0
  8 10  1  0  0  0  0
  8 11  1  0  0  0  0
 11 12  1  0  0  0  0
 11 13  1  0  0  0  0
 11 14  1  0  0  0  0
 14 15  1  0  0  0  0
 14 16  1  0  0  0  0
 14 17  1  0  0  0  0
 17 18  1  0  0  0  0
 17 19  1  0  0  0  0
 17 20  1  0  0  0  0
 20 21  1  0  0  0  0
 20 22  1  0  0  0  0
 20 23  1  0  0  0  0
 23 24  1  0  0  0  0
 23 25  1  0  0  0  0
 23 26  1  0  0  0  0
 26 27  1  0  0  0  0
 26 28  1  0  0  0  0
 26 29  1  0  0  0  0
M  END
> <VM2 Rank>
455

> <Conf_Id>
1327

> <Probability>
0.00

> <Sum Probability>
100.00

> <Delta G>
7.197

> <G>
65.345

> <E>
27.083

> <-TS>
38.261

> <U+W>
2.939

> <U>
55.320

> <W>
-52.381

> <W(PB)>
-54.749

> <W(SA)>
2.368

> <Valence>
8.750

> <Coulomb>
45.964

> <VdW>
0.605

> <VdW6>
-11.305

> <VdW12>
11.911

> <Bond>
0.354

> <Angle>
2.319

> <Pdih>
6.077

> <Idih>
0.000

> <Tether>
0.000

$$$$
VeraChem MOL file


 29 28  0  0  0  0  0  0  0  0999 V2000     
   21.6295   19.4680   21.6634 C   0  0  0  0  0  0  0  0  0  0  0  0
   21.6426   19.2325   20.5912 H   0  0  0  0  0  0  0  0  0  0  0  0
   22.3064   20.3158   21.8304 H   0  0  0  0  0  0  0  0  0  0  0  0
   22.0308   18.6034   22.2080 H   0  0  0  0  0  0  0  0  0  0  0  0
   20.2015   19.8085   22.1384 C   0  0  0  0  0  0  0  0  0  0  0  0
   19.8428   20.6980   21.6018 H   0  0  0  0  0  0  0  0  0  0  0  0
   20.2301   20.0791   23.1995 H   0  0  0  0  0  0  0  0  0  0  0  0
   19.2239   18.6330   21.8990 C   0  0  0  0  0  0  0  0  0  0  0  0
   19.1654   18.4581   20.8157 H   0  0  0  0  0  0  0  0  0  0  0  0
   19.6161   17.7025   22.3300 H   0  0  0  0  0  0  0  0  0  0  0  0
   17.7932   18.9052   22.4291 C   0  0  0  0  0  0  0  0  0  0  0  0
   17.0838   18.4331   21.7353 H   0  0  0  0  0  0  0  0  0  0  0  0
   17.5702   19.9802   22.3873 H   0  0  0  0  0  0  0  0  0  0  0  0
   17.4851   18.3514   23.8471 C   0  0  0  0  0  0  0  0  0  0  0  0
   16.4150   18.5171   24.0338 H   0  0  0  0  0  0  0  0  0  0  0  0
   17.6180   17.2610   23.8624 H   0  0  0  0  0  0  0  0  0  0  0  0
   18.2733   19.0047   25.0114 C   0  0  0  0  0  0  0  0  0  0  0  0
   17.6237   19.0257   25.8975 H   0  0  0  0  0  0  0  0  0  0  0  0
   18.4882   20.0542   24.7736 H   0  0  0  0  0  0  0  0  0  0  0  0
   19.5656   18.2364   25.3896 C   0  0  0  0  0  0  0  0  0  0  0  0
   19.3034   17.2055   25.6616 H   0  0  0  0  0  0  0  0  0  0  0  0
   20.2472   18.1637   24.5353 H   0  0  0  0  0  0  0  0  0  0  0  0
   20.3084   18.8760   26.5779 C   0  0  0  0  0  0  0  0  0  0  0  0
   21.1471   18.2372   26.8677 H   0  0  0  0  0  0  0  0  0  0  0  0
   19.6321   18.9600   27.4329 H   0  0  0  0  0  0  0  0  0  0  0  0
   20.8636   20.2547   26.2792 N   0  3  0  0  0  0  0  0  0  0  0  0
   20.1213   20.9162   26.0312 H   0  0  0  0  0  0  0  0  0  0  0  0
   21.5304   20.2356   25.5008 H   0  0  0  0  0  0  0  0  0  0  0  0
   21.3577   20.6475   27.0881 H   0  0  0  0  0  0  0  0  0  0  0  0
  1  2  1  0  0  0  0
  1  3  1  0  0  0  0
  1  4  1  0  0  0  0
  1  5  1  0  0  0  0
  5  6  1  0  0  0  0
  5  7  1  0  0  0  0
  5  8  1  0  0  0  0
  8  9  1  0  0  0  0
  8 10  1  0  0  0  0
  8 11  1  0  0  0  0
 11 12  1  0  0  0  0
 11 13  1  0  0  0  0
 11 14  1  0  0  0  0
 14 15  1  0  0  0  0
 14 16  1  0  0  0  0
 14 17  1  0  0  0  0
 17 18  1  0  0  0  0
 17 19  1  0  0  0  0
 17 20  1  0  0  0  0
 20 21  1  0  0  0  0
 20 22  1  0  0  0  0
 20 23  1  0  0  0  0
 23 24  1  0  0  0  0
 23 25  1  0  0  0  0
 23 26  1  0  0  0  0
 26 27  1  0  0  0  0
 26 28  1  0  0  0  0
 26 29  1  0  0  0  0
M  END
> <VM2 Rank>
456

> <Conf_Id>
952

> <Probability>
0.00

> <Sum Probability>
100.00

> <Delta G>
7.216

> <G>
65.364

> <E>
27.035

> <-TS>
38.329

> <U+W>
2.891

> <U>
55.689

> <W>
-52.798

> <W(PB)>
-55.154

> <W(SA)>
2.356

> <Valence>
8.280

> <Coulomb>
47.124

> <VdW>
0.284

> <VdW6>
-11.007

> <VdW12>
11.292

> <Bond>
0.312

> <Angle>
2.003

> <Pdih>
5.965

> <Idih>
0.000

> <Tether>
0.000

$$$$
VeraChem MOL file


 29 28  0  0  0  0  0  0  0  0999 V2000     
   20.4625   19.1626   20.3415 C   0  0  0  0  0  0  0  0  0  0  0  0
   20.9263   18.1925   20.1210 H   0  0  0  0  0  0  0  0  0  0  0  0
   20.5261   19.7760   19.4334 H   0  0  0  0  0  0  0  0  0  0  0  0
   21.0612   19.6539   21.1164 H   0  0  0  0  0  0  0  0  0  0  0  0
   18.9876   18.9837   20.7708 C   0  0  0  0  0  0  0  0  0  0  0  0
   18.4485   18.5098   19.9385 H   0  0  0  0  0  0  0  0  0  0  0  0
   18.5114   19.9627   20.9205 H   0  0  0  0  0  0  0  0  0  0  0  0
   18.8171   18.1021   22.0348 C   0  0  0  0  0  0  0  0  0  0  0  0
   17.8977   17.5120   21.9172 H   0  0  0  0  0  0  0  0  0  0  0  0
   19.6325   17.3686   22.0995 H   0  0  0  0  0  0  0  0  0  0  0  0
   18.6993   18.8861   23.3674 C   0  0  0  0  0  0  0  0  0  0  0  0
   18.4976   18.1611   24.1628 H   0  0  0  0  0  0  0  0  0  0  0  0
   17.8195   19.5426   23.3245 H   0  0  0  0  0  0  0  0  0  0  0  0
   19.9496   19.7290   23.7218 C   0  0  0  0  0  0  0  0  0  0  0  0
   20.8583   19.1165   23.6456 H   0  0  0  0  0  0  0  0  0  0  0  0
   20.0480   20.5248   22.9723 H   0  0  0  0  0  0  0  0  0  0  0  0
   19.8789   20.4047   25.1162 C   0  0  0  0  0  0  0  0  0  0  0  0
   18.8467   20.6991   25.3481 H   0  0  0  0  0  0  0  0  0  0  0  0
   20.4456   21.3446   25.0631 H   0  0  0  0  0  0  0  0  0  0  0  0
   20.4862   19.5675   26.2732 C   0  0  0  0  0  0  0  0  0  0  0  0
   21.5340   19.3368   26.0396 H   0  0  0  0  0  0  0  0  0  0  0  0
   20.5083   20.1803   27.1841 H   0  0  0  0  0  0  0  0  0  0  0  0
   19.7492   18.2508   26.5826 C   0  0  0  0  0  0  0  0  0  0  0  0
   20.2727   17.7234   27.3846 H   0  0  0  0  0  0  0  0  0  0  0  0
   19.7517   17.6080   25.6992 H   0  0  0  0  0  0  0  0  0  0  0  0
   18.3137   18.4514   27.0267 N   0  3  0  0  0  0  0  0  0  0  0  0
   18.2570   19.0165   27.8803 H   0  0  0  0  0  0  0  0  0  0  0  0
   17.8476   17.5595   27.2257 H   0  0  0  0  0  0  0  0  0  0  0  0
   17.7611   18.9305   26.3090 H   0  0  0  0  0  0  0  0  0  0  0  0
  1  2  1  0  0  0  0
  1  3  1  0  0  0  0
  1  4  1  0  0  0  0
  1  5  1  0  0  0  0
  5  6  1  0  0  0  0
  5  7  1  0  0  0  0
  5  8  1  0  0  0  0
  8  9  1  0  0  0  0
  8 10  1  0  0  0  0
  8 11  1  0  0  0  0
 11 12  1  0  0  0  0
 11 13  1  0  0  0  0
 11 14  1  0  0  0  0
 14 15  1  0  0  0  0
 14 16  1  0  0  0  0
 14 17  1  0  0  0  0
 17 18  1  0  0  0  0
 17 19  1  0  0  0  0
 17 20  1  0  0  0  0
 20 21  1  0  0  0  0
 20 22  1  0  0  0  0
 20 23  1  0  0  0  0
 23 24  1  0  0  0  0
 23 25  1  0  0  0  0
 23 26  1  0  0  0  0
 26 27  1  0  0  0  0
 26 28  1  0  0  0  0
 26 29  1  0  0  0  0
M  END
> <VM2 Rank>
457

> <Conf_Id>
1344

> <Probability>
0.00

> <Sum Probability>
100.00

> <Delta G>
7.269

> <G>
65.417

> <E>
27.305

> <-TS>
38.111

> <U+W>
3.161

> <U>
55.584

> <W>
-52.423

> <W(PB)>
-54.819

> <W(SA)>
2.396

> <Valence>
8.406

> <Coulomb>
46.427

> <VdW>
0.751

> <VdW6>
-10.877

> <VdW12>
11.628

> <Bond>
0.338

> <Angle>
2.150

> <Pdih>
5.919

> <Idih>
0.000

> <Tether>
0.000

$$$$
VeraChem MOL file


 29 28  0  0  0  0  0  0  0  0999 V2000     
   19.9097   18.8184   20.2294 C   0  0  0  0  0  0  0  0  0  0  0  0
   19.1256   19.5855   20.2470 H   0  0  0  0  0  0  0  0  0  0  0  0
   20.6282   19.1001   19.4489 H   0  0  0  0  0  0  0  0  0  0  0  0
   19.4532   17.8637   19.9376 H   0  0  0  0  0  0  0  0  0  0  0  0
   20.6169   18.7013   21.5984 C   0  0  0  0  0  0  0  0  0  0  0  0
   21.0337   19.6760   21.8826 H   0  0  0  0  0  0  0  0  0  0  0  0
   21.4796   18.0290   21.4912 H   0  0  0  0  0  0  0  0  0  0  0  0
   19.7055   18.1501   22.7259 C   0  0  0  0  0  0  0  0  0  0  0  0
   19.4142   17.1233   22.4653 H   0  0  0  0  0  0  0  0  0  0  0  0
   20.3021   18.0652   23.6409 H   0  0  0  0  0  0  0  0  0  0  0  0
   18.4136   18.9685   23.0052 C   0  0  0  0  0  0  0  0  0  0  0  0
   17.7756   18.4212   23.7115 H   0  0  0  0  0  0  0  0  0  0  0  0
   17.8252   19.0191   22.0801 H   0  0  0  0  0  0  0  0  0  0  0  0
   18.6428   20.4123   23.5281 C   0  0  0  0  0  0  0  0  0  0  0  0
   19.5753   20.8302   23.1307 H   0  0  0  0  0  0  0  0  0  0  0  0
   17.8460   21.0463   23.1153 H   0  0  0  0  0  0  0  0  0  0  0  0
   18.6082   20.5824   25.0708 C   0  0  0  0  0  0  0  0  0  0  0  0
   17.6212   20.2947   25.4588 H   0  0  0  0  0  0  0  0  0  0  0  0
   18.7065   21.6558   25.2842 H   0  0  0  0  0  0  0  0  0  0  0  0
   19.7197   19.8381   25.8503 C   0  0  0  0  0  0  0  0  0  0  0  0
   20.6531   19.8405   25.2724 H   0  0  0  0  0  0  0  0  0  0  0  0
   19.9283   20.3911   26.7758 H   0  0  0  0  0  0  0  0  0  0  0  0
   19.3203   18.4004   26.2344 C   0  0  0  0  0  0  0  0  0  0  0  0
   19.0872   17.8221   25.3382 H   0  0  0  0  0  0  0  0  0  0  0  0
   18.4279   18.4249   26.8655 H   0  0  0  0  0  0  0  0  0  0  0  0
   20.4073   17.6665   26.9925 N   0  3  0  0  0  0  0  0  0  0  0  0
   21.2697   17.5871   26.4439 H   0  0  0  0  0  0  0  0  0  0  0  0
   20.1211   16.7132   27.2412 H   0  0  0  0  0  0  0  0  0  0  0  0
   20.6492   18.1431   27.8676 H   0  0  0  0  0  0  0  0  0  0  0  0
  1  2  1  0  0  0  0
  1  3  1  0  0  0  0
  1  4  1  0  0  0  0
  1  5  1  0  0  0  0
  5  6  1  0  0  0  0
  5  7  1  0  0  0  0
  5  8  1  0  0  0  0
  8  9  1  0  0  0  0
  8 10  1  0  0  0  0
  8 11  1  0  0  0  0
 11 12  1  0  0  0  0
 11 13  1  0  0  0  0
 11 14  1  0  0  0  0
 14 15  1  0  0  0  0
 14 16  1  0  0  0  0
 14 17  1  0  0  0  0
 17 18  1  0  0  0  0
 17 19  1  0  0  0  0
 17 20  1  0  0  0  0
 20 21  1  0  0  0  0
 20 22  1  0  0  0  0
 20 23  1  0  0  0  0
 23 24  1  0  0  0  0
 23 25  1  0  0  0  0
 23 26  1  0  0  0  0
 26 27  1  0  0  0  0
 26 28  1  0  0  0  0
 26 29  1  0  0  0  0
M  END
> <VM2 Rank>
458

> <Conf_Id>
1365

> <Probability>
0.00

> <Sum Probability>
100.00

> <Delta G>
7.319

> <G>
65.467

> <E>
27.292

> <-TS>
38.175

> <U+W>
3.147

> <U>
56.055

> <W>
-52.908

> <W(PB)>
-55.294

> <W(SA)>
2.387

> <Valence>
8.794

> <Coulomb>
46.637

> <VdW>
0.624

> <VdW6>
-11.455

> <VdW12>
12.079

> <Bond>
0.377

> <Angle>
2.632

> <Pdih>
5.785

> <Idih>
0.000

> <Tether>
0.000

$$$$
VeraChem MOL file


 29 28  0  0  0  0  0  0  0  0999 V2000     
   20.6170   18.9363   19.8445 C   0  0  0  0  0  0  0  0  0  0  0  0
   21.5672   18.4798   20.1514 H   0  0  0  0  0  0  0  0  0  0  0  0
   20.2381   18.3768   18.9794 H   0  0  0  0  0  0  0  0  0  0  0  0
   20.8211   19.9642   19.5177 H   0  0  0  0  0  0  0  0  0  0  0  0
   19.5929   18.9137   20.9989 C   0  0  0  0  0  0  0  0  0  0  0  0
   19.3846   17.8702   21.2705 H   0  0  0  0  0  0  0  0  0  0  0  0
   18.6448   19.3488   20.6533 H   0  0  0  0  0  0  0  0  0  0  0  0
   20.1067   19.6937   22.2318 C   0  0  0  0  0  0  0  0  0  0  0  0
   21.0306   19.2289   22.6020 H   0  0  0  0  0  0  0  0  0  0  0  0
   20.3770   20.7128   21.9222 H   0  0  0  0  0  0  0  0  0  0  0  0
   19.0708   19.7868   23.3786 C   0  0  0  0  0  0  0  0  0  0  0  0
   18.1616   20.2800   23.0076 H   0  0  0  0  0  0  0  0  0  0  0  0
   19.4668   20.4497   24.1568 H   0  0  0  0  0  0  0  0  0  0  0  0
   18.6927   18.4095   23.9827 C   0  0  0  0  0  0  0  0  0  0  0  0
   18.0933   17.8626   23.2425 H   0  0  0  0  0  0  0  0  0  0  0  0
   19.5854   17.7942   24.1565 H   0  0  0  0  0  0  0  0  0  0  0  0
   17.8607   18.5251   25.2855 C   0  0  0  0  0  0  0  0  0  0  0  0
   17.1214   17.7121   25.2898 H   0  0  0  0  0  0  0  0  0  0  0  0
   17.2746   19.4546   25.2793 H   0  0  0  0  0  0  0  0  0  0  0  0
   18.6734   18.4190   26.6038 C   0  0  0  0  0  0  0  0  0  0  0  0
   17.9623   18.4540   27.4398 H   0  0  0  0  0  0  0  0  0  0  0  0
   19.1625   17.4380   26.6683 H   0  0  0  0  0  0  0  0  0  0  0  0
   19.7135   19.5354   26.8266 C   0  0  0  0  0  0  0  0  0  0  0  0
   19.9581   19.5895   27.8909 H   0  0  0  0  0  0  0  0  0  0  0  0
   19.2945   20.4989   26.5246 H   0  0  0  0  0  0  0  0  0  0  0  0
   21.0163   19.3186   26.0826 N   0  3  0  0  0  0  0  0  0  0  0  0
   21.4816   18.4540   26.3786 H   0  0  0  0  0  0  0  0  0  0  0  0
   21.6784   20.0861   26.2416 H   0  0  0  0  0  0  0  0  0  0  0  0
   20.8575   19.2510   25.0719 H   0  0  0  0  0  0  0  0  0  0  0  0
  1  2  1  0  0  0  0
  1  3  1  0  0  0  0
  1  4  1  0  0  0  0
  1  5  1  0  0  0  0
  5  6  1  0  0  0  0
  5  7  1  0  0  0  0
  5  8  1  0  0  0  0
  8  9  1  0  0  0  0
  8 10  1  0  0  0  0
  8 11  1  0  0  0  0
 11 12  1  0  0  0  0
 11 13  1  0  0  0  0
 11 14  1  0  0  0  0
 14 15  1  0  0  0  0
 14 16  1  0  0  0  0
 14 17  1  0  0  0  0
 17 18  1  0  0  0  0
 17 19  1  0  0  0  0
 17 20  1  0  0  0  0
 20 21  1  0  0  0  0
 20 22  1  0  0  0  0
 20 23  1  0  0  0  0
 23 24  1  0  0  0  0
 23 25  1  0  0  0  0
 23 26  1  0  0  0  0
 26 27  1  0  0  0  0
 26 28  1  0  0  0  0
 26 29  1  0  0  0  0
M  END
> <VM2 Rank>
459

> <Conf_Id>
318

> <Probability>
0.00

> <Sum Probability>
100.00

> <Delta G>
7.469

> <G>
65.617

> <E>
27.471

> <-TS>
38.146

> <U+W>
3.327

> <U>
54.962

> <W>
-51.635

> <W(PB)>
-54.074

> <W(SA)>
2.439

> <Valence>
7.165

> <Coulomb>
47.155

> <VdW>
0.641

> <VdW6>
-10.821

> <VdW12>
11.462

> <Bond>
0.290

> <Angle>
1.664

> <Pdih>
5.210

> <Idih>
0.000

> <Tether>
0.000

$$$$
VeraChem MOL file


 29 28  0  0  0  0  0  0  0  0999 V2000     
   21.0258   20.0210   21.0921 C   0  0  0  0  0  0  0  0  0  0  0  0
   21.6666   19.6390   21.8963 H   0  0  0  0  0  0  0  0  0  0  0  0
   21.6583   20.1634   20.2064 H   0  0  0  0  0  0  0  0  0  0  0  0
   20.6440   21.0050   21.3938 H   0  0  0  0  0  0  0  0  0  0  0  0
   19.8671   19.0477   20.7779 C   0  0  0  0  0  0  0  0  0  0  0  0
   20.2737   18.0622   20.5111 H   0  0  0  0  0  0  0  0  0  0  0  0
   19.3317   19.4101   19.8892 H   0  0  0  0  0  0  0  0  0  0  0  0
   18.8560   18.9006   21.9404 C   0  0  0  0  0  0  0  0  0  0  0  0
   18.4383   19.8869   22.1801 H   0  0  0  0  0  0  0  0  0  0  0  0
   18.0145   18.2855   21.5932 H   0  0  0  0  0  0  0  0  0  0  0  0
   19.4685   18.2520   23.2079 C   0  0  0  0  0  0  0  0  0  0  0  0
   20.2677   18.8916   23.5973 H   0  0  0  0  0  0  0  0  0  0  0  0
   19.9381   17.3004   22.9228 H   0  0  0  0  0  0  0  0  0  0  0  0
   18.4169   17.9728   24.3137 C   0  0  0  0  0  0  0  0  0  0  0  0
   17.5580   17.4661   23.8522 H   0  0  0  0  0  0  0  0  0  0  0  0
   18.8153   17.2540   25.0419 H   0  0  0  0  0  0  0  0  0  0  0  0
   17.9112   19.2398   25.0544 C   0  0  0  0  0  0  0  0  0  0  0  0
   16.8471   19.0938   25.2862 H   0  0  0  0  0  0  0  0  0  0  0  0
   17.9485   20.1161   24.3952 H   0  0  0  0  0  0  0  0  0  0  0  0
   18.6354   19.5619   26.3886 C   0  0  0  0  0  0  0  0  0  0  0  0
   18.1440   20.4376   26.8331 H   0  0  0  0  0  0  0  0  0  0  0  0
   18.4919   18.7427   27.1058 H   0  0  0  0  0  0  0  0  0  0  0  0
   20.1372   19.8846   26.2562 C   0  0  0  0  0  0  0  0  0  0  0  0
   20.4545   20.4718   27.1222 H   0  0  0  0  0  0  0  0  0  0  0  0
   20.3111   20.4823   25.3574 H   0  0  0  0  0  0  0  0  0  0  0  0
   21.0260   18.6577   26.2037 N   0  3  0  0  0  0  0  0  0  0  0  0
   20.7783   18.0520   25.4150 H   0  0  0  0  0  0  0  0  0  0  0  0
   20.9452   18.0954   27.0574 H   0  0  0  0  0  0  0  0  0  0  0  0
   22.0158   18.9080   26.1020 H   0  0  0  0  0  0  0  0  0  0  0  0
  1  2  1  0  0  0  0
  1  3  1  0  0  0  0
  1  4  1  0  0  0  0
  1  5  1  0  0  0  0
  5  6  1  0  0  0  0
  5  7  1  0  0  0  0
  5  8  1  0  0  0  0
  8  9  1  0  0  0  0
  8 10  1  0  0  0  0
  8 11  1  0  0  0  0
 11 12  1  0  0  0  0
 11 13  1  0  0  0  0
 11 14  1  0  0  0  0
 14 15  1  0  0  0  0
 14 16  1  0  0  0  0
 14 17  1  0  0  0  0
 17 18  1  0  0  0  0
 17 19  1  0  0  0  0
 17 20  1  0  0  0  0
 20 21  1  0  0  0  0
 20 22  1  0  0  0  0
 20 23  1  0  0  0  0
 23 24  1  0  0  0  0
 23 25  1  0  0  0  0
 23 26  1  0  0  0  0
 26 27  1  0  0  0  0
 26 28  1  0  0  0  0
 26 29  1  0  0  0  0
M  END
> <VM2 Rank>
460

> <Conf_Id>
991

> <Probability>
0.00

> <Sum Probability>
100.00

> <Delta G>
7.521

> <G>
65.669

> <E>
27.575

> <-TS>
38.094

> <U+W>
3.431

> <U>
55.776

> <W>
-52.345

> <W(PB)>
-54.721

> <W(SA)>
2.376

> <Valence>
7.842

> <Coulomb>
47.177

> <VdW>
0.757

> <VdW6>
-11.138

> <VdW12>
11.895

> <Bond>
0.338

> <Angle>
1.836

> <Pdih>
5.668

> <Idih>
0.000

> <Tether>
0.000

$$$$
VeraChem MOL file


 29 28  0  0  0  0  0  0  0  0999 V2000     
   19.7994   17.8369   20.2841 C   0  0  0  0  0  0  0  0  0  0  0  0
   20.2623   17.1365   20.9903 H   0  0  0  0  0  0  0  0  0  0  0  0
   19.3318   17.2420   19.4889 H   0  0  0  0  0  0  0  0  0  0  0  0
   20.5938   18.4419   19.8280 H   0  0  0  0  0  0  0  0  0  0  0  0
   18.7483   18.7323   20.9784 C   0  0  0  0  0  0  0  0  0  0  0  0
   17.9836   18.1030   21.4547 H   0  0  0  0  0  0  0  0  0  0  0  0
   18.2265   19.3234   20.2128 H   0  0  0  0  0  0  0  0  0  0  0  0
   19.3553   19.6995   22.0232 C   0  0  0  0  0  0  0  0  0  0  0  0
   20.1028   20.3406   21.5362 H   0  0  0  0  0  0  0  0  0  0  0  0
   18.5594   20.3690   22.3736 H   0  0  0  0  0  0  0  0  0  0  0  0
   19.9992   18.9742   23.2321 C   0  0  0  0  0  0  0  0  0  0  0  0
   20.8440   18.3695   22.8773 H   0  0  0  0  0  0  0  0  0  0  0  0
   19.2720   18.2765   23.6641 H   0  0  0  0  0  0  0  0  0  0  0  0
   20.5246   19.9550   24.3129 C   0  0  0  0  0  0  0  0  0  0  0  0
   21.2587   19.4520   24.9561 H   0  0  0  0  0  0  0  0  0  0  0  0
   21.0855   20.7544   23.8091 H   0  0  0  0  0  0  0  0  0  0  0  0
   19.4155   20.5955   25.1900 C   0  0  0  0  0  0  0  0  0  0  0  0
   18.4744   20.6736   24.6310 H   0  0  0  0  0  0  0  0  0  0  0  0
   19.7128   21.6303   25.4093 H   0  0  0  0  0  0  0  0  0  0  0  0
   19.1555   19.8901   26.5477 C   0  0  0  0  0  0  0  0  0  0  0  0
   20.0617   19.9134   27.1675 H   0  0  0  0  0  0  0  0  0  0  0  0
   18.4054   20.4787   27.0925 H   0  0  0  0  0  0  0  0  0  0  0  0
   18.6299   18.4444   26.4424 C   0  0  0  0  0  0  0  0  0  0  0  0
   17.9070   18.3706   25.6256 H   0  0  0  0  0  0  0  0  0  0  0  0
   18.1201   18.1805   27.3730 H   0  0  0  0  0  0  0  0  0  0  0  0
   19.7163   17.4101   26.2241 N   0  3  0  0  0  0  0  0  0  0  0  0
   20.2443   17.6008   25.3667 H   0  0  0  0  0  0  0  0  0  0  0  0
   19.3304   16.4628   26.1448 H   0  0  0  0  0  0  0  0  0  0  0  0
   20.3873   17.3968   26.9994 H   0  0  0  0  0  0  0  0  0  0  0  0
  1  2  1  0  0  0  0
  1  3  1  0  0  0  0
  1  4  1  0  0  0  0
  1  5  1  0  0  0  0
  5  6  1  0  0  0  0
  5  7  1  0  0  0  0
  5  8  1  0  0  0  0
  8  9  1  0  0  0  0
  8 10  1  0  0  0  0
  8 11  1  0  0  0  0
 11 12  1  0  0  0  0
 11 13  1  0  0  0  0
 11 14  1  0  0  0  0
 14 15  1  0  0  0  0
 14 16  1  0  0  0  0
 14 17  1  0  0  0  0
 17 18  1  0  0  0  0
 17 19  1  0  0  0  0
 17 20  1  0  0  0  0
 20 21  1  0  0  0  0
 20 22  1  0  0  0  0
 20 23  1  0  0  0  0
 23 24  1  0  0  0  0
 23 25  1  0  0  0  0
 23 26  1  0  0  0  0
 26 27  1  0  0  0  0
 26 28  1  0  0  0  0
 26 29  1  0  0  0  0
M  END
> <VM2 Rank>
461

> <Conf_Id>
804

> <Probability>
0.00

> <Sum Probability>
100.00

> <Delta G>
7.598

> <G>
65.746

> <E>
27.618

> <-TS>
38.129

> <U+W>
3.473

> <U>
55.775

> <W>
-52.302

> <W(PB)>
-54.712

> <W(SA)>
2.410

> <Valence>
7.940

> <Coulomb>
46.996

> <VdW>
0.839

> <VdW6>
-11.015

> <VdW12>
11.854

> <Bond>
0.334

> <Angle>
1.815

> <Pdih>
5.790

> <Idih>
0.000

> <Tether>
0.000

$$$$
VeraChem MOL file


 29 28  0  0  0  0  0  0  0  0999 V2000     
   20.5520   19.9506   20.3316 C   0  0  0  0  0  0  0  0  0  0  0  0
   20.5765   20.7380   19.5673 H   0  0  0  0  0  0  0  0  0  0  0  0
   21.3430   20.1726   21.0585 H   0  0  0  0  0  0  0  0  0  0  0  0
   20.7922   18.9986   19.8406 H   0  0  0  0  0  0  0  0  0  0  0  0
   19.1618   19.8935   21.0043 C   0  0  0  0  0  0  0  0  0  0  0  0
   18.3949   19.7956   20.2233 H   0  0  0  0  0  0  0  0  0  0  0  0
   18.9595   20.8448   21.5160 H   0  0  0  0  0  0  0  0  0  0  0  0
   19.0066   18.7197   22.0013 C   0  0  0  0  0  0  0  0  0  0  0  0
   17.9618   18.6901   22.3360 H   0  0  0  0  0  0  0  0  0  0  0  0
   19.1880   17.7705   21.4787 H   0  0  0  0  0  0  0  0  0  0  0  0
   19.9467   18.8266   23.2289 C   0  0  0  0  0  0  0  0  0  0  0  0
   19.8177   19.8091   23.6983 H   0  0  0  0  0  0  0  0  0  0  0  0
   20.9885   18.7752   22.8865 H   0  0  0  0  0  0  0  0  0  0  0  0
   19.7190   17.6927   24.2625 C   0  0  0  0  0  0  0  0  0  0  0  0
   19.6558   16.7394   23.7196 H   0  0  0  0  0  0  0  0  0  0  0  0
   20.5967   17.5928   24.9146 H   0  0  0  0  0  0  0  0  0  0  0  0
   18.4424   17.8627   25.1291 C   0  0  0  0  0  0  0  0  0  0  0  0
   18.0160   16.8652   25.3031 H   0  0  0  0  0  0  0  0  0  0  0  0
   17.6715   18.4189   24.5806 H   0  0  0  0  0  0  0  0  0  0  0  0
   18.6674   18.5195   26.5170 C   0  0  0  0  0  0  0  0  0  0  0  0
   17.7065   18.5162   27.0487 H   0  0  0  0  0  0  0  0  0  0  0  0
   19.3462   17.9045   27.1227 H   0  0  0  0  0  0  0  0  0  0  0  0
   19.1748   19.9749   26.4764 C   0  0  0  0  0  0  0  0  0  0  0  0
   18.9333   20.4645   27.4237 H   0  0  0  0  0  0  0  0  0  0  0  0
   18.6728   20.5210   25.6734 H   0  0  0  0  0  0  0  0  0  0  0  0
   20.6733   20.0978   26.2839 N   0  3  0  0  0  0  0  0  0  0  0  0
   21.1909   19.6536   27.0496 H   0  0  0  0  0  0  0  0  0  0  0  0
   20.9739   21.0782   26.2475 H   0  0  0  0  0  0  0  0  0  0  0  0
   20.9742   19.6506   25.4123 H   0  0  0  0  0  0  0  0  0  0  0  0
  1  2  1  0  0  0  0
  1  3  1  0  0  0  0
  1  4  1  0  0  0  0
  1  5  1  0  0  0  0
  5  6  1  0  0  0  0
  5  7  1  0  0  0  0
  5  8  1  0  0  0  0
  8  9  1  0  0  0  0
  8 10  1  0  0  0  0
  8 11  1  0  0  0  0
 11 12  1  0  0  0  0
 11 13  1  0  0  0  0
 11 14  1  0  0  0  0
 14 15  1  0  0  0  0
 14 16  1  0  0  0  0
 14 17  1  0  0  0  0
 17 18  1  0  0  0  0
 17 19  1  0  0  0  0
 17 20  1  0  0  0  0
 20 21  1  0  0  0  0
 20 22  1  0  0  0  0
 20 23  1  0  0  0  0
 23 24  1  0  0  0  0
 23 25  1  0  0  0  0
 23 26  1  0  0  0  0
 26 27  1  0  0  0  0
 26 28  1  0  0  0  0
 26 29  1  0  0  0  0
M  END
> <VM2 Rank>
462

> <Conf_Id>
809

> <Probability>
0.00

> <Sum Probability>
100.00

> <Delta G>
7.635

> <G>
65.783

> <E>
27.654

> <-TS>
38.129

> <U+W>
3.510

> <U>
55.775

> <W>
-52.265

> <W(PB)>
-54.678

> <W(SA)>
2.413

> <Valence>
7.939

> <Coulomb>
46.996

> <VdW>
0.840

> <VdW6>
-11.015

> <VdW12>
11.855

> <Bond>
0.334

> <Angle>
1.815

> <Pdih>
5.790

> <Idih>
0.000

> <Tether>
0.000

$$$$
VeraChem MOL file


 29 28  0  0  0  0  0  0  0  0999 V2000     
   21.0683   19.0496   21.4221 C   0  0  0  0  0  0  0  0  0  0  0  0
   21.4874   18.8422   22.4145 H   0  0  0  0  0  0  0  0  0  0  0  0
   21.8478   18.8398   20.6784 H   0  0  0  0  0  0  0  0  0  0  0  0
   20.8350   20.1185   21.3534 H   0  0  0  0  0  0  0  0  0  0  0  0
   19.8186   18.1856   21.1482 C   0  0  0  0  0  0  0  0  0  0  0  0
   20.1381   17.1432   21.0103 H   0  0  0  0  0  0  0  0  0  0  0  0
   19.3674   18.4925   20.1944 H   0  0  0  0  0  0  0  0  0  0  0  0
   18.7446   18.2210   22.2659 C   0  0  0  0  0  0  0  0  0  0  0  0
   17.9442   17.5319   21.9630 H   0  0  0  0  0  0  0  0  0  0  0  0
   19.1457   17.7993   23.1938 H   0  0  0  0  0  0  0  0  0  0  0  0
   18.0963   19.6091   22.5189 C   0  0  0  0  0  0  0  0  0  0  0  0
   17.0662   19.4480   22.8657 H   0  0  0  0  0  0  0  0  0  0  0  0
   18.0015   20.1446   21.5644 H   0  0  0  0  0  0  0  0  0  0  0  0
   18.8054   20.5240   23.5551 C   0  0  0  0  0  0  0  0  0  0  0  0
   19.8128   20.7953   23.2208 H   0  0  0  0  0  0  0  0  0  0  0  0
   18.2502   21.4717   23.5861 H   0  0  0  0  0  0  0  0  0  0  0  0
   18.8499   19.9503   24.9960 C   0  0  0  0  0  0  0  0  0  0  0  0
   18.0876   19.1688   25.1125 H   0  0  0  0  0  0  0  0  0  0  0  0
   18.5738   20.7487   25.6988 H   0  0  0  0  0  0  0  0  0  0  0  0
   20.2486   19.4166   25.3964 C   0  0  0  0  0  0  0  0  0  0  0  0
   20.5712   18.6188   24.7179 H   0  0  0  0  0  0  0  0  0  0  0  0
   20.9851   20.2248   25.2959 H   0  0  0  0  0  0  0  0  0  0  0  0
   20.2921   18.8994   26.8468 C   0  0  0  0  0  0  0  0  0  0  0  0
   19.9668   19.6892   27.5293 H   0  0  0  0  0  0  0  0  0  0  0  0
   21.3192   18.6271   27.1045 H   0  0  0  0  0  0  0  0  0  0  0  0
   19.4203   17.6823   27.0855 N   0  3  0  0  0  0  0  0  0  0  0  0
   18.4334   17.8798   26.8930 H   0  0  0  0  0  0  0  0  0  0  0  0
   19.4782   17.3579   28.0571 H   0  0  0  0  0  0  0  0  0  0  0  0
   19.6950   16.8947   26.4895 H   0  0  0  0  0  0  0  0  0  0  0  0
  1  2  1  0  0  0  0
  1  3  1  0  0  0  0
  1  4  1  0  0  0  0
  1  5  1  0  0  0  0
  5  6  1  0  0  0  0
  5  7  1  0  0  0  0
  5  8  1  0  0  0  0
  8  9  1  0  0  0  0
  8 10  1  0  0  0  0
  8 11  1  0  0  0  0
 11 12  1  0  0  0  0
 11 13  1  0  0  0  0
 11 14  1  0  0  0  0
 14 15  1  0  0  0  0
 14 16  1  0  0  0  0
 14 17  1  0  0  0  0
 17 18  1  0  0  0  0
 17 19  1  0  0  0  0
 17 20  1  0  0  0  0
 20 21  1  0  0  0  0
 20 22  1  0  0  0  0
 20 23  1  0  0  0  0
 23 24  1  0  0  0  0
 23 25  1  0  0  0  0
 23 26  1  0  0  0  0
 26 27  1  0  0  0  0
 26 28  1  0  0  0  0
 26 29  1  0  0  0  0
M  END
> <VM2 Rank>
463

> <Conf_Id>
314

> <Probability>
0.00

> <Sum Probability>
100.00

> <Delta G>
7.686

> <G>
65.834

> <E>
27.734

> <-TS>
38.101

> <U+W>
3.589

> <U>
56.283

> <W>
-52.693

> <W(PB)>
-55.050

> <W(SA)>
2.357

> <Valence>
9.282

> <Coulomb>
46.298

> <VdW>
0.702

> <VdW6>
-10.956

> <VdW12>
11.659

> <Bond>
0.368

> <Angle>
2.493

> <Pdih>
6.421

> <Idih>
0.000

> <Tether>
0.000

$$$$
VeraChem MOL file


 29 28  0  0  0  0  0  0  0  0999 V2000     
   21.2931   18.5738   21.5875 C   0  0  0  0  0  0  0  0  0  0  0  0
   21.8085   17.9026   20.8884 H   0  0  0  0  0  0  0  0  0  0  0  0
   21.9653   19.4159   21.7980 H   0  0  0  0  0  0  0  0  0  0  0  0
   21.1368   18.0244   22.5226 H   0  0  0  0  0  0  0  0  0  0  0  0
   19.9609   19.0697   20.9793 C   0  0  0  0  0  0  0  0  0  0  0  0
   19.3284   18.2146   20.7035 H   0  0  0  0  0  0  0  0  0  0  0  0
   20.1883   19.5912   20.0390 H   0  0  0  0  0  0  0  0  0  0  0  0
   19.1891   20.0390   21.9122 C   0  0  0  0  0  0  0  0  0  0  0  0
   19.8728   20.4868   22.6416 H   0  0  0  0  0  0  0  0  0  0  0  0
   18.8312   20.8803   21.3028 H   0  0  0  0  0  0  0  0  0  0  0  0
   17.9482   19.4143   22.6085 C   0  0  0  0  0  0  0  0  0  0  0  0
   17.2638   19.0698   21.8210 H   0  0  0  0  0  0  0  0  0  0  0  0
   17.3990   20.1974   23.1488 H   0  0  0  0  0  0  0  0  0  0  0  0
   18.2215   18.2227   23.5659 C   0  0  0  0  0  0  0  0  0  0  0  0
   17.3330   17.5764   23.5528 H   0  0  0  0  0  0  0  0  0  0  0  0
   19.0344   17.5938   23.1865 H   0  0  0  0  0  0  0  0  0  0  0  0
   18.4820   18.6040   25.0466 C   0  0  0  0  0  0  0  0  0  0  0  0
   18.5867   17.6722   25.6174 H   0  0  0  0  0  0  0  0  0  0  0  0
   17.5965   19.1116   25.4533 H   0  0  0  0  0  0  0  0  0  0  0  0
   19.7285   19.4915   25.2780 C   0  0  0  0  0  0  0  0  0  0  0  0
   20.6025   19.0606   24.7729 H   0  0  0  0  0  0  0  0  0  0  0  0
   19.5556   20.4805   24.8377 H   0  0  0  0  0  0  0  0  0  0  0  0
   20.0452   19.6951   26.7721 C   0  0  0  0  0  0  0  0  0  0  0  0
   19.1647   20.0917   27.2847 H   0  0  0  0  0  0  0  0  0  0  0  0
   20.8556   20.4220   26.8743 H   0  0  0  0  0  0  0  0  0  0  0  0
   20.4754   18.4279   27.4848 N   0  3  0  0  0  0  0  0  0  0  0  0
   19.7438   17.7108   27.4590 H   0  0  0  0  0  0  0  0  0  0  0  0
   20.6913   18.6015   28.4726 H   0  0  0  0  0  0  0  0  0  0  0  0
   21.3153   18.0198   27.0615 H   0  0  0  0  0  0  0  0  0  0  0  0
  1  2  1  0  0  0  0
  1  3  1  0  0  0  0
  1  4  1  0  0  0  0
  1  5  1  0  0  0  0
  5  6  1  0  0  0  0
  5  7  1  0  0  0  0
  5  8  1  0  0  0  0
  8  9  1  0  0  0  0
  8 10  1  0  0  0  0
  8 11  1  0  0  0  0
 11 12  1  0  0  0  0
 11 13  1  0  0  0  0
 11 14  1  0  0  0  0
 14 15  1  0  0  0  0
 14 16  1  0  0  0  0
 14 17  1  0  0  0  0
 17 18  1  0  0  0  0
 17 19  1  0  0  0  0
 17 20  1  0  0  0  0
 20 21  1  0  0  0  0
 20 22  1  0  0  0  0
 20 23  1  0  0  0  0
 23 24  1  0  0  0  0
 23 25  1  0  0  0  0
 23 26  1  0  0  0  0
 26 27  1  0  0  0  0
 26 28  1  0  0  0  0
 26 29  1  0  0  0  0
M  END
> <VM2 Rank>
464

> <Conf_Id>
556

> <Probability>
0.00

> <Sum Probability>
100.00

> <Delta G>
7.717

> <G>
65.865

> <E>
27.810

> <-TS>
38.055

> <U+W>
3.665

> <U>
56.009

> <W>
-52.344

> <W(PB)>
-54.711

> <W(SA)>
2.367

> <Valence>
9.385

> <Coulomb>
45.773

> <VdW>
0.851

> <VdW6>
-10.858

> <VdW12>
11.708

> <Bond>
0.370

> <Angle>
2.540

> <Pdih>
6.476

> <Idih>
0.000

> <Tether>
0.000

$$$$
VeraChem MOL file


 29 28  0  0  0  0  0  0  0  0999 V2000     
   21.2989   18.9800   21.7920 C   0  0  0  0  0  0  0  0  0  0  0  0
   22.0738   18.6143   21.1060 H   0  0  0  0  0  0  0  0  0  0  0  0
   21.6904   19.8792   22.2847 H   0  0  0  0  0  0  0  0  0  0  0  0
   21.1468   18.2084   22.5530 H   0  0  0  0  0  0  0  0  0  0  0  0
   20.0004   19.2939   21.0157 C   0  0  0  0  0  0  0  0  0  0  0  0
   19.6359   18.3901   20.5082 H   0  0  0  0  0  0  0  0  0  0  0  0
   20.2542   20.0044   20.2165 H   0  0  0  0  0  0  0  0  0  0  0  0
   18.8723   19.9181   21.8791 C   0  0  0  0  0  0  0  0  0  0  0  0
   19.2832   20.5685   22.6596 H   0  0  0  0  0  0  0  0  0  0  0  0
   18.3006   20.5910   21.2251 H   0  0  0  0  0  0  0  0  0  0  0  0
   17.8566   18.9024   22.4666 C   0  0  0  0  0  0  0  0  0  0  0  0
   17.4792   18.2776   21.6456 H   0  0  0  0  0  0  0  0  0  0  0  0
   16.9816   19.4573   22.8319 H   0  0  0  0  0  0  0  0  0  0  0  0
   18.3537   17.9707   23.6037 C   0  0  0  0  0  0  0  0  0  0  0  0
   17.5661   17.2212   23.7625 H   0  0  0  0  0  0  0  0  0  0  0  0
   19.2309   17.3935   23.2901 H   0  0  0  0  0  0  0  0  0  0  0  0
   18.5993   18.6715   24.9667 C   0  0  0  0  0  0  0  0  0  0  0  0
   18.3213   17.9658   25.7606 H   0  0  0  0  0  0  0  0  0  0  0  0
   17.9237   19.5309   25.0761 H   0  0  0  0  0  0  0  0  0  0  0  0
   20.0656   19.1126   25.1989 C   0  0  0  0  0  0  0  0  0  0  0  0
   20.7348   18.2454   25.1245 H   0  0  0  0  0  0  0  0  0  0  0  0
   20.3756   19.8145   24.4191 H   0  0  0  0  0  0  0  0  0  0  0  0
   20.2693   19.8002   26.5626 C   0  0  0  0  0  0  0  0  0  0  0  0
   19.5934   20.6553   26.6482 H   0  0  0  0  0  0  0  0  0  0  0  0
   21.2963   20.1688   26.6326 H   0  0  0  0  0  0  0  0  0  0  0  0
   20.0278   18.8886   27.7497 N   0  3  0  0  0  0  0  0  0  0  0  0
   19.0664   18.5343   27.7661 H   0  0  0  0  0  0  0  0  0  0  0  0
   20.1848   19.3734   28.6401 H   0  0  0  0  0  0  0  0  0  0  0  0
   20.6511   18.0746   27.7374 H   0  0  0  0  0  0  0  0  0  0  0  0
  1  2  1  0  0  0  0
  1  3  1  0  0  0  0
  1  4  1  0  0  0  0
  1  5  1  0  0  0  0
  5  6  1  0  0  0  0
  5  7  1  0  0  0  0
  5  8  1  0  0  0  0
  8  9  1  0  0  0  0
  8 10  1  0  0  0  0
  8 11  1  0  0  0  0
 11 12  1  0  0  0  0
 11 13  1  0  0  0  0
 11 14  1  0  0  0  0
 14 15  1  0  0  0  0
 14 16  1  0  0  0  0
 14 17  1  0  0  0  0
 17 18  1  0  0  0  0
 17 19  1  0  0  0  0
 17 20  1  0  0  0  0
 20 21  1  0  0  0  0
 20 22  1  0  0  0  0
 20 23  1  0  0  0  0
 23 24  1  0  0  0  0
 23 25  1  0  0  0  0
 23 26  1  0  0  0  0
 26 27  1  0  0  0  0
 26 28  1  0  0  0  0
 26 29  1  0  0  0  0
M  END
> <VM2 Rank>
465

> <Conf_Id>
540

> <Probability>
0.00

> <Sum Probability>
100.00

> <Delta G>
7.825

> <G>
65.973

> <E>
27.739

> <-TS>
38.234

> <U+W>
3.595

> <U>
55.967

> <W>
-52.373

> <W(PB)>
-54.702

> <W(SA)>
2.329

> <Valence>
9.671

> <Coulomb>
45.821

> <VdW>
0.475

> <VdW6>
-11.065

> <VdW12>
11.540

> <Bond>
0.362

> <Angle>
3.136

> <Pdih>
6.173

> <Idih>
0.000

> <Tether>
0.000

$$$$
VeraChem MOL file


 29 28  0  0  0  0  0  0  0  0999 V2000     
   20.6746   19.6749   20.6890 C   0  0  0  0  0  0  0  0  0  0  0  0
   21.4411   20.1010   21.3492 H   0  0  0  0  0  0  0  0  0  0  0  0
   21.1028   19.6013   19.6810 H   0  0  0  0  0  0  0  0  0  0  0  0
   19.8338   20.3778   20.6395 H   0  0  0  0  0  0  0  0  0  0  0  0
   20.2228   18.2835   21.1874 C   0  0  0  0  0  0  0  0  0  0  0  0
   21.0687   17.5867   21.1057 H   0  0  0  0  0  0  0  0  0  0  0  0
   19.4367   17.8912   20.5273 H   0  0  0  0  0  0  0  0  0  0  0  0
   19.7238   18.2896   22.6522 C   0  0  0  0  0  0  0  0  0  0  0  0
   19.5354   17.2510   22.9559 H   0  0  0  0  0  0  0  0  0  0  0  0
   20.5262   18.6642   23.2959 H   0  0  0  0  0  0  0  0  0  0  0  0
   18.4301   19.1187   22.8541 C   0  0  0  0  0  0  0  0  0  0  0  0
   17.6842   18.7618   22.1305 H   0  0  0  0  0  0  0  0  0  0  0  0
   18.6049   20.1748   22.6113 H   0  0  0  0  0  0  0  0  0  0  0  0
   17.8160   19.0035   24.2746 C   0  0  0  0  0  0  0  0  0  0  0  0
   16.7242   19.0584   24.1627 H   0  0  0  0  0  0  0  0  0  0  0  0
   18.0024   18.0139   24.7063 H   0  0  0  0  0  0  0  0  0  0  0  0
   18.2194   20.1363   25.2570 C   0  0  0  0  0  0  0  0  0  0  0  0
   17.5999   20.0535   26.1608 H   0  0  0  0  0  0  0  0  0  0  0  0
   17.9450   21.0984   24.8029 H   0  0  0  0  0  0  0  0  0  0  0  0
   19.7080   20.2071   25.6869 C   0  0  0  0  0  0  0  0  0  0  0  0
   20.3718   20.2648   24.8172 H   0  0  0  0  0  0  0  0  0  0  0  0
   19.8492   21.1563   26.2205 H   0  0  0  0  0  0  0  0  0  0  0  0
   20.1495   19.0821   26.6469 C   0  0  0  0  0  0  0  0  0  0  0  0
   19.3915   18.9445   27.4226 H   0  0  0  0  0  0  0  0  0  0  0  0
   21.0821   19.3767   27.1356 H   0  0  0  0  0  0  0  0  0  0  0  0
   20.3998   17.7423   25.9868 N   0  3  0  0  0  0  0  0  0  0  0  0
   19.5656   17.4036   25.4995 H   0  0  0  0  0  0  0  0  0  0  0  0
   20.6647   17.0261   26.6721 H   0  0  0  0  0  0  0  0  0  0  0  0
   21.1579   17.7951   25.2993 H   0  0  0  0  0  0  0  0  0  0  0  0
  1  2  1  0  0  0  0
  1  3  1  0  0  0  0
  1  4  1  0  0  0  0
  1  5  1  0  0  0  0
  5  6  1  0  0  0  0
  5  7  1  0  0  0  0
  5  8  1  0  0  0  0
  8  9  1  0  0  0  0
  8 10  1  0  0  0  0
  8 11  1  0  0  0  0
 11 12  1  0  0  0  0
 11 13  1  0  0  0  0
 11 14  1  0  0  0  0
 14 15  1  0  0  0  0
 14 16  1  0  0  0  0
 14 17  1  0  0  0  0
 17 18  1  0  0  0  0
 17 19  1  0  0  0  0
 17 20  1  0  0  0  0
 20 21  1  0  0  0  0
 20 22  1  0  0  0  0
 20 23  1  0  0  0  0
 23 24  1  0  0  0  0
 23 25  1  0  0  0  0
 23 26  1  0  0  0  0
 26 27  1  0  0  0  0
 26 28  1  0  0  0  0
 26 29  1  0  0  0  0
M  END
> <VM2 Rank>
466

> <Conf_Id>
262

> <Probability>
0.00

> <Sum Probability>
100.00

> <Delta G>
8.127

> <G>
66.275

> <E>
28.285

> <-TS>
37.990

> <U+W>
4.140

> <U>
56.628

> <W>
-52.488

> <W(PB)>
-54.837

> <W(SA)>
2.349

> <Valence>
8.172

> <Coulomb>
48.207

> <VdW>
0.250

> <VdW6>
-11.355

> <VdW12>
11.605

> <Bond>
0.346

> <Angle>
2.767

> <Pdih>
5.058

> <Idih>
0.000

> <Tether>
0.000

$$$$
VeraChem MOL file


 29 28  0  0  0  0  0  0  0  0999 V2000     
   20.4837   17.9847   20.2787 C   0  0  0  0  0  0  0  0  0  0  0  0
   19.6449   17.5134   19.7500 H   0  0  0  0  0  0  0  0  0  0  0  0
   20.7557   18.9016   19.7397 H   0  0  0  0  0  0  0  0  0  0  0  0
   21.3398   17.2992   20.2309 H   0  0  0  0  0  0  0  0  0  0  0  0
   20.1134   18.2929   21.7447 C   0  0  0  0  0  0  0  0  0  0  0  0
   20.9885   18.7254   22.2469 H   0  0  0  0  0  0  0  0  0  0  0  0
   19.8757   17.3523   22.2600 H   0  0  0  0  0  0  0  0  0  0  0  0
   18.9077   19.2584   21.8338 C   0  0  0  0  0  0  0  0  0  0  0  0
   19.1498   20.2038   21.3290 H   0  0  0  0  0  0  0  0  0  0  0  0
   18.0641   18.8225   21.2809 H   0  0  0  0  0  0  0  0  0  0  0  0
   18.4468   19.5477   23.2830 C   0  0  0  0  0  0  0  0  0  0  0  0
   18.2256   18.6038   23.7947 H   0  0  0  0  0  0  0  0  0  0  0  0
   17.4913   20.0885   23.2375 H   0  0  0  0  0  0  0  0  0  0  0  0
   19.4544   20.4058   24.0920 C   0  0  0  0  0  0  0  0  0  0  0  0
   20.4607   19.9700   24.0841 H   0  0  0  0  0  0  0  0  0  0  0  0
   19.5494   21.3771   23.5871 H   0  0  0  0  0  0  0  0  0  0  0  0
   19.0014   20.6569   25.5532 C   0  0  0  0  0  0  0  0  0  0  0  0
   17.9046   20.6424   25.6181 H   0  0  0  0  0  0  0  0  0  0  0  0
   19.2979   21.6780   25.8304 H   0  0  0  0  0  0  0  0  0  0  0  0
   19.6062   19.6955   26.6112 C   0  0  0  0  0  0  0  0  0  0  0  0
   20.6981   19.8074   26.6433 H   0  0  0  0  0  0  0  0  0  0  0  0
   19.2442   20.0126   27.5982 H   0  0  0  0  0  0  0  0  0  0  0  0
   19.2398   18.2086   26.4324 C   0  0  0  0  0  0  0  0  0  0  0  0
   18.1895   18.1169   26.1434 H   0  0  0  0  0  0  0  0  0  0  0  0
   19.3777   17.6888   27.3844 H   0  0  0  0  0  0  0  0  0  0  0  0
   20.0906   17.4876   25.4059 N   0  3  0  0  0  0  0  0  0  0  0  0
   20.0134   17.9339   24.4859 H   0  0  0  0  0  0  0  0  0  0  0  0
   19.8101   16.5059   25.3016 H   0  0  0  0  0  0  0  0  0  0  0  0
   21.0820   17.4906   25.6684 H   0  0  0  0  0  0  0  0  0  0  0  0
  1  2  1  0  0  0  0
  1  3  1  0  0  0  0
  1  4  1  0  0  0  0
  1  5  1  0  0  0  0
  5  6  1  0  0  0  0
  5  7  1  0  0  0  0
  5  8  1  0  0  0  0
  8  9  1  0  0  0  0
  8 10  1  0  0  0  0
  8 11  1  0  0  0  0
 11 12  1  0  0  0  0
 11 13  1  0  0  0  0
 11 14  1  0  0  0  0
 14 15  1  0  0  0  0
 14 16  1  0  0  0  0
 14 17  1  0  0  0  0
 17 18  1  0  0  0  0
 17 19  1  0  0  0  0
 17 20  1  0  0  0  0
 20 21  1  0  0  0  0
 20 22  1  0  0  0  0
 20 23  1  0  0  0  0
 23 24  1  0  0  0  0
 23 25  1  0  0  0  0
 23 26  1  0  0  0  0
 26 27  1  0  0  0  0
 26 28  1  0  0  0  0
 26 29  1  0  0  0  0
M  END
> <VM2 Rank>
467

> <Conf_Id>
997

> <Probability>
0.00

> <Sum Probability>
100.00

> <Delta G>
8.415

> <G>
66.563

> <E>
28.296

> <-TS>
38.266

> <U+W>
4.152

> <U>
55.609

> <W>
-51.457

> <W(PB)>
-53.817

> <W(SA)>
2.360

> <Valence>
7.220

> <Coulomb>
48.045

> <VdW>
0.344

> <VdW6>
-11.198

> <VdW12>
11.542

> <Bond>
0.291

> <Angle>
1.803

> <Pdih>
5.125

> <Idih>
0.000

> <Tether>
0.000

$$$$
VeraChem MOL file


 29 28  0  0  0  0  0  0  0  0999 V2000     
   20.1370   19.2425   20.3961 C   0  0  0  0  0  0  0  0  0  0  0  0
   20.1237   20.2821   20.7456 H   0  0  0  0  0  0  0  0  0  0  0  0
   21.0635   18.7686   20.7452 H   0  0  0  0  0  0  0  0  0  0  0  0
   20.1634   19.2651   19.2990 H   0  0  0  0  0  0  0  0  0  0  0  0
   18.8955   18.4683   20.8905 C   0  0  0  0  0  0  0  0  0  0  0  0
   18.8701   17.4885   20.3934 H   0  0  0  0  0  0  0  0  0  0  0  0
   17.9852   18.9951   20.5720 H   0  0  0  0  0  0  0  0  0  0  0  0
   18.8591   18.2442   22.4234 C   0  0  0  0  0  0  0  0  0  0  0  0
   17.9720   17.6359   22.6475 H   0  0  0  0  0  0  0  0  0  0  0  0
   19.7204   17.6355   22.7248 H   0  0  0  0  0  0  0  0  0  0  0  0
   18.7763   19.5498   23.2613 C   0  0  0  0  0  0  0  0  0  0  0  0
   18.0876   19.3915   24.0974 H   0  0  0  0  0  0  0  0  0  0  0  0
   18.3084   20.3377   22.6554 H   0  0  0  0  0  0  0  0  0  0  0  0
   20.1403   20.0652   23.7975 C   0  0  0  0  0  0  0  0  0  0  0  0
   20.8428   20.1416   22.9588 H   0  0  0  0  0  0  0  0  0  0  0  0
   20.0189   21.0917   24.1692 H   0  0  0  0  0  0  0  0  0  0  0  0
   20.7971   19.1958   24.9054 C   0  0  0  0  0  0  0  0  0  0  0  0
   21.8848   19.3357   24.8364 H   0  0  0  0  0  0  0  0  0  0  0  0
   20.6324   18.1275   24.7210 H   0  0  0  0  0  0  0  0  0  0  0  0
   20.3809   19.5639   26.3545 C   0  0  0  0  0  0  0  0  0  0  0  0
   20.9951   18.9861   27.0579 H   0  0  0  0  0  0  0  0  0  0  0  0
   20.6190   20.6191   26.5431 H   0  0  0  0  0  0  0  0  0  0  0  0
   18.8964   19.3251   26.6893 C   0  0  0  0  0  0  0  0  0  0  0  0
   18.2680   19.9531   26.0537 H   0  0  0  0  0  0  0  0  0  0  0  0
   18.7102   19.6063   27.7293 H   0  0  0  0  0  0  0  0  0  0  0  0
   18.4615   17.8832   26.5171 N   0  3  0  0  0  0  0  0  0  0  0  0
   18.9966   17.2516   27.1220 H   0  0  0  0  0  0  0  0  0  0  0  0
   18.5944   17.5659   25.5517 H   0  0  0  0  0  0  0  0  0  0  0  0
   17.4705   17.7534   26.7484 H   0  0  0  0  0  0  0  0  0  0  0  0
  1  2  1  0  0  0  0
  1  3  1  0  0  0  0
  1  4  1  0  0  0  0
  1  5  1  0  0  0  0
  5  6  1  0  0  0  0
  5  7  1  0  0  0  0
  5  8  1  0  0  0  0
  8  9  1  0  0  0  0
  8 10  1  0  0  0  0
  8 11  1  0  0  0  0
 11 12  1  0  0  0  0
 11 13  1  0  0  0  0
 11 14  1  0  0  0  0
 14 15  1  0  0  0  0
 14 16  1  0  0  0  0
 14 17  1  0  0  0  0
 17 18  1  0  0  0  0
 17 19  1  0  0  0  0
 17 20  1  0  0  0  0
 20 21  1  0  0  0  0
 20 22  1  0  0  0  0
 20 23  1  0  0  0  0
 23 24  1  0  0  0  0
 23 25  1  0  0  0  0
 23 26  1  0  0  0  0
 26 27  1  0  0  0  0
 26 28  1  0  0  0  0
 26 29  1  0  0  0  0
M  END
> <VM2 Rank>
468

> <Conf_Id>
651

> <Probability>
0.00

> <Sum Probability>
100.00

> <Delta G>
8.546

> <G>
66.694

> <E>
28.467

> <-TS>
38.227

> <U+W>
4.322

> <U>
56.716

> <W>
-52.394

> <W(PB)>
-54.778

> <W(SA)>
2.384

> <Valence>
9.142

> <Coulomb>
46.790

> <VdW>
0.784

> <VdW6>
-11.643

> <VdW12>
12.426

> <Bond>
0.409

> <Angle>
2.394

> <Pdih>
6.340

> <Idih>
0.000

> <Tether>
0.000

$$$$
VeraChem MOL file


 29 28  0  0  0  0  0  0  0  0999 V2000     
   21.2342   18.2530   22.2982 C   0  0  0  0  0  0  0  0  0  0  0  0
   20.9210   18.0489   23.3269 H   0  0  0  0  0  0  0  0  0  0  0  0
   21.1881   17.3106   21.7373 H   0  0  0  0  0  0  0  0  0  0  0  0
   22.2823   18.5779   22.3231 H   0  0  0  0  0  0  0  0  0  0  0  0
   20.3464   19.3307   21.6374 C   0  0  0  0  0  0  0  0  0  0  0  0
   20.7221   19.5170   20.6217 H   0  0  0  0  0  0  0  0  0  0  0  0
   20.4432   20.2851   22.1701 H   0  0  0  0  0  0  0  0  0  0  0  0
   18.8578   18.9171   21.5436 C   0  0  0  0  0  0  0  0  0  0  0  0
   18.3224   19.6612   20.9380 H   0  0  0  0  0  0  0  0  0  0  0  0
   18.7890   17.9744   20.9836 H   0  0  0  0  0  0  0  0  0  0  0  0
   18.1168   18.7478   22.8975 C   0  0  0  0  0  0  0  0  0  0  0  0
   18.5772   17.9548   23.4941 H   0  0  0  0  0  0  0  0  0  0  0  0
   17.1068   18.3814   22.6676 H   0  0  0  0  0  0  0  0  0  0  0  0
   17.9658   20.0585   23.7156 C   0  0  0  0  0  0  0  0  0  0  0  0
   17.9615   20.9135   23.0257 H   0  0  0  0  0  0  0  0  0  0  0  0
   16.9734   20.0675   24.1869 H   0  0  0  0  0  0  0  0  0  0  0  0
   19.0314   20.3022   24.8188 C   0  0  0  0  0  0  0  0  0  0  0  0
   18.9283   21.3480   25.1395 H   0  0  0  0  0  0  0  0  0  0  0  0
   20.0457   20.2224   24.4126 H   0  0  0  0  0  0  0  0  0  0  0  0
   18.8655   19.4115   26.0809 C   0  0  0  0  0  0  0  0  0  0  0  0
   19.1377   19.9978   26.9686 H   0  0  0  0  0  0  0  0  0  0  0  0
   17.8089   19.1450   26.2147 H   0  0  0  0  0  0  0  0  0  0  0  0
   19.7176   18.1265   26.0795 C   0  0  0  0  0  0  0  0  0  0  0  0
   19.5239   17.5408   25.1796 H   0  0  0  0  0  0  0  0  0  0  0  0
   19.4460   17.5152   26.9444 H   0  0  0  0  0  0  0  0  0  0  0  0
   21.2086   18.3908   26.1633 N   0  3  0  0  0  0  0  0  0  0  0  0
   21.4543   18.8992   27.0192 H   0  0  0  0  0  0  0  0  0  0  0  0
   21.5404   18.9517   25.3727 H   0  0  0  0  0  0  0  0  0  0  0  0
   21.7501   17.5194   26.1679 H   0  0  0  0  0  0  0  0  0  0  0  0
  1  2  1  0  0  0  0
  1  3  1  0  0  0  0
  1  4  1  0  0  0  0
  1  5  1  0  0  0  0
  5  6  1  0  0  0  0
  5  7  1  0  0  0  0
  5  8  1  0  0  0  0
  8  9  1  0  0  0  0
  8 10  1  0  0  0  0
  8 11  1  0  0  0  0
 11 12  1  0  0  0  0
 11 13  1  0  0  0  0
 11 14  1  0  0  0  0
 14 15  1  0  0  0  0
 14 16  1  0  0  0  0
 14 17  1  0  0  0  0
 17 18  1  0  0  0  0
 17 19  1  0  0  0  0
 17 20  1  0  0  0  0
 20 21  1  0  0  0  0
 20 22  1  0  0  0  0
 20 23  1  0  0  0  0
 23 24  1  0  0  0  0
 23 25  1  0  0  0  0
 23 26  1  0  0  0  0
 26 27  1  0  0  0  0
 26 28  1  0  0  0  0
 26 29  1  0  0  0  0
M  END
> <VM2 Rank>
469

> <Conf_Id>
296

> <Probability>
0.00

> <Sum Probability>
100.00

> <Delta G>
9.092

> <G>
67.240

> <E>
28.935

> <-TS>
38.306

> <U+W>
4.790

> <U>
57.570

> <W>
-52.780

> <W(PB)>
-55.080

> <W(SA)>
2.299

> <Valence>
9.916

> <Coulomb>
47.457

> <VdW>
0.197

> <VdW6>
-12.159

> <VdW12>
12.355

> <Bond>
0.395

> <Angle>
2.715

> <Pdih>
6.807

> <Idih>
0.000

> <Tether>
0.000

$$$$
VeraChem MOL file


 29 28  0  0  0  0  0  0  0  0999 V2000     
   19.7680   20.6769   21.4395 C   0  0  0  0  0  0  0  0  0  0  0  0
   19.0992   21.3837   20.9318 H   0  0  0  0  0  0  0  0  0  0  0  0
   19.7806   20.9383   22.5042 H   0  0  0  0  0  0  0  0  0  0  0  0
   20.7795   20.8276   21.0408 H   0  0  0  0  0  0  0  0  0  0  0  0
   19.2949   19.2232   21.2093 C   0  0  0  0  0  0  0  0  0  0  0  0
   19.2436   19.0414   20.1268 H   0  0  0  0  0  0  0  0  0  0  0  0
   18.2711   19.0923   21.5830 H   0  0  0  0  0  0  0  0  0  0  0  0
   20.2364   18.1682   21.8402 C   0  0  0  0  0  0  0  0  0  0  0  0
   19.9264   17.1694   21.5033 H   0  0  0  0  0  0  0  0  0  0  0  0
   21.2483   18.3154   21.4384 H   0  0  0  0  0  0  0  0  0  0  0  0
   20.3093   18.1752   23.3907 C   0  0  0  0  0  0  0  0  0  0  0  0
   20.6568   19.1529   23.7449 H   0  0  0  0  0  0  0  0  0  0  0  0
   21.0879   17.4566   23.6812 H   0  0  0  0  0  0  0  0  0  0  0  0
   18.9863   17.7606   24.0930 C   0  0  0  0  0  0  0  0  0  0  0  0
   18.4241   17.0962   23.4224 H   0  0  0  0  0  0  0  0  0  0  0  0
   19.2088   17.1473   24.9765 H   0  0  0  0  0  0  0  0  0  0  0  0
   18.0733   18.9433   24.5133 C   0  0  0  0  0  0  0  0  0  0  0  0
   17.0297   18.6107   24.4266 H   0  0  0  0  0  0  0  0  0  0  0  0
   18.1729   19.7791   23.8112 H   0  0  0  0  0  0  0  0  0  0  0  0
   18.2764   19.4566   25.9638 C   0  0  0  0  0  0  0  0  0  0  0  0
   17.5188   20.2281   26.1551 H   0  0  0  0  0  0  0  0  0  0  0  0
   18.0723   18.6524   26.6831 H   0  0  0  0  0  0  0  0  0  0  0  0
   19.6581   20.0774   26.2505 C   0  0  0  0  0  0  0  0  0  0  0  0
   19.5859   20.7213   27.1312 H   0  0  0  0  0  0  0  0  0  0  0  0
   19.9715   20.6932   25.4034 H   0  0  0  0  0  0  0  0  0  0  0  0
   20.7414   19.0566   26.5347 N   0  3  0  0  0  0  0  0  0  0  0  0
   20.8531   18.4080   25.7492 H   0  0  0  0  0  0  0  0  0  0  0  0
   20.5242   18.4960   27.3654 H   0  0  0  0  0  0  0  0  0  0  0  0
   21.6509   19.5013   26.7014 H   0  0  0  0  0  0  0  0  0  0  0  0
  1  2  1  0  0  0  0
  1  3  1  0  0  0  0
  1  4  1  0  0  0  0
  1  5  1  0  0  0  0
  5  6  1  0  0  0  0
  5  7  1  0  0  0  0
  5  8  1  0  0  0  0
  8  9  1  0  0  0  0
  8 10  1  0  0  0  0
  8 11  1  0  0  0  0
 11 12  1  0  0  0  0
 11 13  1  0  0  0  0
 11 14  1  0  0  0  0
 14 15  1  0  0  0  0
 14 16  1  0  0  0  0
 14 17  1  0  0  0  0
 17 18  1  0  0  0  0
 17 19  1  0  0  0  0
 17 20  1  0  0  0  0
 20 21  1  0  0  0  0
 20 22  1  0  0  0  0
 20 23  1  0  0  0  0
 23 24  1  0  0  0  0
 23 25  1  0  0  0  0
 23 26  1  0  0  0  0
 26 27  1  0  0  0  0
 26 28  1  0  0  0  0
 26 29  1  0  0  0  0
M  END
> <VM2 Rank>
470

> <Conf_Id>
1307

> <Probability>
0.00

> <Sum Probability>
100.00

> <Delta G>
9.969

> <G>
68.117

> <E>
29.277

> <-TS>
38.841

> <U+W>
5.132

> <U>
57.506

> <W>
-52.374

> <W(PB)>
-54.698

> <W(SA)>
2.324

> <Valence>
9.827

> <Coulomb>
47.299

> <VdW>
0.380

> <VdW6>
-12.658

> <VdW12>
13.038

> <Bond>
0.384

> <Angle>
2.465

> <Pdih>
6.977

> <Idih>
0.000

> <Tether>
0.000

$$$$
