@<TRIPOS>MOLECULE
guest-s16_confgen4.mol2 : confsearch ligand conformer 1
          13          13           1
SMALL
USER_CHARGES
 
@<TRIPOS>ATOM
       1    C1      19.718338   18.988593   20.930844 C.3        1 MOL1        -0.1693
       2    H1      18.784335   19.299184   20.444266 H          1 MOL1         0.0829
       3    H2      20.460257   18.765355   20.154920 H          1 MOL1         0.0829
       4    C2      19.546018   17.907146   22.048022 C.3        1 MOL1        -0.1768
       5    H3      18.735601   17.184913   21.901170 H          1 MOL1         0.0829
       6    H4      20.462502   17.361742   22.305270 H          1 MOL1         0.0829
       7    C3      19.222654   19.106314   22.989446 C.3        1 MOL1         0.1211
       8    H5      18.177720   19.441547   22.936591 H          1 MOL1         0.0786
       9    C4      20.196053   19.925441   22.089047 C.3        1 MOL1        -0.1768
      10    H6      19.961524   20.989615   21.976346 H          1 MOL1         0.0829
      11    H7      21.256068   19.823385   22.353145 H          1 MOL1         0.0829
      12    O1      19.629938   18.947505   24.328642 O.3        1 MOL1        -0.5515
      13    H8      19.521721   19.817167   24.770435 H          1 MOL1         0.3773
@<TRIPOS>BOND
    1     1     2    1
    2     1     3    1
    3     1     4    1
    4     4     5    1
    5     4     6    1
    6     4     7    1
    7     7     8    1
    8     1     9    1
    9     7     9    1
   10     9    10    1
   11     9    11    1
   12     7    12    1
   13    12    13    1
@<TRIPOS>SUBSTRUCTURE
       1 MOL1            1 RESIDUE      1      MOL     
@<SCITEGIC>MOL_PROPERTY
VConf Rank
SciTegic.value.IntegerValue
1

@<SCITEGIC>MOL_PROPERTY
Conf_Id
SciTegic.value.IntegerValue
22

@<SCITEGIC>MOL_PROPERTY
Delta U+W
SciTegic.value.DoubleValue
0.000

@<SCITEGIC>MOL_PROPERTY
U+W
SciTegic.value.DoubleValue
-3.131

@<SCITEGIC>MOL_PROPERTY
Grad RMS
SciTegic.value.DoubleValue
0.000000

@<SCITEGIC>MOL_PROPERTY
U
SciTegic.value.DoubleValue
-0.154

@<SCITEGIC>MOL_PROPERTY
W
SciTegic.value.DoubleValue
-2.978

@<SCITEGIC>MOL_PROPERTY
W(PB)
SciTegic.value.DoubleValue
-4.579

@<SCITEGIC>MOL_PROPERTY
W(SA)
SciTegic.value.DoubleValue
1.601

@<SCITEGIC>MOL_PROPERTY
Valence
SciTegic.value.DoubleValue
6.333

@<SCITEGIC>MOL_PROPERTY
Coulomb
SciTegic.value.DoubleValue
-7.439

@<SCITEGIC>MOL_PROPERTY
VdW
SciTegic.value.DoubleValue
0.952

@<SCITEGIC>MOL_PROPERTY
VdW6
SciTegic.value.DoubleValue
-2.120

@<SCITEGIC>MOL_PROPERTY
VdW12
SciTegic.value.DoubleValue
3.072

@<SCITEGIC>MOL_PROPERTY
Bond
SciTegic.value.DoubleValue
0.065

@<SCITEGIC>MOL_PROPERTY
Angle
SciTegic.value.DoubleValue
0.931

@<SCITEGIC>MOL_PROPERTY
Pdih
SciTegic.value.DoubleValue
5.338

@<SCITEGIC>MOL_PROPERTY
Idih
SciTegic.value.DoubleValue
0.000

@<SCITEGIC>MOL_PROPERTY
Tether
SciTegic.value.DoubleValue
0.000

@<TRIPOS>MOLECULE
guest-s16_confgen4.mol2 : confsearch ligand conformer 2
          13          13           1
SMALL
USER_CHARGES
 
@<TRIPOS>ATOM
       1    C1      19.718388   18.988697   20.930846 C.3        1 MOL1        -0.1693
       2    H1      18.784500   19.299602   20.444247 H          1 MOL1         0.0829
       3    H2      20.460411   18.765715   20.154947 H          1 MOL1         0.0829
       4    C2      19.545958   17.907019   22.047792 C.3        1 MOL1        -0.1768
       5    H3      20.463178   17.361627   22.302839 H          1 MOL1         0.0829
       6    H4      18.736000   17.184612   21.898565 H          1 MOL1         0.0829
       7    C3      19.222597   19.106154   22.989444 C.3        1 MOL1         0.1211
       8    H5      18.179059   19.445723   22.936686 H          1 MOL1         0.0786
       9    C4      20.196006   19.925305   22.089272 C.3        1 MOL1        -0.1768
      10    H6      21.255401   19.823640   22.355601 H          1 MOL1         0.0829
      11    H7      19.960946   20.989510   21.978928 H          1 MOL1         0.0829
      12    O1      19.630052   18.947826   24.328646 O.3        1 MOL1        -0.5515
      13    H8      19.029604   18.288952   24.739196 H          1 MOL1         0.3773
@<TRIPOS>BOND
    1     1     2    1
    2     1     3    1
    3     1     4    1
    4     4     5    1
    5     4     6    1
    6     4     7    1
    7     7     8    1
    8     1     9    1
    9     7     9    1
   10     9    10    1
   11     9    11    1
   12     7    12    1
   13    12    13    1
@<TRIPOS>SUBSTRUCTURE
       1 MOL1            1 RESIDUE      1      MOL     
@<SCITEGIC>MOL_PROPERTY
VConf Rank
SciTegic.value.IntegerValue
2

@<SCITEGIC>MOL_PROPERTY
Conf_Id
SciTegic.value.IntegerValue
19

@<SCITEGIC>MOL_PROPERTY
Delta U+W
SciTegic.value.DoubleValue
-0.011

@<SCITEGIC>MOL_PROPERTY
U+W
SciTegic.value.DoubleValue
-3.142

@<SCITEGIC>MOL_PROPERTY
Grad RMS
SciTegic.value.DoubleValue
0.000000

@<SCITEGIC>MOL_PROPERTY
U
SciTegic.value.DoubleValue
-0.154

@<SCITEGIC>MOL_PROPERTY
W
SciTegic.value.DoubleValue
-2.989

@<SCITEGIC>MOL_PROPERTY
W(PB)
SciTegic.value.DoubleValue
-4.588

@<SCITEGIC>MOL_PROPERTY
W(SA)
SciTegic.value.DoubleValue
1.599

@<SCITEGIC>MOL_PROPERTY
Valence
SciTegic.value.DoubleValue
6.334

@<SCITEGIC>MOL_PROPERTY
Coulomb
SciTegic.value.DoubleValue
-7.439

@<SCITEGIC>MOL_PROPERTY
VdW
SciTegic.value.DoubleValue
0.951

@<SCITEGIC>MOL_PROPERTY
VdW6
SciTegic.value.DoubleValue
-2.120

@<SCITEGIC>MOL_PROPERTY
VdW12
SciTegic.value.DoubleValue
3.072

@<SCITEGIC>MOL_PROPERTY
Bond
SciTegic.value.DoubleValue
0.065

@<SCITEGIC>MOL_PROPERTY
Angle
SciTegic.value.DoubleValue
0.930

@<SCITEGIC>MOL_PROPERTY
Pdih
SciTegic.value.DoubleValue
5.339

@<SCITEGIC>MOL_PROPERTY
Idih
SciTegic.value.DoubleValue
0.000

@<SCITEGIC>MOL_PROPERTY
Tether
SciTegic.value.DoubleValue
0.000

@<TRIPOS>MOLECULE
guest-s16_confgen4.mol2 : confsearch ligand conformer 3
          13          13           1
SMALL
USER_CHARGES
 
@<TRIPOS>ATOM
       1    C1      20.354195   18.775779   21.321496 C.3        1 MOL1        -0.1693
       2    H1      20.435511   18.771304   20.228178 H          1 MOL1         0.0829
       3    H2      21.315093   18.457336   21.746323 H          1 MOL1         0.0829
       4    C2      19.105553   18.048291   21.922017 C.3        1 MOL1        -0.1768
       5    H3      18.212760   18.076631   21.285713 H          1 MOL1         0.0829
       6    H4      19.264373   17.017395   22.257314 H          1 MOL1         0.0829
       7    C3      19.128224   19.136171   23.040691 C.3        1 MOL1         0.1211
       8    H5      18.137390   19.446016   23.397142 H          1 MOL1         0.0786
       9    C4      19.757572   20.072729   21.962324 C.3        1 MOL1        -0.1768
      10    H6      20.484737   20.805763   22.328719 H          1 MOL1         0.0829
      11    H7      19.022914   20.592265   21.335161 H          1 MOL1         0.0829
      12    O1      19.967456   18.842030   24.139471 O.3        1 MOL1        -0.5515
      13    H8      20.035909   19.657985   24.679551 H          1 MOL1         0.3773
@<TRIPOS>BOND
    1     1     2    1
    2     1     3    1
    3     1     4    1
    4     4     5    1
    5     4     6    1
    6     4     7    1
    7     7     8    1
    8     1     9    1
    9     7     9    1
   10     9    10    1
   11     9    11    1
   12     7    12    1
   13    12    13    1
@<TRIPOS>SUBSTRUCTURE
       1 MOL1            1 RESIDUE      1      MOL     
@<SCITEGIC>MOL_PROPERTY
VConf Rank
SciTegic.value.IntegerValue
3

@<SCITEGIC>MOL_PROPERTY
Conf_Id
SciTegic.value.IntegerValue
20

@<SCITEGIC>MOL_PROPERTY
Delta U+W
SciTegic.value.DoubleValue
1.030

@<SCITEGIC>MOL_PROPERTY
U+W
SciTegic.value.DoubleValue
-2.101

@<SCITEGIC>MOL_PROPERTY
Grad RMS
SciTegic.value.DoubleValue
0.000000

@<SCITEGIC>MOL_PROPERTY
U
SciTegic.value.DoubleValue
0.841

@<SCITEGIC>MOL_PROPERTY
W
SciTegic.value.DoubleValue
-2.942

@<SCITEGIC>MOL_PROPERTY
W(PB)
SciTegic.value.DoubleValue
-4.530

@<SCITEGIC>MOL_PROPERTY
W(SA)
SciTegic.value.DoubleValue
1.587

@<SCITEGIC>MOL_PROPERTY
Valence
SciTegic.value.DoubleValue
6.736

@<SCITEGIC>MOL_PROPERTY
Coulomb
SciTegic.value.DoubleValue
-7.246

@<SCITEGIC>MOL_PROPERTY
VdW
SciTegic.value.DoubleValue
1.352

@<SCITEGIC>MOL_PROPERTY
VdW6
SciTegic.value.DoubleValue
-2.500

@<SCITEGIC>MOL_PROPERTY
VdW12
SciTegic.value.DoubleValue
3.851

@<SCITEGIC>MOL_PROPERTY
Bond
SciTegic.value.DoubleValue
0.063

@<SCITEGIC>MOL_PROPERTY
Angle
SciTegic.value.DoubleValue
0.687

@<SCITEGIC>MOL_PROPERTY
Pdih
SciTegic.value.DoubleValue
5.986

@<SCITEGIC>MOL_PROPERTY
Idih
SciTegic.value.DoubleValue
0.000

@<SCITEGIC>MOL_PROPERTY
Tether
SciTegic.value.DoubleValue
0.000

@<TRIPOS>MOLECULE
guest-s16_confgen4.mol2 : confsearch ligand conformer 4
          13          13           1
SMALL
USER_CHARGES
 
@<TRIPOS>ATOM
       1    C1      19.717826   18.988808   20.931262 C.3        1 MOL1        -0.1693
       2    H1      18.783508   19.299656   20.445369 H          1 MOL1         0.0829
       3    H2      20.458970   18.765984   20.154424 H          1 MOL1         0.0829
       4    C2      19.545752   17.906422   22.047590 C.3        1 MOL1        -0.1768
       5    H3      18.733321   17.186397   21.899901 H          1 MOL1         0.0829
       6    H4      20.461856   17.357051   22.297255 H          1 MOL1         0.0829
       7    C3      19.224187   19.105729   22.989616 C.3        1 MOL1         0.1211
       8    H5      18.180023   19.443073   22.938479 H          1 MOL1         0.0786
       9    C4      20.196227   19.926060   22.088867 C.3        1 MOL1        -0.1768
      10    H6      21.257720   19.828103   22.347758 H          1 MOL1         0.0829
      11    H7      19.958265   20.989683   21.977634 H          1 MOL1         0.0829
      12    O1      19.629008   18.947980   24.328665 O.3        1 MOL1        -0.5515
      13    H8      20.561939   18.647889   24.311216 H          1 MOL1         0.3773
@<TRIPOS>BOND
    1     1     2    1
    2     1     3    1
    3     1     4    1
    4     4     5    1
    5     4     6    1
    6     4     7    1
    7     7     8    1
    8     1     9    1
    9     7     9    1
   10     9    10    1
   11     9    11    1
   12     7    12    1
   13    12    13    1
@<TRIPOS>SUBSTRUCTURE
       1 MOL1            1 RESIDUE      1      MOL     
@<SCITEGIC>MOL_PROPERTY
VConf Rank
SciTegic.value.IntegerValue
4

@<SCITEGIC>MOL_PROPERTY
Conf_Id
SciTegic.value.IntegerValue
24

@<SCITEGIC>MOL_PROPERTY
Delta U+W
SciTegic.value.DoubleValue
0.356

@<SCITEGIC>MOL_PROPERTY
U+W
SciTegic.value.DoubleValue
-2.775

@<SCITEGIC>MOL_PROPERTY
Grad RMS
SciTegic.value.DoubleValue
0.000000

@<SCITEGIC>MOL_PROPERTY
U
SciTegic.value.DoubleValue
-0.184

@<SCITEGIC>MOL_PROPERTY
W
SciTegic.value.DoubleValue
-2.591

@<SCITEGIC>MOL_PROPERTY
W(PB)
SciTegic.value.DoubleValue
-4.184

@<SCITEGIC>MOL_PROPERTY
W(SA)
SciTegic.value.DoubleValue
1.593

@<SCITEGIC>MOL_PROPERTY
Valence
SciTegic.value.DoubleValue
6.840

@<SCITEGIC>MOL_PROPERTY
Coulomb
SciTegic.value.DoubleValue
-7.916

@<SCITEGIC>MOL_PROPERTY
VdW
SciTegic.value.DoubleValue
0.893

@<SCITEGIC>MOL_PROPERTY
VdW6
SciTegic.value.DoubleValue
-2.167

@<SCITEGIC>MOL_PROPERTY
VdW12
SciTegic.value.DoubleValue
3.060

@<SCITEGIC>MOL_PROPERTY
Bond
SciTegic.value.DoubleValue
0.059

@<SCITEGIC>MOL_PROPERTY
Angle
SciTegic.value.DoubleValue
0.918

@<SCITEGIC>MOL_PROPERTY
Pdih
SciTegic.value.DoubleValue
5.862

@<SCITEGIC>MOL_PROPERTY
Idih
SciTegic.value.DoubleValue
0.000

@<SCITEGIC>MOL_PROPERTY
Tether
SciTegic.value.DoubleValue
0.000

@<TRIPOS>MOLECULE
guest-s16_confgen4.mol2 : confsearch ligand conformer 5
          13          13           1
SMALL
USER_CHARGES
 
@<TRIPOS>ATOM
       1    C1      20.352074   18.776582   21.318008 C.3        1 MOL1        -0.1693
       2    H1      20.422048   18.776410   20.223715 H          1 MOL1         0.0829
       3    H2      21.318840   18.456775   21.727132 H          1 MOL1         0.0829
       4    C2      19.106841   18.047039   21.924061 C.3        1 MOL1        -0.1768
       5    H3      18.212481   18.073935   21.289701 H          1 MOL1         0.0829
       6    H4      19.266117   17.015515   22.257675 H          1 MOL1         0.0829
       7    C3      19.127588   19.135825   23.041247 C.3        1 MOL1         0.1211
       8    H5      18.138059   19.447283   23.399454 H          1 MOL1         0.0786
       9    C4      19.759380   20.072594   21.965468 C.3        1 MOL1        -0.1768
      10    H6      19.025014   20.596126   21.341261 H          1 MOL1         0.0829
      11    H7      20.486635   20.804143   22.335122 H          1 MOL1         0.0829
      12    O1      19.967117   18.842960   24.137216 O.3        1 MOL1        -0.5515
      13    H8      20.829664   18.572784   23.759949 H          1 MOL1         0.3773
@<TRIPOS>BOND
    1     1     2    1
    2     1     3    1
    3     1     4    1
    4     4     5    1
    5     4     6    1
    6     4     7    1
    7     7     8    1
    8     1     9    1
    9     7     9    1
   10     9    10    1
   11     9    11    1
   12     7    12    1
   13    12    13    1
@<TRIPOS>SUBSTRUCTURE
       1 MOL1            1 RESIDUE      1      MOL     
@<SCITEGIC>MOL_PROPERTY
VConf Rank
SciTegic.value.IntegerValue
5

@<SCITEGIC>MOL_PROPERTY
Conf_Id
SciTegic.value.IntegerValue
44

@<SCITEGIC>MOL_PROPERTY
Delta U+W
SciTegic.value.DoubleValue
0.823

@<SCITEGIC>MOL_PROPERTY
U+W
SciTegic.value.DoubleValue
-2.308

@<SCITEGIC>MOL_PROPERTY
Grad RMS
SciTegic.value.DoubleValue
0.000000

@<SCITEGIC>MOL_PROPERTY
U
SciTegic.value.DoubleValue
0.039

@<SCITEGIC>MOL_PROPERTY
W
SciTegic.value.DoubleValue
-2.348

@<SCITEGIC>MOL_PROPERTY
W(PB)
SciTegic.value.DoubleValue
-3.918

@<SCITEGIC>MOL_PROPERTY
W(SA)
SciTegic.value.DoubleValue
1.571

@<SCITEGIC>MOL_PROPERTY
Valence
SciTegic.value.DoubleValue
7.320

@<SCITEGIC>MOL_PROPERTY
Coulomb
SciTegic.value.DoubleValue
-8.530

@<SCITEGIC>MOL_PROPERTY
VdW
SciTegic.value.DoubleValue
1.249

@<SCITEGIC>MOL_PROPERTY
VdW6
SciTegic.value.DoubleValue
-2.615

@<SCITEGIC>MOL_PROPERTY
VdW12
SciTegic.value.DoubleValue
3.864

@<SCITEGIC>MOL_PROPERTY
Bond
SciTegic.value.DoubleValue
0.056

@<SCITEGIC>MOL_PROPERTY
Angle
SciTegic.value.DoubleValue
0.694

@<SCITEGIC>MOL_PROPERTY
Pdih
SciTegic.value.DoubleValue
6.570

@<SCITEGIC>MOL_PROPERTY
Idih
SciTegic.value.DoubleValue
0.000

@<SCITEGIC>MOL_PROPERTY
Tether
SciTegic.value.DoubleValue
0.000

@<TRIPOS>MOLECULE
guest-s16_confgen4.mol2 : confsearch ligand conformer 6
          13          13           1
SMALL
USER_CHARGES
 
@<TRIPOS>ATOM
       1    C1      18.989310   20.170534   22.146602 C.3        1 MOL1        -0.1693
       2    H1      19.398666   20.860074   21.396571 H          1 MOL1         0.0829
       3    H2      18.079265   20.612639   22.569330 H          1 MOL1         0.0829
       4    C2      20.033953   19.630542   23.178318 C.3        1 MOL1        -0.1768
       5    H3      20.847897   20.313436   23.444986 H          1 MOL1         0.0829
       6    H4      19.601061   19.220736   24.099323 H          1 MOL1         0.0829
       7    C3      20.372372   18.563752   22.093754 C.3        1 MOL1         0.1211
       8    H5      21.078405   18.917405   21.329877 H          1 MOL1         0.0786
       9    C4      18.875717   18.683104   21.675456 C.3        1 MOL1        -0.1768
      10    H6      18.662994   18.529055   20.611882 H          1 MOL1         0.0829
      11    H7      18.186732   18.066739   22.266377 H          1 MOL1         0.0829
      12    O1      20.761121   17.303588   22.589141 O.3        1 MOL1        -0.5515
      13    H8      20.785235   16.686304   21.826525 H          1 MOL1         0.3773
@<TRIPOS>BOND
    1     1     2    1
    2     1     3    1
    3     1     4    1
    4     4     5    1
    5     4     6    1
    6     4     7    1
    7     7     8    1
    8     1     9    1
    9     7     9    1
   10     9    10    1
   11     9    11    1
   12     7    12    1
   13    12    13    1
@<TRIPOS>SUBSTRUCTURE
       1 MOL1            1 RESIDUE      1      MOL     
@<SCITEGIC>MOL_PROPERTY
VConf Rank
SciTegic.value.IntegerValue
6

@<SCITEGIC>MOL_PROPERTY
Conf_Id
SciTegic.value.IntegerValue
22

@<SCITEGIC>MOL_PROPERTY
Delta U+W
SciTegic.value.DoubleValue
0.000

@<SCITEGIC>MOL_PROPERTY
U+W
SciTegic.value.DoubleValue
-3.131

@<SCITEGIC>MOL_PROPERTY
Grad RMS
SciTegic.value.DoubleValue
0.000000

@<SCITEGIC>MOL_PROPERTY
U
SciTegic.value.DoubleValue
-0.154

@<SCITEGIC>MOL_PROPERTY
W
SciTegic.value.DoubleValue
-2.978

@<SCITEGIC>MOL_PROPERTY
W(PB)
SciTegic.value.DoubleValue
-4.579

@<SCITEGIC>MOL_PROPERTY
W(SA)
SciTegic.value.DoubleValue
1.601

@<SCITEGIC>MOL_PROPERTY
Valence
SciTegic.value.DoubleValue
6.333

@<SCITEGIC>MOL_PROPERTY
Coulomb
SciTegic.value.DoubleValue
-7.439

@<SCITEGIC>MOL_PROPERTY
VdW
SciTegic.value.DoubleValue
0.952

@<SCITEGIC>MOL_PROPERTY
VdW6
SciTegic.value.DoubleValue
-2.120

@<SCITEGIC>MOL_PROPERTY
VdW12
SciTegic.value.DoubleValue
3.072

@<SCITEGIC>MOL_PROPERTY
Bond
SciTegic.value.DoubleValue
0.065

@<SCITEGIC>MOL_PROPERTY
Angle
SciTegic.value.DoubleValue
0.931

@<SCITEGIC>MOL_PROPERTY
Pdih
SciTegic.value.DoubleValue
5.338

@<SCITEGIC>MOL_PROPERTY
Idih
SciTegic.value.DoubleValue
0.000

@<SCITEGIC>MOL_PROPERTY
Tether
SciTegic.value.DoubleValue
0.000

@<TRIPOS>MOLECULE
guest-s16_confgen4.mol2 : confsearch ligand conformer 7
          13          13           1
SMALL
USER_CHARGES
 
@<TRIPOS>ATOM
       1    C1      19.931441   20.136286   22.675594 C.3        1 MOL1        -0.1693
       2    H1      19.475605   20.937757   22.079402 H          1 MOL1         0.0829
       3    H2      20.564798   20.590294   23.447004 H          1 MOL1         0.0829
       4    C2      20.585212   18.988164   21.837902 C.3        1 MOL1        -0.1768
       5    H3      21.308753   18.374160   22.388612 H          1 MOL1         0.0829
       6    H4      21.028812   19.282326   20.880373 H          1 MOL1         0.0829
       7    C3      19.148693   18.387815   21.765877 C.3        1 MOL1         0.1211
       8    H5      18.522692   18.823040   20.974825 H          1 MOL1         0.0786
       9    C4      18.932686   19.036727   23.166269 C.3        1 MOL1        -0.1768
      10    H6      19.292134   18.431615   24.007828 H          1 MOL1         0.0829
      11    H7      17.912736   19.372023   23.383616 H          1 MOL1         0.0829
      12    O1      19.084135   16.980837   21.737652 O.3        1 MOL1        -0.5515
      13    H8      19.394403   16.693337   20.852056 H          1 MOL1         0.3773
@<TRIPOS>BOND
    1     1     2    1
    2     1     3    1
    3     1     4    1
    4     4     5    1
    5     4     6    1
    6     4     7    1
    7     7     8    1
    8     1     9    1
    9     7     9    1
   10     9    10    1
   11     9    11    1
   12     7    12    1
   13    12    13    1
@<TRIPOS>SUBSTRUCTURE
       1 MOL1            1 RESIDUE      1      MOL     
@<SCITEGIC>MOL_PROPERTY
VConf Rank
SciTegic.value.IntegerValue
7

@<SCITEGIC>MOL_PROPERTY
Conf_Id
SciTegic.value.IntegerValue
19

@<SCITEGIC>MOL_PROPERTY
Delta U+W
SciTegic.value.DoubleValue
-0.011

@<SCITEGIC>MOL_PROPERTY
U+W
SciTegic.value.DoubleValue
-3.142

@<SCITEGIC>MOL_PROPERTY
Grad RMS
SciTegic.value.DoubleValue
0.000000

@<SCITEGIC>MOL_PROPERTY
U
SciTegic.value.DoubleValue
-0.154

@<SCITEGIC>MOL_PROPERTY
W
SciTegic.value.DoubleValue
-2.989

@<SCITEGIC>MOL_PROPERTY
W(PB)
SciTegic.value.DoubleValue
-4.588

@<SCITEGIC>MOL_PROPERTY
W(SA)
SciTegic.value.DoubleValue
1.599

@<SCITEGIC>MOL_PROPERTY
Valence
SciTegic.value.DoubleValue
6.334

@<SCITEGIC>MOL_PROPERTY
Coulomb
SciTegic.value.DoubleValue
-7.439

@<SCITEGIC>MOL_PROPERTY
VdW
SciTegic.value.DoubleValue
0.951

@<SCITEGIC>MOL_PROPERTY
VdW6
SciTegic.value.DoubleValue
-2.120

@<SCITEGIC>MOL_PROPERTY
VdW12
SciTegic.value.DoubleValue
3.072

@<SCITEGIC>MOL_PROPERTY
Bond
SciTegic.value.DoubleValue
0.065

@<SCITEGIC>MOL_PROPERTY
Angle
SciTegic.value.DoubleValue
0.930

@<SCITEGIC>MOL_PROPERTY
Pdih
SciTegic.value.DoubleValue
5.339

@<SCITEGIC>MOL_PROPERTY
Idih
SciTegic.value.DoubleValue
0.000

@<SCITEGIC>MOL_PROPERTY
Tether
SciTegic.value.DoubleValue
0.000

@<TRIPOS>MOLECULE
guest-s16_confgen4.mol2 : confsearch ligand conformer 8
          13          13           1
SMALL
USER_CHARGES
 
@<TRIPOS>ATOM
       1    C1      18.895010   18.202535   21.781229 C.3        1 MOL1        -0.1693
       2    H1      17.973881   17.622381   21.911300 H          1 MOL1         0.0829
       3    H2      19.307747   17.987749   20.786885 H          1 MOL1         0.0829
       4    C2      19.933936   18.115759   22.948309 C.3        1 MOL1        -0.1768
       5    H3      19.491905   17.966322   23.940802 H          1 MOL1         0.0829
       6    H4      20.748135   17.394834   22.815118 H          1 MOL1         0.0829
       7    C3      20.283274   19.601110   22.621009 C.3        1 MOL1         0.1211
       8    H5      20.531775   20.215702   23.495844 H          1 MOL1         0.0786
       9    C4      18.805711   19.724582   22.133507 C.3        1 MOL1        -0.1768
      10    H6      18.633479   20.403345   21.290910 H          1 MOL1         0.0829
      11    H7      18.089409   19.965182   22.928489 H          1 MOL1         0.0829
      12    O1      21.260694   19.774389   21.614645 O.3        1 MOL1        -0.5515
      13    H8      21.266732   20.725805   21.376053 H          1 MOL1         0.3773
@<TRIPOS>BOND
    1     1     2    1
    2     1     3    1
    3     1     4    1
    4     4     5    1
    5     4     6    1
    6     4     7    1
    7     7     8    1
    8     1     9    1
    9     7     9    1
   10     9    10    1
   11     9    11    1
   12     7    12    1
   13    12    13    1
@<TRIPOS>SUBSTRUCTURE
       1 MOL1            1 RESIDUE      1      MOL     
@<SCITEGIC>MOL_PROPERTY
VConf Rank
SciTegic.value.IntegerValue
8

@<SCITEGIC>MOL_PROPERTY
Conf_Id
SciTegic.value.IntegerValue
20

@<SCITEGIC>MOL_PROPERTY
Delta U+W
SciTegic.value.DoubleValue
1.030

@<SCITEGIC>MOL_PROPERTY
U+W
SciTegic.value.DoubleValue
-2.101

@<SCITEGIC>MOL_PROPERTY
Grad RMS
SciTegic.value.DoubleValue
0.000000

@<SCITEGIC>MOL_PROPERTY
U
SciTegic.value.DoubleValue
0.841

@<SCITEGIC>MOL_PROPERTY
W
SciTegic.value.DoubleValue
-2.942

@<SCITEGIC>MOL_PROPERTY
W(PB)
SciTegic.value.DoubleValue
-4.530

@<SCITEGIC>MOL_PROPERTY
W(SA)
SciTegic.value.DoubleValue
1.587

@<SCITEGIC>MOL_PROPERTY
Valence
SciTegic.value.DoubleValue
6.736

@<SCITEGIC>MOL_PROPERTY
Coulomb
SciTegic.value.DoubleValue
-7.246

@<SCITEGIC>MOL_PROPERTY
VdW
SciTegic.value.DoubleValue
1.352

@<SCITEGIC>MOL_PROPERTY
VdW6
SciTegic.value.DoubleValue
-2.500

@<SCITEGIC>MOL_PROPERTY
VdW12
SciTegic.value.DoubleValue
3.851

@<SCITEGIC>MOL_PROPERTY
Bond
SciTegic.value.DoubleValue
0.063

@<SCITEGIC>MOL_PROPERTY
Angle
SciTegic.value.DoubleValue
0.687

@<SCITEGIC>MOL_PROPERTY
Pdih
SciTegic.value.DoubleValue
5.986

@<SCITEGIC>MOL_PROPERTY
Idih
SciTegic.value.DoubleValue
0.000

@<SCITEGIC>MOL_PROPERTY
Tether
SciTegic.value.DoubleValue
0.000

@<TRIPOS>MOLECULE
guest-s16_confgen4.mol2 : confsearch ligand conformer 9
          13          13           1
SMALL
USER_CHARGES
 
@<TRIPOS>ATOM
       1    C1      19.747786   18.987131   23.493424 C.3        1 MOL1        -0.1693
       2    H1      19.800492   18.032893   24.034091 H          1 MOL1         0.0829
       3    H2      19.705370   19.802329   24.225596 H          1 MOL1         0.0829
       4    C2      18.680142   19.033353   22.350902 C.3        1 MOL1        -0.1768
       5    H3      17.774096   18.439229   22.513349 H          1 MOL1         0.0829
       6    H4      18.387400   20.043475   22.038902 H          1 MOL1         0.0829
       7    C3      19.776846   18.366935   21.466435 C.3        1 MOL1         0.1211
       8    H5      19.836009   17.275856   21.579301 H          1 MOL1         0.0786
       9    C4      20.799256   19.147781   22.346271 C.3        1 MOL1        -0.1768
      10    H6      20.980163   20.183479   22.033236 H          1 MOL1         0.0829
      11    H7      21.764710   18.654715   22.504625 H          1 MOL1         0.0829
      12    O1      19.754600   18.723827   20.104836 O.3        1 MOL1        -0.5515
      13    H8      19.701732   19.701834   20.067067 H          1 MOL1         0.3773
@<TRIPOS>BOND
    1     1     2    1
    2     1     3    1
    3     1     4    1
    4     4     5    1
    5     4     6    1
    6     4     7    1
    7     7     8    1
    8     1     9    1
    9     7     9    1
   10     9    10    1
   11     9    11    1
   12     7    12    1
   13    12    13    1
@<TRIPOS>SUBSTRUCTURE
       1 MOL1            1 RESIDUE      1      MOL     
@<SCITEGIC>MOL_PROPERTY
VConf Rank
SciTegic.value.IntegerValue
9

@<SCITEGIC>MOL_PROPERTY
Conf_Id
SciTegic.value.IntegerValue
24

@<SCITEGIC>MOL_PROPERTY
Delta U+W
SciTegic.value.DoubleValue
0.356

@<SCITEGIC>MOL_PROPERTY
U+W
SciTegic.value.DoubleValue
-2.775

@<SCITEGIC>MOL_PROPERTY
Grad RMS
SciTegic.value.DoubleValue
0.000000

@<SCITEGIC>MOL_PROPERTY
U
SciTegic.value.DoubleValue
-0.184

@<SCITEGIC>MOL_PROPERTY
W
SciTegic.value.DoubleValue
-2.591

@<SCITEGIC>MOL_PROPERTY
W(PB)
SciTegic.value.DoubleValue
-4.184

@<SCITEGIC>MOL_PROPERTY
W(SA)
SciTegic.value.DoubleValue
1.593

@<SCITEGIC>MOL_PROPERTY
Valence
SciTegic.value.DoubleValue
6.840

@<SCITEGIC>MOL_PROPERTY
Coulomb
SciTegic.value.DoubleValue
-7.916

@<SCITEGIC>MOL_PROPERTY
VdW
SciTegic.value.DoubleValue
0.893

@<SCITEGIC>MOL_PROPERTY
VdW6
SciTegic.value.DoubleValue
-2.167

@<SCITEGIC>MOL_PROPERTY
VdW12
SciTegic.value.DoubleValue
3.060

@<SCITEGIC>MOL_PROPERTY
Bond
SciTegic.value.DoubleValue
0.059

@<SCITEGIC>MOL_PROPERTY
Angle
SciTegic.value.DoubleValue
0.918

@<SCITEGIC>MOL_PROPERTY
Pdih
SciTegic.value.DoubleValue
5.862

@<SCITEGIC>MOL_PROPERTY
Idih
SciTegic.value.DoubleValue
0.000

@<SCITEGIC>MOL_PROPERTY
Tether
SciTegic.value.DoubleValue
0.000

@<TRIPOS>MOLECULE
guest-s16_confgen4.mol2 : confsearch ligand conformer 10
          13          13           1
SMALL
USER_CHARGES
 
@<TRIPOS>ATOM
       1    C1      19.748266   17.847656   22.253418 C.3        1 MOL1        -0.1693
       2    H1      20.368088   16.961367   22.072627 H          1 MOL1         0.0829
       3    H2      18.774550   17.517236   22.636818 H          1 MOL1         0.0829
       4    C2      19.677618   18.883632   21.082136 C.3        1 MOL1        -0.1768
       5    H3      20.581362   18.929473   20.462330 H          1 MOL1         0.0829
       6    H4      18.806255   18.808033   20.422045 H          1 MOL1         0.0829
       7    C3      19.604878   19.986009   22.183711 C.3        1 MOL1         0.1211
       8    H5      20.124314   20.920376   21.935453 H          1 MOL1         0.0786
       9    C4      20.422437   18.998465   23.072727 C.3        1 MOL1        -0.1768
      10    H6      21.508800   19.072459   22.940984 H          1 MOL1         0.0829
      11    H7      20.199378   19.022816   24.145275 H          1 MOL1         0.0829
      12    O1      18.304380   20.267407   22.654081 O.3        1 MOL1        -0.5515
      13    H8      17.891532   19.403044   22.858403 H          1 MOL1         0.3773
@<TRIPOS>BOND
    1     1     2    1
    2     1     3    1
    3     1     4    1
    4     4     5    1
    5     4     6    1
    6     4     7    1
    7     7     8    1
    8     1     9    1
    9     7     9    1
   10     9    10    1
   11     9    11    1
   12     7    12    1
   13    12    13    1
@<TRIPOS>SUBSTRUCTURE
       1 MOL1            1 RESIDUE      1      MOL     
@<SCITEGIC>MOL_PROPERTY
VConf Rank
SciTegic.value.IntegerValue
10

@<SCITEGIC>MOL_PROPERTY
Conf_Id
SciTegic.value.IntegerValue
44

@<SCITEGIC>MOL_PROPERTY
Delta U+W
SciTegic.value.DoubleValue
0.823

@<SCITEGIC>MOL_PROPERTY
U+W
SciTegic.value.DoubleValue
-2.308

@<SCITEGIC>MOL_PROPERTY
Grad RMS
SciTegic.value.DoubleValue
0.000000

@<SCITEGIC>MOL_PROPERTY
U
SciTegic.value.DoubleValue
0.039

@<SCITEGIC>MOL_PROPERTY
W
SciTegic.value.DoubleValue
-2.348

@<SCITEGIC>MOL_PROPERTY
W(PB)
SciTegic.value.DoubleValue
-3.918

@<SCITEGIC>MOL_PROPERTY
W(SA)
SciTegic.value.DoubleValue
1.571

@<SCITEGIC>MOL_PROPERTY
Valence
SciTegic.value.DoubleValue
7.320

@<SCITEGIC>MOL_PROPERTY
Coulomb
SciTegic.value.DoubleValue
-8.530

@<SCITEGIC>MOL_PROPERTY
VdW
SciTegic.value.DoubleValue
1.249

@<SCITEGIC>MOL_PROPERTY
VdW6
SciTegic.value.DoubleValue
-2.615

@<SCITEGIC>MOL_PROPERTY
VdW12
SciTegic.value.DoubleValue
3.864

@<SCITEGIC>MOL_PROPERTY
Bond
SciTegic.value.DoubleValue
0.056

@<SCITEGIC>MOL_PROPERTY
Angle
SciTegic.value.DoubleValue
0.694

@<SCITEGIC>MOL_PROPERTY
Pdih
SciTegic.value.DoubleValue
6.570

@<SCITEGIC>MOL_PROPERTY
Idih
SciTegic.value.DoubleValue
0.000

@<SCITEGIC>MOL_PROPERTY
Tether
SciTegic.value.DoubleValue
0.000

@<TRIPOS>MOLECULE
guest-s16_confgen4.mol2 : confsearch ligand conformer 11
          13          13           1
SMALL
USER_CHARGES
 
@<TRIPOS>ATOM
       1    C1      18.864967   18.908324   21.209220 C.3        1 MOL1        -0.1693
       2    H1      19.165998   18.102810   20.526495 H          1 MOL1         0.0829
       3    H2      17.928512   19.346028   20.843426 H          1 MOL1         0.0829
       4    C2      20.002161   19.920712   21.568620 C.3        1 MOL1        -0.1768
       5    H3      20.745009   20.111351   20.786447 H          1 MOL1         0.0829
       6    H4      19.653329   20.882004   21.965888 H          1 MOL1         0.0829
       7    C3      20.414676   18.884011   22.656705 C.3        1 MOL1         0.1211
       8    H5      21.047059   18.070282   22.275918 H          1 MOL1         0.0786
       9    C4      18.898978   18.527608   22.726199 C.3        1 MOL1        -0.1768
      10    H6      18.663713   17.485126   22.967146 H          1 MOL1         0.0829
      11    H7      18.305986   19.182911   23.376377 H          1 MOL1         0.0829
      12    O1      20.959690   19.431779   23.834608 O.3        1 MOL1        -0.5515
      13    H8      21.022649   18.704960   24.491094 H          1 MOL1         0.3773
@<TRIPOS>BOND
    1     1     2    1
    2     1     3    1
    3     1     4    1
    4     4     5    1
    5     4     6    1
    6     4     7    1
    7     7     8    1
    8     1     9    1
    9     7     9    1
   10     9    10    1
   11     9    11    1
   12     7    12    1
   13    12    13    1
@<TRIPOS>SUBSTRUCTURE
       1 MOL1            1 RESIDUE      1      MOL     
@<SCITEGIC>MOL_PROPERTY
VConf Rank
SciTegic.value.IntegerValue
11

@<SCITEGIC>MOL_PROPERTY
Conf_Id
SciTegic.value.IntegerValue
22

@<SCITEGIC>MOL_PROPERTY
Delta U+W
SciTegic.value.DoubleValue
0.000

@<SCITEGIC>MOL_PROPERTY
U+W
SciTegic.value.DoubleValue
-3.131

@<SCITEGIC>MOL_PROPERTY
Grad RMS
SciTegic.value.DoubleValue
0.000000

@<SCITEGIC>MOL_PROPERTY
U
SciTegic.value.DoubleValue
-0.154

@<SCITEGIC>MOL_PROPERTY
W
SciTegic.value.DoubleValue
-2.978

@<SCITEGIC>MOL_PROPERTY
W(PB)
SciTegic.value.DoubleValue
-4.579

@<SCITEGIC>MOL_PROPERTY
W(SA)
SciTegic.value.DoubleValue
1.601

@<SCITEGIC>MOL_PROPERTY
Valence
SciTegic.value.DoubleValue
6.333

@<SCITEGIC>MOL_PROPERTY
Coulomb
SciTegic.value.DoubleValue
-7.439

@<SCITEGIC>MOL_PROPERTY
VdW
SciTegic.value.DoubleValue
0.952

@<SCITEGIC>MOL_PROPERTY
VdW6
SciTegic.value.DoubleValue
-2.120

@<SCITEGIC>MOL_PROPERTY
VdW12
SciTegic.value.DoubleValue
3.072

@<SCITEGIC>MOL_PROPERTY
Bond
SciTegic.value.DoubleValue
0.065

@<SCITEGIC>MOL_PROPERTY
Angle
SciTegic.value.DoubleValue
0.931

@<SCITEGIC>MOL_PROPERTY
Pdih
SciTegic.value.DoubleValue
5.338

@<SCITEGIC>MOL_PROPERTY
Idih
SciTegic.value.DoubleValue
0.000

@<SCITEGIC>MOL_PROPERTY
Tether
SciTegic.value.DoubleValue
0.000

@<TRIPOS>MOLECULE
guest-s16_confgen4.mol2 : confsearch ligand conformer 12
          13          13           1
SMALL
USER_CHARGES
 
@<TRIPOS>ATOM
       1    C1      19.077107   19.886620   22.962145 C.3        1 MOL1        -0.1693
       2    H1      18.284415   20.428091   22.429197 H          1 MOL1         0.0829
       3    H2      19.217170   20.349658   23.946175 H          1 MOL1         0.0829
       4    C2      20.377034   19.640519   22.127306 C.3        1 MOL1        -0.1768
       5    H3      21.267628   19.407584   22.724280 H          1 MOL1         0.0829
       6    H4      20.634823   20.415102   21.396732 H          1 MOL1         0.0829
       7    C3      19.632122   18.393621   21.562022 C.3        1 MOL1         0.1211
       8    H5      18.951255   18.620203   20.730071 H          1 MOL1         0.0786
       9    C4      18.927589   18.329437   22.950675 C.3        1 MOL1        -0.1768
      10    H6      19.500126   17.806828   23.726990 H          1 MOL1         0.0829
      11    H7      17.902996   17.941932   22.947459 H          1 MOL1         0.0829
      12    O1      20.452206   17.291157   21.251239 O.3        1 MOL1        -0.5515
      13    H8      20.957630   17.523630   20.442718 H          1 MOL1         0.3773
@<TRIPOS>BOND
    1     1     2    1
    2     1     3    1
    3     1     4    1
    4     4     5    1
    5     4     6    1
    6     4     7    1
    7     7     8    1
    8     1     9    1
    9     7     9    1
   10     9    10    1
   11     9    11    1
   12     7    12    1
   13    12    13    1
@<TRIPOS>SUBSTRUCTURE
       1 MOL1            1 RESIDUE      1      MOL     
@<SCITEGIC>MOL_PROPERTY
VConf Rank
SciTegic.value.IntegerValue
12

@<SCITEGIC>MOL_PROPERTY
Conf_Id
SciTegic.value.IntegerValue
19

@<SCITEGIC>MOL_PROPERTY
Delta U+W
SciTegic.value.DoubleValue
-0.011

@<SCITEGIC>MOL_PROPERTY
U+W
SciTegic.value.DoubleValue
-3.142

@<SCITEGIC>MOL_PROPERTY
Grad RMS
SciTegic.value.DoubleValue
0.000000

@<SCITEGIC>MOL_PROPERTY
U
SciTegic.value.DoubleValue
-0.154

@<SCITEGIC>MOL_PROPERTY
W
SciTegic.value.DoubleValue
-2.989

@<SCITEGIC>MOL_PROPERTY
W(PB)
SciTegic.value.DoubleValue
-4.588

@<SCITEGIC>MOL_PROPERTY
W(SA)
SciTegic.value.DoubleValue
1.599

@<SCITEGIC>MOL_PROPERTY
Valence
SciTegic.value.DoubleValue
6.334

@<SCITEGIC>MOL_PROPERTY
Coulomb
SciTegic.value.DoubleValue
-7.439

@<SCITEGIC>MOL_PROPERTY
VdW
SciTegic.value.DoubleValue
0.951

@<SCITEGIC>MOL_PROPERTY
VdW6
SciTegic.value.DoubleValue
-2.120

@<SCITEGIC>MOL_PROPERTY
VdW12
SciTegic.value.DoubleValue
3.072

@<SCITEGIC>MOL_PROPERTY
Bond
SciTegic.value.DoubleValue
0.065

@<SCITEGIC>MOL_PROPERTY
Angle
SciTegic.value.DoubleValue
0.930

@<SCITEGIC>MOL_PROPERTY
Pdih
SciTegic.value.DoubleValue
5.339

@<SCITEGIC>MOL_PROPERTY
Idih
SciTegic.value.DoubleValue
0.000

@<SCITEGIC>MOL_PROPERTY
Tether
SciTegic.value.DoubleValue
0.000

@<TRIPOS>MOLECULE
guest-s16_confgen4.mol2 : confsearch ligand conformer 13
          13          13           1
SMALL
USER_CHARGES
 
@<TRIPOS>ATOM
       1    C1      18.434449   19.227118   22.051474 C.3        1 MOL1        -0.1693
       2    H1      17.607173   19.001209   21.368424 H          1 MOL1         0.0829
       3    H2      18.038934   19.787402   22.908712 H          1 MOL1         0.0829
       4    C2      19.713180   19.852265   21.401083 C.3        1 MOL1        -0.1768
       5    H3      19.899784   19.534819   20.368042 H          1 MOL1         0.0829
       6    H4      19.794642   20.943647   21.452491 H          1 MOL1         0.0829
       7    C3      20.528526   19.060425   22.470489 C.3        1 MOL1         0.1211
       8    H5      21.494745   18.677585   22.117407 H          1 MOL1         0.0786
       9    C4      19.361260   18.025007   22.431804 C.3        1 MOL1        -0.1768
      10    H6      19.133097   17.523408   23.378742 H          1 MOL1         0.0829
      11    H7      19.462075   17.264055   21.648374 H          1 MOL1         0.0829
      12    O1      20.694586   19.727382   23.705696 O.3        1 MOL1        -0.5515
      13    H8      21.059236   19.075374   24.341362 H          1 MOL1         0.3773
@<TRIPOS>BOND
    1     1     2    1
    2     1     3    1
    3     1     4    1
    4     4     5    1
    5     4     6    1
    6     4     7    1
    7     7     8    1
    8     1     9    1
    9     7     9    1
   10     9    10    1
   11     9    11    1
   12     7    12    1
   13    12    13    1
@<TRIPOS>SUBSTRUCTURE
       1 MOL1            1 RESIDUE      1      MOL     
@<SCITEGIC>MOL_PROPERTY
VConf Rank
SciTegic.value.IntegerValue
13

@<SCITEGIC>MOL_PROPERTY
Conf_Id
SciTegic.value.IntegerValue
20

@<SCITEGIC>MOL_PROPERTY
Delta U+W
SciTegic.value.DoubleValue
1.030

@<SCITEGIC>MOL_PROPERTY
U+W
SciTegic.value.DoubleValue
-2.101

@<SCITEGIC>MOL_PROPERTY
Grad RMS
SciTegic.value.DoubleValue
0.000000

@<SCITEGIC>MOL_PROPERTY
U
SciTegic.value.DoubleValue
0.841

@<SCITEGIC>MOL_PROPERTY
W
SciTegic.value.DoubleValue
-2.942

@<SCITEGIC>MOL_PROPERTY
W(PB)
SciTegic.value.DoubleValue
-4.530

@<SCITEGIC>MOL_PROPERTY
W(SA)
SciTegic.value.DoubleValue
1.587

@<SCITEGIC>MOL_PROPERTY
Valence
SciTegic.value.DoubleValue
6.736

@<SCITEGIC>MOL_PROPERTY
Coulomb
SciTegic.value.DoubleValue
-7.246

@<SCITEGIC>MOL_PROPERTY
VdW
SciTegic.value.DoubleValue
1.352

@<SCITEGIC>MOL_PROPERTY
VdW6
SciTegic.value.DoubleValue
-2.500

@<SCITEGIC>MOL_PROPERTY
VdW12
SciTegic.value.DoubleValue
3.851

@<SCITEGIC>MOL_PROPERTY
Bond
SciTegic.value.DoubleValue
0.063

@<SCITEGIC>MOL_PROPERTY
Angle
SciTegic.value.DoubleValue
0.687

@<SCITEGIC>MOL_PROPERTY
Pdih
SciTegic.value.DoubleValue
5.986

@<SCITEGIC>MOL_PROPERTY
Idih
SciTegic.value.DoubleValue
0.000

@<SCITEGIC>MOL_PROPERTY
Tether
SciTegic.value.DoubleValue
0.000

@<TRIPOS>MOLECULE
guest-s16_confgen4.mol2 : confsearch ligand conformer 14
          13          13           1
SMALL
USER_CHARGES
 
@<TRIPOS>ATOM
       1    C1      18.736514   18.859824   22.995321 C.3        1 MOL1        -0.1693
       2    H1      18.172181   17.917918   22.998276 H          1 MOL1         0.0829
       3    H2      18.272592   19.547995   23.711993 H          1 MOL1         0.0829
       4    C2      19.028666   19.442713   21.573264 C.3        1 MOL1        -0.1768
       5    H3      18.268076   19.251562   20.808244 H          1 MOL1         0.0829
       6    H4      19.281298   20.510127   21.559404 H          1 MOL1         0.0829
       7    C3      20.254082   18.479677   21.564709 C.3        1 MOL1         0.1211
       8    H5      20.009189   17.451997   21.263722 H          1 MOL1         0.0786
       9    C4      20.287902   18.693079   23.108235 C.3        1 MOL1        -0.1768
      10    H6      20.821988   19.592941   23.437459 H          1 MOL1         0.0829
      11    H7      20.639411   17.839888   23.698825 H          1 MOL1         0.0829
      12    O1      21.383703   18.945066   20.865291 O.3        1 MOL1        -0.5515
      13    H8      21.553001   19.860049   21.173290 H          1 MOL1         0.3773
@<TRIPOS>BOND
    1     1     2    1
    2     1     3    1
    3     1     4    1
    4     4     5    1
    5     4     6    1
    6     4     7    1
    7     7     8    1
    8     1     9    1
    9     7     9    1
   10     9    10    1
   11     9    11    1
   12     7    12    1
   13    12    13    1
@<TRIPOS>SUBSTRUCTURE
       1 MOL1            1 RESIDUE      1      MOL     
@<SCITEGIC>MOL_PROPERTY
VConf Rank
SciTegic.value.IntegerValue
14

@<SCITEGIC>MOL_PROPERTY
Conf_Id
SciTegic.value.IntegerValue
24

@<SCITEGIC>MOL_PROPERTY
Delta U+W
SciTegic.value.DoubleValue
0.356

@<SCITEGIC>MOL_PROPERTY
U+W
SciTegic.value.DoubleValue
-2.775

@<SCITEGIC>MOL_PROPERTY
Grad RMS
SciTegic.value.DoubleValue
0.000000

@<SCITEGIC>MOL_PROPERTY
U
SciTegic.value.DoubleValue
-0.184

@<SCITEGIC>MOL_PROPERTY
W
SciTegic.value.DoubleValue
-2.591

@<SCITEGIC>MOL_PROPERTY
W(PB)
SciTegic.value.DoubleValue
-4.184

@<SCITEGIC>MOL_PROPERTY
W(SA)
SciTegic.value.DoubleValue
1.593

@<SCITEGIC>MOL_PROPERTY
Valence
SciTegic.value.DoubleValue
6.840

@<SCITEGIC>MOL_PROPERTY
Coulomb
SciTegic.value.DoubleValue
-7.916

@<SCITEGIC>MOL_PROPERTY
VdW
SciTegic.value.DoubleValue
0.893

@<SCITEGIC>MOL_PROPERTY
VdW6
SciTegic.value.DoubleValue
-2.167

@<SCITEGIC>MOL_PROPERTY
VdW12
SciTegic.value.DoubleValue
3.060

@<SCITEGIC>MOL_PROPERTY
Bond
SciTegic.value.DoubleValue
0.059

@<SCITEGIC>MOL_PROPERTY
Angle
SciTegic.value.DoubleValue
0.918

@<SCITEGIC>MOL_PROPERTY
Pdih
SciTegic.value.DoubleValue
5.862

@<SCITEGIC>MOL_PROPERTY
Idih
SciTegic.value.DoubleValue
0.000

@<SCITEGIC>MOL_PROPERTY
Tether
SciTegic.value.DoubleValue
0.000

@<TRIPOS>MOLECULE
guest-s16_confgen4.mol2 : confsearch ligand conformer 15
          13          13           1
SMALL
USER_CHARGES
 
@<TRIPOS>ATOM
       1    C1      19.691740   19.974574   22.717243 C.3        1 MOL1        -0.1693
       2    H1      19.822207   21.055977   22.591068 H          1 MOL1         0.0829
       3    H2      19.465225   19.773578   23.772035 H          1 MOL1         0.0829
       4    C2      20.813905   19.073611   22.101493 C.3        1 MOL1        -0.1768
       5    H3      21.296792   19.495577   21.211672 H          1 MOL1         0.0829
       6    H4      21.593469   18.733022   22.792136 H          1 MOL1         0.0829
       7    C3      19.685747   18.043475   21.785152 C.3        1 MOL1         0.1211
       8    H5      19.816065   17.491565   20.845525 H          1 MOL1         0.0786
       9    C4      18.734767   19.276875   21.693741 C.3        1 MOL1        -0.1768
      10    H6      18.707879   19.748680   20.703947 H          1 MOL1         0.0829
      11    H7      17.704618   19.113213   22.029471 H          1 MOL1         0.0829
      12    O1      19.392263   17.146664   22.834592 O.3        1 MOL1        -0.5515
      13    H8      19.287179   17.691160   23.641931 H          1 MOL1         0.3773
@<TRIPOS>BOND
    1     1     2    1
    2     1     3    1
    3     1     4    1
    4     4     5    1
    5     4     6    1
    6     4     7    1
    7     7     8    1
    8     1     9    1
    9     7     9    1
   10     9    10    1
   11     9    11    1
   12     7    12    1
   13    12    13    1
@<TRIPOS>SUBSTRUCTURE
       1 MOL1            1 RESIDUE      1      MOL     
@<SCITEGIC>MOL_PROPERTY
VConf Rank
SciTegic.value.IntegerValue
15

@<SCITEGIC>MOL_PROPERTY
Conf_Id
SciTegic.value.IntegerValue
44

@<SCITEGIC>MOL_PROPERTY
Delta U+W
SciTegic.value.DoubleValue
0.823

@<SCITEGIC>MOL_PROPERTY
U+W
SciTegic.value.DoubleValue
-2.308

@<SCITEGIC>MOL_PROPERTY
Grad RMS
SciTegic.value.DoubleValue
0.000000

@<SCITEGIC>MOL_PROPERTY
U
SciTegic.value.DoubleValue
0.039

@<SCITEGIC>MOL_PROPERTY
W
SciTegic.value.DoubleValue
-2.348

@<SCITEGIC>MOL_PROPERTY
W(PB)
SciTegic.value.DoubleValue
-3.918

@<SCITEGIC>MOL_PROPERTY
W(SA)
SciTegic.value.DoubleValue
1.571

@<SCITEGIC>MOL_PROPERTY
Valence
SciTegic.value.DoubleValue
7.320

@<SCITEGIC>MOL_PROPERTY
Coulomb
SciTegic.value.DoubleValue
-8.530

@<SCITEGIC>MOL_PROPERTY
VdW
SciTegic.value.DoubleValue
1.249

@<SCITEGIC>MOL_PROPERTY
VdW6
SciTegic.value.DoubleValue
-2.615

@<SCITEGIC>MOL_PROPERTY
VdW12
SciTegic.value.DoubleValue
3.864

@<SCITEGIC>MOL_PROPERTY
Bond
SciTegic.value.DoubleValue
0.056

@<SCITEGIC>MOL_PROPERTY
Angle
SciTegic.value.DoubleValue
0.694

@<SCITEGIC>MOL_PROPERTY
Pdih
SciTegic.value.DoubleValue
6.570

@<SCITEGIC>MOL_PROPERTY
Idih
SciTegic.value.DoubleValue
0.000

@<SCITEGIC>MOL_PROPERTY
Tether
SciTegic.value.DoubleValue
0.000

@<TRIPOS>MOLECULE
guest-s16_confgen4.mol2 : confsearch ligand conformer 16
          13          13           1
SMALL
USER_CHARGES
 
@<TRIPOS>ATOM
       1    C1      19.256621   18.757529   21.027112 C.3        1 MOL1        -0.1693
       2    H1      20.027494   18.910353   20.260310 H          1 MOL1         0.0829
       3    H2      18.358945   18.351797   20.545556 H          1 MOL1         0.0829
       4    C2      19.032671   19.976328   21.981933 C.3        1 MOL1        -0.1768
       5    H3      19.182906   20.968645   21.542960 H          1 MOL1         0.0829
       6    H4      18.076513   19.969429   22.519799 H          1 MOL1         0.0829
       7    C3      20.234243   19.405602   22.793933 C.3        1 MOL1         0.1211
       8    H5      21.215944   19.698668   22.397149 H          1 MOL1         0.0786
       9    C4      19.747809   18.006658   22.308617 C.3        1 MOL1        -0.1768
      10    H6      20.530053   17.254819   22.156949 H          1 MOL1         0.0829
      11    H7      18.947621   17.566191   22.916467 H          1 MOL1         0.0829
      12    O1      20.174376   19.615126   24.185717 O.3        1 MOL1        -0.5515
      13    H8      20.887533   19.076762   24.591641 H          1 MOL1         0.3773
@<TRIPOS>BOND
    1     1     2    1
    2     1     3    1
    3     1     4    1
    4     4     5    1
    5     4     6    1
    6     4     7    1
    7     7     8    1
    8     1     9    1
    9     7     9    1
   10     9    10    1
   11     9    11    1
   12     7    12    1
   13    12    13    1
@<TRIPOS>SUBSTRUCTURE
       1 MOL1            1 RESIDUE      1      MOL     
@<SCITEGIC>MOL_PROPERTY
VConf Rank
SciTegic.value.IntegerValue
16

@<SCITEGIC>MOL_PROPERTY
Conf_Id
SciTegic.value.IntegerValue
22

@<SCITEGIC>MOL_PROPERTY
Delta U+W
SciTegic.value.DoubleValue
0.000

@<SCITEGIC>MOL_PROPERTY
U+W
SciTegic.value.DoubleValue
-3.131

@<SCITEGIC>MOL_PROPERTY
Grad RMS
SciTegic.value.DoubleValue
0.000000

@<SCITEGIC>MOL_PROPERTY
U
SciTegic.value.DoubleValue
-0.154

@<SCITEGIC>MOL_PROPERTY
W
SciTegic.value.DoubleValue
-2.978

@<SCITEGIC>MOL_PROPERTY
W(PB)
SciTegic.value.DoubleValue
-4.579

@<SCITEGIC>MOL_PROPERTY
W(SA)
SciTegic.value.DoubleValue
1.601

@<SCITEGIC>MOL_PROPERTY
Valence
SciTegic.value.DoubleValue
6.333

@<SCITEGIC>MOL_PROPERTY
Coulomb
SciTegic.value.DoubleValue
-7.439

@<SCITEGIC>MOL_PROPERTY
VdW
SciTegic.value.DoubleValue
0.952

@<SCITEGIC>MOL_PROPERTY
VdW6
SciTegic.value.DoubleValue
-2.120

@<SCITEGIC>MOL_PROPERTY
VdW12
SciTegic.value.DoubleValue
3.072

@<SCITEGIC>MOL_PROPERTY
Bond
SciTegic.value.DoubleValue
0.065

@<SCITEGIC>MOL_PROPERTY
Angle
SciTegic.value.DoubleValue
0.931

@<SCITEGIC>MOL_PROPERTY
Pdih
SciTegic.value.DoubleValue
5.338

@<SCITEGIC>MOL_PROPERTY
Idih
SciTegic.value.DoubleValue
0.000

@<SCITEGIC>MOL_PROPERTY
Tether
SciTegic.value.DoubleValue
0.000

@<TRIPOS>MOLECULE
guest-s16_confgen4.mol2 : confsearch ligand conformer 17
          13          13           1
SMALL
USER_CHARGES
 
@<TRIPOS>ATOM
       1    C1      18.641092   18.131027   21.881179 C.3        1 MOL1        -0.1693
       2    H1      18.919850   17.069242   21.859013 H          1 MOL1         0.0829
       3    H2      17.605459   18.228728   21.534396 H          1 MOL1         0.0829
       4    C2      19.680911   19.094772   21.219892 C.3        1 MOL1        -0.1768
       5    H3      19.282495   20.079241   20.944430 H          1 MOL1         0.0829
       6    H4      20.240517   18.690192   20.369405 H          1 MOL1         0.0829
       7    C3      20.411636   19.053898   22.595961 C.3        1 MOL1         0.1211
       8    H5      21.066667   18.181681   22.727242 H          1 MOL1         0.0786
       9    C4      18.992267   18.872135   23.213373 C.3        1 MOL1        -0.1768
      10    H6      18.444481   19.808517   23.376786 H          1 MOL1         0.0829
      11    H7      18.944161   18.271480   24.128174 H          1 MOL1         0.0829
      12    O1      21.079126   20.240020   22.959447 O.3        1 MOL1        -0.5515
      13    H8      21.873438   20.313447   22.387713 H          1 MOL1         0.3773
@<TRIPOS>BOND
    1     1     2    1
    2     1     3    1
    3     1     4    1
    4     4     5    1
    5     4     6    1
    6     4     7    1
    7     7     8    1
    8     1     9    1
    9     7     9    1
   10     9    10    1
   11     9    11    1
   12     7    12    1
   13    12    13    1
@<TRIPOS>SUBSTRUCTURE
       1 MOL1            1 RESIDUE      1      MOL     
@<SCITEGIC>MOL_PROPERTY
VConf Rank
SciTegic.value.IntegerValue
17

@<SCITEGIC>MOL_PROPERTY
Conf_Id
SciTegic.value.IntegerValue
19

@<SCITEGIC>MOL_PROPERTY
Delta U+W
SciTegic.value.DoubleValue
-0.011

@<SCITEGIC>MOL_PROPERTY
U+W
SciTegic.value.DoubleValue
-3.142

@<SCITEGIC>MOL_PROPERTY
Grad RMS
SciTegic.value.DoubleValue
0.000000

@<SCITEGIC>MOL_PROPERTY
U
SciTegic.value.DoubleValue
-0.154

@<SCITEGIC>MOL_PROPERTY
W
SciTegic.value.DoubleValue
-2.989

@<SCITEGIC>MOL_PROPERTY
W(PB)
SciTegic.value.DoubleValue
-4.588

@<SCITEGIC>MOL_PROPERTY
W(SA)
SciTegic.value.DoubleValue
1.599

@<SCITEGIC>MOL_PROPERTY
Valence
SciTegic.value.DoubleValue
6.334

@<SCITEGIC>MOL_PROPERTY
Coulomb
SciTegic.value.DoubleValue
-7.439

@<SCITEGIC>MOL_PROPERTY
VdW
SciTegic.value.DoubleValue
0.951

@<SCITEGIC>MOL_PROPERTY
VdW6
SciTegic.value.DoubleValue
-2.120

@<SCITEGIC>MOL_PROPERTY
VdW12
SciTegic.value.DoubleValue
3.072

@<SCITEGIC>MOL_PROPERTY
Bond
SciTegic.value.DoubleValue
0.065

@<SCITEGIC>MOL_PROPERTY
Angle
SciTegic.value.DoubleValue
0.930

@<SCITEGIC>MOL_PROPERTY
Pdih
SciTegic.value.DoubleValue
5.339

@<SCITEGIC>MOL_PROPERTY
Idih
SciTegic.value.DoubleValue
0.000

@<SCITEGIC>MOL_PROPERTY
Tether
SciTegic.value.DoubleValue
0.000

@<TRIPOS>MOLECULE
guest-s16_confgen4.mol2 : confsearch ligand conformer 18
          13          13           1
SMALL
USER_CHARGES
 
@<TRIPOS>ATOM
       1    C1      19.182667   18.334176   23.173283 C.3        1 MOL1        -0.1693
       2    H1      19.191492   17.327536   23.607535 H          1 MOL1         0.0829
       3    H2      18.574590   18.987134   23.812889 H          1 MOL1         0.0829
       4    C2      18.845822   18.422934   21.647626 C.3        1 MOL1        -0.1768
       5    H3      19.164231   17.553392   21.060024 H          1 MOL1         0.0829
       6    H4      17.804174   18.652617   21.397408 H          1 MOL1         0.0829
       7    C3      19.836925   19.627286   21.595838 C.3        1 MOL1         0.1211
       8    H5      20.418954   19.700742   20.668121 H          1 MOL1         0.0786
       9    C4      20.576350   18.925796   22.777895 C.3        1 MOL1        -0.1768
      10    H6      21.042612   19.589909   23.514037 H          1 MOL1         0.0829
      11    H7      21.314685   18.177642   22.464684 H          1 MOL1         0.0829
      12    O1      19.265528   20.881692   21.909071 O.3        1 MOL1        -0.5515
      13    H8      20.003656   21.518838   22.015688 H          1 MOL1         0.3773
@<TRIPOS>BOND
    1     1     2    1
    2     1     3    1
    3     1     4    1
    4     4     5    1
    5     4     6    1
    6     4     7    1
    7     7     8    1
    8     1     9    1
    9     7     9    1
   10     9    10    1
   11     9    11    1
   12     7    12    1
   13    12    13    1
@<TRIPOS>SUBSTRUCTURE
       1 MOL1            1 RESIDUE      1      MOL     
@<SCITEGIC>MOL_PROPERTY
VConf Rank
SciTegic.value.IntegerValue
18

@<SCITEGIC>MOL_PROPERTY
Conf_Id
SciTegic.value.IntegerValue
20

@<SCITEGIC>MOL_PROPERTY
Delta U+W
SciTegic.value.DoubleValue
1.030

@<SCITEGIC>MOL_PROPERTY
U+W
SciTegic.value.DoubleValue
-2.101

@<SCITEGIC>MOL_PROPERTY
Grad RMS
SciTegic.value.DoubleValue
0.000000

@<SCITEGIC>MOL_PROPERTY
U
SciTegic.value.DoubleValue
0.841

@<SCITEGIC>MOL_PROPERTY
W
SciTegic.value.DoubleValue
-2.942

@<SCITEGIC>MOL_PROPERTY
W(PB)
SciTegic.value.DoubleValue
-4.530

@<SCITEGIC>MOL_PROPERTY
W(SA)
SciTegic.value.DoubleValue
1.587

@<SCITEGIC>MOL_PROPERTY
Valence
SciTegic.value.DoubleValue
6.736

@<SCITEGIC>MOL_PROPERTY
Coulomb
SciTegic.value.DoubleValue
-7.246

@<SCITEGIC>MOL_PROPERTY
VdW
SciTegic.value.DoubleValue
1.352

@<SCITEGIC>MOL_PROPERTY
VdW6
SciTegic.value.DoubleValue
-2.500

@<SCITEGIC>MOL_PROPERTY
VdW12
SciTegic.value.DoubleValue
3.851

@<SCITEGIC>MOL_PROPERTY
Bond
SciTegic.value.DoubleValue
0.063

@<SCITEGIC>MOL_PROPERTY
Angle
SciTegic.value.DoubleValue
0.687

@<SCITEGIC>MOL_PROPERTY
Pdih
SciTegic.value.DoubleValue
5.986

@<SCITEGIC>MOL_PROPERTY
Idih
SciTegic.value.DoubleValue
0.000

@<SCITEGIC>MOL_PROPERTY
Tether
SciTegic.value.DoubleValue
0.000

@<TRIPOS>MOLECULE
guest-s16_confgen4.mol2 : confsearch ligand conformer 19
          13          13           1
SMALL
USER_CHARGES
 
@<TRIPOS>ATOM
       1    C1      20.540408   19.897807   21.864447 C.3        1 MOL1        -0.1693
       2    H1      20.999249   19.844865   20.868289 H          1 MOL1         0.0829
       3    H2      20.892034   20.808559   22.363757 H          1 MOL1         0.0829
       4    C2      20.633296   18.577407   22.698276 C.3        1 MOL1        -0.1768
       5    H3      21.526139   17.964442   22.532753 H          1 MOL1         0.0829
       6    H4      20.490825   18.707313   23.778190 H          1 MOL1         0.0829
       7    C3      19.357461   18.139401   21.917539 C.3        1 MOL1         0.1211
       8    H5      19.567397   17.712573   20.927368 H          1 MOL1         0.0786
       9    C4      18.995126   19.654954   21.886458 C.3        1 MOL1        -0.1768
      10    H6      18.486504   20.025707   22.784920 H          1 MOL1         0.0829
      11    H7      18.441214   19.993627   21.003976 H          1 MOL1         0.0829
      12    O1      18.463833   17.318809   22.631595 O.3        1 MOL1        -0.5515
      13    H8      18.315118   17.747372   23.500466 H          1 MOL1         0.3773
@<TRIPOS>BOND
    1     1     2    1
    2     1     3    1
    3     1     4    1
    4     4     5    1
    5     4     6    1
    6     4     7    1
    7     7     8    1
    8     1     9    1
    9     7     9    1
   10     9    10    1
   11     9    11    1
   12     7    12    1
   13    12    13    1
@<TRIPOS>SUBSTRUCTURE
       1 MOL1            1 RESIDUE      1      MOL     
@<SCITEGIC>MOL_PROPERTY
VConf Rank
SciTegic.value.IntegerValue
19

@<SCITEGIC>MOL_PROPERTY
Conf_Id
SciTegic.value.IntegerValue
24

@<SCITEGIC>MOL_PROPERTY
Delta U+W
SciTegic.value.DoubleValue
0.356

@<SCITEGIC>MOL_PROPERTY
U+W
SciTegic.value.DoubleValue
-2.775

@<SCITEGIC>MOL_PROPERTY
Grad RMS
SciTegic.value.DoubleValue
0.000000

@<SCITEGIC>MOL_PROPERTY
U
SciTegic.value.DoubleValue
-0.184

@<SCITEGIC>MOL_PROPERTY
W
SciTegic.value.DoubleValue
-2.591

@<SCITEGIC>MOL_PROPERTY
W(PB)
SciTegic.value.DoubleValue
-4.184

@<SCITEGIC>MOL_PROPERTY
W(SA)
SciTegic.value.DoubleValue
1.593

@<SCITEGIC>MOL_PROPERTY
Valence
SciTegic.value.DoubleValue
6.840

@<SCITEGIC>MOL_PROPERTY
Coulomb
SciTegic.value.DoubleValue
-7.916

@<SCITEGIC>MOL_PROPERTY
VdW
SciTegic.value.DoubleValue
0.893

@<SCITEGIC>MOL_PROPERTY
VdW6
SciTegic.value.DoubleValue
-2.167

@<SCITEGIC>MOL_PROPERTY
VdW12
SciTegic.value.DoubleValue
3.060

@<SCITEGIC>MOL_PROPERTY
Bond
SciTegic.value.DoubleValue
0.059

@<SCITEGIC>MOL_PROPERTY
Angle
SciTegic.value.DoubleValue
0.918

@<SCITEGIC>MOL_PROPERTY
Pdih
SciTegic.value.DoubleValue
5.862

@<SCITEGIC>MOL_PROPERTY
Idih
SciTegic.value.DoubleValue
0.000

@<SCITEGIC>MOL_PROPERTY
Tether
SciTegic.value.DoubleValue
0.000

@<TRIPOS>MOLECULE
guest-s16_confgen4.mol2 : confsearch ligand conformer 20
          13          13           1
SMALL
USER_CHARGES
 
@<TRIPOS>ATOM
       1    C1      19.221567   19.981537   22.356174 C.3        1 MOL1        -0.1693
       2    H1      18.938122   20.928612   21.881747 H          1 MOL1         0.0829
       3    H2      18.930266   20.022731   23.413407 H          1 MOL1         0.0829
       4    C2      20.687065   19.497357   22.095361 C.3        1 MOL1        -0.1768
       5    H3      21.099289   19.801836   21.125630 H          1 MOL1         0.0829
       6    H4      21.420010   19.733689   22.874879 H          1 MOL1         0.0829
       7    C3      20.113751   18.046535   22.115871 C.3        1 MOL1         0.1211
       8    H5      20.593280   17.351710   21.414617 H          1 MOL1         0.0786
       9    C4      18.784039   18.681083   21.602831 C.3        1 MOL1        -0.1768
      10    H6      18.729670   18.785425   20.512340 H          1 MOL1         0.0829
      11    H7      17.860562   18.206920   21.953642 H          1 MOL1         0.0829
      12    O1      20.033699   17.460122   23.397057 O.3        1 MOL1        -0.5515
      13    H8      19.600538   18.120414   23.976452 H          1 MOL1         0.3773
@<TRIPOS>BOND
    1     1     2    1
    2     1     3    1
    3     1     4    1
    4     4     5    1
    5     4     6    1
    6     4     7    1
    7     7     8    1
    8     1     9    1
    9     7     9    1
   10     9    10    1
   11     9    11    1
   12     7    12    1
   13    12    13    1
@<TRIPOS>SUBSTRUCTURE
       1 MOL1            1 RESIDUE      1      MOL     
@<SCITEGIC>MOL_PROPERTY
VConf Rank
SciTegic.value.IntegerValue
20

@<SCITEGIC>MOL_PROPERTY
Conf_Id
SciTegic.value.IntegerValue
44

@<SCITEGIC>MOL_PROPERTY
Delta U+W
SciTegic.value.DoubleValue
0.823

@<SCITEGIC>MOL_PROPERTY
U+W
SciTegic.value.DoubleValue
-2.308

@<SCITEGIC>MOL_PROPERTY
Grad RMS
SciTegic.value.DoubleValue
0.000000

@<SCITEGIC>MOL_PROPERTY
U
SciTegic.value.DoubleValue
0.039

@<SCITEGIC>MOL_PROPERTY
W
SciTegic.value.DoubleValue
-2.348

@<SCITEGIC>MOL_PROPERTY
W(PB)
SciTegic.value.DoubleValue
-3.918

@<SCITEGIC>MOL_PROPERTY
W(SA)
SciTegic.value.DoubleValue
1.571

@<SCITEGIC>MOL_PROPERTY
Valence
SciTegic.value.DoubleValue
7.320

@<SCITEGIC>MOL_PROPERTY
Coulomb
SciTegic.value.DoubleValue
-8.530

@<SCITEGIC>MOL_PROPERTY
VdW
SciTegic.value.DoubleValue
1.249

@<SCITEGIC>MOL_PROPERTY
VdW6
SciTegic.value.DoubleValue
-2.615

@<SCITEGIC>MOL_PROPERTY
VdW12
SciTegic.value.DoubleValue
3.864

@<SCITEGIC>MOL_PROPERTY
Bond
SciTegic.value.DoubleValue
0.056

@<SCITEGIC>MOL_PROPERTY
Angle
SciTegic.value.DoubleValue
0.694

@<SCITEGIC>MOL_PROPERTY
Pdih
SciTegic.value.DoubleValue
6.570

@<SCITEGIC>MOL_PROPERTY
Idih
SciTegic.value.DoubleValue
0.000

@<SCITEGIC>MOL_PROPERTY
Tether
SciTegic.value.DoubleValue
0.000

@<TRIPOS>MOLECULE
guest-s16_confgen4.mol2 : confsearch ligand conformer 21
          13          13           1
SMALL
USER_CHARGES
 
@<TRIPOS>ATOM
       1    C1      18.861460   20.084811   22.329910 C.3        1 MOL1        -0.1693
       2    H1      18.941801   20.625549   23.282136 H          1 MOL1         0.0829
       3    H2      18.149894   20.614316   21.685212 H          1 MOL1         0.0829
       4    C2      18.645090   18.541789   22.469813 C.3        1 MOL1        -0.1768
       5    H3      18.068460   18.211228   23.340553 H          1 MOL1         0.0829
       6    H4      18.244787   18.050566   21.574245 H          1 MOL1         0.0829
       7    C3      20.194856   18.460156   22.612666 C.3        1 MOL1         0.1211
       8    H5      20.556746   18.658259   23.630926 H          1 MOL1         0.0786
       9    C4      20.230579   19.704867   21.675324 C.3        1 MOL1        -0.1768
      10    H6      21.055977   20.405532   21.842534 H          1 MOL1         0.0829
      11    H7      20.177229   19.470917   20.604709 H          1 MOL1         0.0829
      12    O1      20.787340   17.294189   22.089187 O.3        1 MOL1        -0.5515
      13    H8      21.758508   17.435726   22.090927 H          1 MOL1         0.3773
@<TRIPOS>BOND
    1     1     2    1
    2     1     3    1
    3     1     4    1
    4     4     5    1
    5     4     6    1
    6     4     7    1
    7     7     8    1
    8     1     9    1
    9     7     9    1
   10     9    10    1
   11     9    11    1
   12     7    12    1
   13    12    13    1
@<TRIPOS>SUBSTRUCTURE
       1 MOL1            1 RESIDUE      1      MOL     
@<SCITEGIC>MOL_PROPERTY
VConf Rank
SciTegic.value.IntegerValue
21

@<SCITEGIC>MOL_PROPERTY
Conf_Id
SciTegic.value.IntegerValue
22

@<SCITEGIC>MOL_PROPERTY
Delta U+W
SciTegic.value.DoubleValue
0.000

@<SCITEGIC>MOL_PROPERTY
U+W
SciTegic.value.DoubleValue
-3.131

@<SCITEGIC>MOL_PROPERTY
Grad RMS
SciTegic.value.DoubleValue
0.000000

@<SCITEGIC>MOL_PROPERTY
U
SciTegic.value.DoubleValue
-0.154

@<SCITEGIC>MOL_PROPERTY
W
SciTegic.value.DoubleValue
-2.978

@<SCITEGIC>MOL_PROPERTY
W(PB)
SciTegic.value.DoubleValue
-4.579

@<SCITEGIC>MOL_PROPERTY
W(SA)
SciTegic.value.DoubleValue
1.601

@<SCITEGIC>MOL_PROPERTY
Valence
SciTegic.value.DoubleValue
6.333

@<SCITEGIC>MOL_PROPERTY
Coulomb
SciTegic.value.DoubleValue
-7.439

@<SCITEGIC>MOL_PROPERTY
VdW
SciTegic.value.DoubleValue
0.952

@<SCITEGIC>MOL_PROPERTY
VdW6
SciTegic.value.DoubleValue
-2.120

@<SCITEGIC>MOL_PROPERTY
VdW12
SciTegic.value.DoubleValue
3.072

@<SCITEGIC>MOL_PROPERTY
Bond
SciTegic.value.DoubleValue
0.065

@<SCITEGIC>MOL_PROPERTY
Angle
SciTegic.value.DoubleValue
0.931

@<SCITEGIC>MOL_PROPERTY
Pdih
SciTegic.value.DoubleValue
5.338

@<SCITEGIC>MOL_PROPERTY
Idih
SciTegic.value.DoubleValue
0.000

@<SCITEGIC>MOL_PROPERTY
Tether
SciTegic.value.DoubleValue
0.000

@<TRIPOS>MOLECULE
guest-s16_confgen4.mol2 : confsearch ligand conformer 22
          13          13           1
SMALL
USER_CHARGES
 
@<TRIPOS>ATOM
       1    C1      19.126122   18.490795   21.106242 C.3        1 MOL1        -0.1693
       2    H1      19.480682   19.050161   20.230467 H          1 MOL1         0.0829
       3    H2      18.396004   17.743738   20.772816 H          1 MOL1         0.0829
       4    C2      18.695013   19.378998   22.319738 C.3        1 MOL1        -0.1768
       5    H3      18.049565   18.874981   23.049914 H          1 MOL1         0.0829
       6    H4      18.255973   20.351970   22.073279 H          1 MOL1         0.0829
       7    C3      20.208305   19.390724   22.692571 C.3        1 MOL1         0.1211
       8    H5      20.795869   20.142590   22.148028 H          1 MOL1         0.0786
       9    C4      20.257934   17.970561   22.052636 C.3        1 MOL1        -0.1768
      10    H6      19.957197   17.158083   22.725705 H          1 MOL1         0.0829
      11    H7      21.203446   17.697775   21.571434 H          1 MOL1         0.0829
      12    O1      20.488813   19.439743   24.072231 O.3        1 MOL1        -0.5515
      13    H8      20.267176   20.344262   24.381949 H          1 MOL1         0.3773
@<TRIPOS>BOND
    1     1     2    1
    2     1     3    1
    3     1     4    1
    4     4     5    1
    5     4     6    1
    6     4     7    1
    7     7     8    1
    8     1     9    1
    9     7     9    1
   10     9    10    1
   11     9    11    1
   12     7    12    1
   13    12    13    1
@<TRIPOS>SUBSTRUCTURE
       1 MOL1            1 RESIDUE      1      MOL     
@<SCITEGIC>MOL_PROPERTY
VConf Rank
SciTegic.value.IntegerValue
22

@<SCITEGIC>MOL_PROPERTY
Conf_Id
SciTegic.value.IntegerValue
19

@<SCITEGIC>MOL_PROPERTY
Delta U+W
SciTegic.value.DoubleValue
-0.011

@<SCITEGIC>MOL_PROPERTY
U+W
SciTegic.value.DoubleValue
-3.142

@<SCITEGIC>MOL_PROPERTY
Grad RMS
SciTegic.value.DoubleValue
0.000000

@<SCITEGIC>MOL_PROPERTY
U
SciTegic.value.DoubleValue
-0.154

@<SCITEGIC>MOL_PROPERTY
W
SciTegic.value.DoubleValue
-2.989

@<SCITEGIC>MOL_PROPERTY
W(PB)
SciTegic.value.DoubleValue
-4.588

@<SCITEGIC>MOL_PROPERTY
W(SA)
SciTegic.value.DoubleValue
1.599

@<SCITEGIC>MOL_PROPERTY
Valence
SciTegic.value.DoubleValue
6.334

@<SCITEGIC>MOL_PROPERTY
Coulomb
SciTegic.value.DoubleValue
-7.439

@<SCITEGIC>MOL_PROPERTY
VdW
SciTegic.value.DoubleValue
0.951

@<SCITEGIC>MOL_PROPERTY
VdW6
SciTegic.value.DoubleValue
-2.120

@<SCITEGIC>MOL_PROPERTY
VdW12
SciTegic.value.DoubleValue
3.072

@<SCITEGIC>MOL_PROPERTY
Bond
SciTegic.value.DoubleValue
0.065

@<SCITEGIC>MOL_PROPERTY
Angle
SciTegic.value.DoubleValue
0.930

@<SCITEGIC>MOL_PROPERTY
Pdih
SciTegic.value.DoubleValue
5.339

@<SCITEGIC>MOL_PROPERTY
Idih
SciTegic.value.DoubleValue
0.000

@<SCITEGIC>MOL_PROPERTY
Tether
SciTegic.value.DoubleValue
0.000

@<TRIPOS>MOLECULE
guest-s16_confgen4.mol2 : confsearch ligand conformer 23
          13          13           1
SMALL
USER_CHARGES
 
@<TRIPOS>ATOM
       1    C1      19.149200   19.379129   21.194851 C.3        1 MOL1        -0.1693
       2    H1      18.350159   19.942142   20.698335 H          1 MOL1         0.0829
       3    H2      19.830748   18.987073   20.428697 H          1 MOL1         0.0829
       4    C2      18.691198   18.325387   22.257317 C.3        1 MOL1        -0.1768
       5    H3      17.765883   18.584710   22.785814 H          1 MOL1         0.0829
       6    H4      18.616267   17.290023   21.906889 H          1 MOL1         0.0829
       7    C3      19.994744   18.684779   23.036440 C.3        1 MOL1         0.1211
       8    H5      19.893635   18.667281   24.129273 H          1 MOL1         0.0786
       9    C4      19.858601   20.098733   22.389682 C.3        1 MOL1        -0.1768
      10    H6      20.797883   20.610593   22.152825 H          1 MOL1         0.0829
      11    H7      19.216014   20.788647   22.950104 H          1 MOL1         0.0829
      12    O1      21.141483   17.956846   22.644972 O.3        1 MOL1        -0.5515
      13    H8      21.915872   18.384351   23.068901 H          1 MOL1         0.3773
@<TRIPOS>BOND
    1     1     2    1
    2     1     3    1
    3     1     4    1
    4     4     5    1
    5     4     6    1
    6     4     7    1
    7     7     8    1
    8     1     9    1
    9     7     9    1
   10     9    10    1
   11     9    11    1
   12     7    12    1
   13    12    13    1
@<TRIPOS>SUBSTRUCTURE
       1 MOL1            1 RESIDUE      1      MOL     
@<SCITEGIC>MOL_PROPERTY
VConf Rank
SciTegic.value.IntegerValue
23

@<SCITEGIC>MOL_PROPERTY
Conf_Id
SciTegic.value.IntegerValue
20

@<SCITEGIC>MOL_PROPERTY
Delta U+W
SciTegic.value.DoubleValue
1.030

@<SCITEGIC>MOL_PROPERTY
U+W
SciTegic.value.DoubleValue
-2.101

@<SCITEGIC>MOL_PROPERTY
Grad RMS
SciTegic.value.DoubleValue
0.000000

@<SCITEGIC>MOL_PROPERTY
U
SciTegic.value.DoubleValue
0.841

@<SCITEGIC>MOL_PROPERTY
W
SciTegic.value.DoubleValue
-2.942

@<SCITEGIC>MOL_PROPERTY
W(PB)
SciTegic.value.DoubleValue
-4.530

@<SCITEGIC>MOL_PROPERTY
W(SA)
SciTegic.value.DoubleValue
1.587

@<SCITEGIC>MOL_PROPERTY
Valence
SciTegic.value.DoubleValue
6.736

@<SCITEGIC>MOL_PROPERTY
Coulomb
SciTegic.value.DoubleValue
-7.246

@<SCITEGIC>MOL_PROPERTY
VdW
SciTegic.value.DoubleValue
1.352

@<SCITEGIC>MOL_PROPERTY
VdW6
SciTegic.value.DoubleValue
-2.500

@<SCITEGIC>MOL_PROPERTY
VdW12
SciTegic.value.DoubleValue
3.851

@<SCITEGIC>MOL_PROPERTY
Bond
SciTegic.value.DoubleValue
0.063

@<SCITEGIC>MOL_PROPERTY
Angle
SciTegic.value.DoubleValue
0.687

@<SCITEGIC>MOL_PROPERTY
Pdih
SciTegic.value.DoubleValue
5.986

@<SCITEGIC>MOL_PROPERTY
Idih
SciTegic.value.DoubleValue
0.000

@<SCITEGIC>MOL_PROPERTY
Tether
SciTegic.value.DoubleValue
0.000

@<TRIPOS>MOLECULE
guest-s16_confgen4.mol2 : confsearch ligand conformer 24
          13          13           1
SMALL
USER_CHARGES
 
@<TRIPOS>ATOM
       1    C1      19.338757   19.743551   21.289239 C.3        1 MOL1        -0.1693
       2    H1      20.050914   20.475105   20.885097 H          1 MOL1         0.0829
       3    H2      18.378876   19.868017   20.773915 H          1 MOL1         0.0829
       4    C2      19.277526   19.684513   22.851328 C.3        1 MOL1        -0.1768
       5    H3      19.458376   20.628598   23.376961 H          1 MOL1         0.0829
       6    H4      18.367605   19.224836   23.256457 H          1 MOL1         0.0829
       7    C3      20.501734   18.726267   22.740718 C.3        1 MOL1         0.1211
       8    H5      21.464772   19.245563   22.642821 H          1 MOL1         0.0786
       9    C4      19.885097   18.280492   21.380498 C.3        1 MOL1        -0.1768
      10    H6      19.110976   17.506999   21.456878 H          1 MOL1         0.0829
      11    H7      20.602524   17.984611   20.607165 H          1 MOL1         0.0829
      12    O1      20.576667   17.724996   23.727459 O.3        1 MOL1        -0.5515
      13    H8      19.694778   17.299292   23.769499 H          1 MOL1         0.3773
@<TRIPOS>BOND
    1     1     2    1
    2     1     3    1
    3     1     4    1
    4     4     5    1
    5     4     6    1
    6     4     7    1
    7     7     8    1
    8     1     9    1
    9     7     9    1
   10     9    10    1
   11     9    11    1
   12     7    12    1
   13    12    13    1
@<TRIPOS>SUBSTRUCTURE
       1 MOL1            1 RESIDUE      1      MOL     
@<SCITEGIC>MOL_PROPERTY
VConf Rank
SciTegic.value.IntegerValue
24

@<SCITEGIC>MOL_PROPERTY
Conf_Id
SciTegic.value.IntegerValue
24

@<SCITEGIC>MOL_PROPERTY
Delta U+W
SciTegic.value.DoubleValue
0.356

@<SCITEGIC>MOL_PROPERTY
U+W
SciTegic.value.DoubleValue
-2.775

@<SCITEGIC>MOL_PROPERTY
Grad RMS
SciTegic.value.DoubleValue
0.000000

@<SCITEGIC>MOL_PROPERTY
U
SciTegic.value.DoubleValue
-0.184

@<SCITEGIC>MOL_PROPERTY
W
SciTegic.value.DoubleValue
-2.591

@<SCITEGIC>MOL_PROPERTY
W(PB)
SciTegic.value.DoubleValue
-4.184

@<SCITEGIC>MOL_PROPERTY
W(SA)
SciTegic.value.DoubleValue
1.593

@<SCITEGIC>MOL_PROPERTY
Valence
SciTegic.value.DoubleValue
6.840

@<SCITEGIC>MOL_PROPERTY
Coulomb
SciTegic.value.DoubleValue
-7.916

@<SCITEGIC>MOL_PROPERTY
VdW
SciTegic.value.DoubleValue
0.893

@<SCITEGIC>MOL_PROPERTY
VdW6
SciTegic.value.DoubleValue
-2.167

@<SCITEGIC>MOL_PROPERTY
VdW12
SciTegic.value.DoubleValue
3.060

@<SCITEGIC>MOL_PROPERTY
Bond
SciTegic.value.DoubleValue
0.059

@<SCITEGIC>MOL_PROPERTY
Angle
SciTegic.value.DoubleValue
0.918

@<SCITEGIC>MOL_PROPERTY
Pdih
SciTegic.value.DoubleValue
5.862

@<SCITEGIC>MOL_PROPERTY
Idih
SciTegic.value.DoubleValue
0.000

@<SCITEGIC>MOL_PROPERTY
Tether
SciTegic.value.DoubleValue
0.000

@<TRIPOS>MOLECULE
guest-s16_confgen4.mol2 : confsearch ligand conformer 25
          13          13           1
SMALL
USER_CHARGES
 
@<TRIPOS>ATOM
       1    C1      20.083216   18.146929   22.869127 C.3        1 MOL1        -0.1693
       2    H1      19.827619   17.259426   23.460212 H          1 MOL1         0.0829
       3    H2      21.165593   18.312319   22.942618 H          1 MOL1         0.0829
       4    C2      19.204212   19.416398   23.125910 C.3        1 MOL1        -0.1768
       5    H3      18.170635   19.199772   23.422235 H          1 MOL1         0.0829
       6    H4      19.616996   20.157823   23.819169 H          1 MOL1         0.0829
       7    C3      19.378280   19.731287   21.607840 C.3        1 MOL1         0.1211
       8    H5      18.501271   20.183814   21.127671 H          1 MOL1         0.0786
       9    C4      19.508051   18.188706   21.413938 C.3        1 MOL1        -0.1768
      10    H6      18.548972   17.671067   21.290513 H          1 MOL1         0.0829
      11    H7      20.185300   17.861527   20.617072 H          1 MOL1         0.0829
      12    O1      20.538282   20.467697   21.285625 O.3        1 MOL1        -0.5515
      13    H8      21.283430   20.021207   21.738080 H          1 MOL1         0.3773
@<TRIPOS>BOND
    1     1     2    1
    2     1     3    1
    3     1     4    1
    4     4     5    1
    5     4     6    1
    6     4     7    1
    7     7     8    1
    8     1     9    1
    9     7     9    1
   10     9    10    1
   11     9    11    1
   12     7    12    1
   13    12    13    1
@<TRIPOS>SUBSTRUCTURE
       1 MOL1            1 RESIDUE      1      MOL     
@<SCITEGIC>MOL_PROPERTY
VConf Rank
SciTegic.value.IntegerValue
25

@<SCITEGIC>MOL_PROPERTY
Conf_Id
SciTegic.value.IntegerValue
44

@<SCITEGIC>MOL_PROPERTY
Delta U+W
SciTegic.value.DoubleValue
0.823

@<SCITEGIC>MOL_PROPERTY
U+W
SciTegic.value.DoubleValue
-2.308

@<SCITEGIC>MOL_PROPERTY
Grad RMS
SciTegic.value.DoubleValue
0.000000

@<SCITEGIC>MOL_PROPERTY
U
SciTegic.value.DoubleValue
0.039

@<SCITEGIC>MOL_PROPERTY
W
SciTegic.value.DoubleValue
-2.348

@<SCITEGIC>MOL_PROPERTY
W(PB)
SciTegic.value.DoubleValue
-3.918

@<SCITEGIC>MOL_PROPERTY
W(SA)
SciTegic.value.DoubleValue
1.571

@<SCITEGIC>MOL_PROPERTY
Valence
SciTegic.value.DoubleValue
7.320

@<SCITEGIC>MOL_PROPERTY
Coulomb
SciTegic.value.DoubleValue
-8.530

@<SCITEGIC>MOL_PROPERTY
VdW
SciTegic.value.DoubleValue
1.249

@<SCITEGIC>MOL_PROPERTY
VdW6
SciTegic.value.DoubleValue
-2.615

@<SCITEGIC>MOL_PROPERTY
VdW12
SciTegic.value.DoubleValue
3.864

@<SCITEGIC>MOL_PROPERTY
Bond
SciTegic.value.DoubleValue
0.056

@<SCITEGIC>MOL_PROPERTY
Angle
SciTegic.value.DoubleValue
0.694

@<SCITEGIC>MOL_PROPERTY
Pdih
SciTegic.value.DoubleValue
6.570

@<SCITEGIC>MOL_PROPERTY
Idih
SciTegic.value.DoubleValue
0.000

@<SCITEGIC>MOL_PROPERTY
Tether
SciTegic.value.DoubleValue
0.000

@<TRIPOS>MOLECULE
guest-s16_confgen4.mol2 : confsearch ligand conformer 26
          13          13           1
SMALL
USER_CHARGES
 
@<TRIPOS>ATOM
       1    C1      19.728120   20.206913   22.866949 C.3        1 MOL1        -0.1693
       2    H1      18.760027   20.543478   23.260783 H          1 MOL1         0.0829
       3    H2      20.495931   20.934592   23.155544 H          1 MOL1         0.0829
       4    C2      19.711346   19.787076   21.360044 C.3        1 MOL1        -0.1768
       5    H3      19.013757   20.331202   20.714090 H          1 MOL1         0.0829
       6    H4      20.696378   19.766541   20.877472 H          1 MOL1         0.0829
       7    C3      19.216758   18.402513   21.876973 C.3        1 MOL1         0.1211
       8    H5      18.134521   18.359471   22.061289 H          1 MOL1         0.0786
       9    C4      20.063643   18.705345   23.149873 C.3        1 MOL1        -0.1768
      10    H6      19.678408   18.293853   24.089256 H          1 MOL1         0.0829
      11    H7      21.126799   18.449009   23.061636 H          1 MOL1         0.0829
      12    O1      19.640147   17.291341   21.121604 O.3        1 MOL1        -0.5515
      13    H8      19.406892   16.486574   21.632629 H          1 MOL1         0.3773
@<TRIPOS>BOND
    1     1     2    1
    2     1     3    1
    3     1     4    1
    4     4     5    1
    5     4     6    1
    6     4     7    1
    7     7     8    1
    8     1     9    1
    9     7     9    1
   10     9    10    1
   11     9    11    1
   12     7    12    1
   13    12    13    1
@<TRIPOS>SUBSTRUCTURE
       1 MOL1            1 RESIDUE      1      MOL     
@<SCITEGIC>MOL_PROPERTY
VConf Rank
SciTegic.value.IntegerValue
26

@<SCITEGIC>MOL_PROPERTY
Conf_Id
SciTegic.value.IntegerValue
22

@<SCITEGIC>MOL_PROPERTY
Delta U+W
SciTegic.value.DoubleValue
0.000

@<SCITEGIC>MOL_PROPERTY
U+W
SciTegic.value.DoubleValue
-3.131

@<SCITEGIC>MOL_PROPERTY
Grad RMS
SciTegic.value.DoubleValue
0.000000

@<SCITEGIC>MOL_PROPERTY
U
SciTegic.value.DoubleValue
-0.154

@<SCITEGIC>MOL_PROPERTY
W
SciTegic.value.DoubleValue
-2.978

@<SCITEGIC>MOL_PROPERTY
W(PB)
SciTegic.value.DoubleValue
-4.579

@<SCITEGIC>MOL_PROPERTY
W(SA)
SciTegic.value.DoubleValue
1.601

@<SCITEGIC>MOL_PROPERTY
Valence
SciTegic.value.DoubleValue
6.333

@<SCITEGIC>MOL_PROPERTY
Coulomb
SciTegic.value.DoubleValue
-7.439

@<SCITEGIC>MOL_PROPERTY
VdW
SciTegic.value.DoubleValue
0.952

@<SCITEGIC>MOL_PROPERTY
VdW6
SciTegic.value.DoubleValue
-2.120

@<SCITEGIC>MOL_PROPERTY
VdW12
SciTegic.value.DoubleValue
3.072

@<SCITEGIC>MOL_PROPERTY
Bond
SciTegic.value.DoubleValue
0.065

@<SCITEGIC>MOL_PROPERTY
Angle
SciTegic.value.DoubleValue
0.931

@<SCITEGIC>MOL_PROPERTY
Pdih
SciTegic.value.DoubleValue
5.338

@<SCITEGIC>MOL_PROPERTY
Idih
SciTegic.value.DoubleValue
0.000

@<SCITEGIC>MOL_PROPERTY
Tether
SciTegic.value.DoubleValue
0.000

@<TRIPOS>MOLECULE
guest-s16_confgen4.mol2 : confsearch ligand conformer 27
          13          13           1
SMALL
USER_CHARGES
 
@<TRIPOS>ATOM
       1    C1      19.566425   20.238084   22.123218 C.3        1 MOL1        -0.1693
       2    H1      19.893141   20.601004   21.139790 H          1 MOL1         0.0829
       3    H2      19.323644   21.102420   22.752757 H          1 MOL1         0.0829
       4    C2      20.500041   19.160167   22.766481 C.3        1 MOL1        -0.1768
       5    H3      20.377975   19.036050   23.849758 H          1 MOL1         0.0829
       6    H4      21.568095   19.250173   22.539918 H          1 MOL1         0.0829
       7    C3      19.706107   18.133405   21.903564 C.3        1 MOL1         0.1211
       8    H5      20.062232   18.052008   20.867412 H          1 MOL1         0.0786
       9    C4      18.495188   19.098929   22.077584 C.3        1 MOL1        -0.1768
      10    H6      17.932725   18.959119   23.009074 H          1 MOL1         0.0829
      11    H7      17.788775   19.132518   21.241036 H          1 MOL1         0.0829
      12    O1      19.546761   16.857665   22.479450 O.3        1 MOL1        -0.5515
      13    H8      20.420990   16.412838   22.446970 H          1 MOL1         0.3773
@<TRIPOS>BOND
    1     1     2    1
    2     1     3    1
    3     1     4    1
    4     4     5    1
    5     4     6    1
    6     4     7    1
    7     7     8    1
    8     1     9    1
    9     7     9    1
   10     9    10    1
   11     9    11    1
   12     7    12    1
   13    12    13    1
@<TRIPOS>SUBSTRUCTURE
       1 MOL1            1 RESIDUE      1      MOL     
@<SCITEGIC>MOL_PROPERTY
VConf Rank
SciTegic.value.IntegerValue
27

@<SCITEGIC>MOL_PROPERTY
Conf_Id
SciTegic.value.IntegerValue
19

@<SCITEGIC>MOL_PROPERTY
Delta U+W
SciTegic.value.DoubleValue
-0.011

@<SCITEGIC>MOL_PROPERTY
U+W
SciTegic.value.DoubleValue
-3.142

@<SCITEGIC>MOL_PROPERTY
Grad RMS
SciTegic.value.DoubleValue
0.000000

@<SCITEGIC>MOL_PROPERTY
U
SciTegic.value.DoubleValue
-0.154

@<SCITEGIC>MOL_PROPERTY
W
SciTegic.value.DoubleValue
-2.989

@<SCITEGIC>MOL_PROPERTY
W(PB)
SciTegic.value.DoubleValue
-4.588

@<SCITEGIC>MOL_PROPERTY
W(SA)
SciTegic.value.DoubleValue
1.599

@<SCITEGIC>MOL_PROPERTY
Valence
SciTegic.value.DoubleValue
6.334

@<SCITEGIC>MOL_PROPERTY
Coulomb
SciTegic.value.DoubleValue
-7.439

@<SCITEGIC>MOL_PROPERTY
VdW
SciTegic.value.DoubleValue
0.951

@<SCITEGIC>MOL_PROPERTY
VdW6
SciTegic.value.DoubleValue
-2.120

@<SCITEGIC>MOL_PROPERTY
VdW12
SciTegic.value.DoubleValue
3.072

@<SCITEGIC>MOL_PROPERTY
Bond
SciTegic.value.DoubleValue
0.065

@<SCITEGIC>MOL_PROPERTY
Angle
SciTegic.value.DoubleValue
0.930

@<SCITEGIC>MOL_PROPERTY
Pdih
SciTegic.value.DoubleValue
5.339

@<SCITEGIC>MOL_PROPERTY
Idih
SciTegic.value.DoubleValue
0.000

@<SCITEGIC>MOL_PROPERTY
Tether
SciTegic.value.DoubleValue
0.000

@<TRIPOS>MOLECULE
guest-s16_confgen4.mol2 : confsearch ligand conformer 28
          13          13           1
SMALL
USER_CHARGES
 
@<TRIPOS>ATOM
       1    C1      20.390319   19.732921   21.586041 C.3        1 MOL1        -0.1693
       2    H1      20.449760   20.500945   20.805923 H          1 MOL1         0.0829
       3    H2      21.406388   19.508640   21.936055 H          1 MOL1         0.0829
       4    C2      19.527149   18.472409   21.246898 C.3        1 MOL1        -0.1768
       5    H3      18.682148   18.666834   20.575378 H          1 MOL1         0.0829
       6    H4      20.075489   17.599204   20.876453 H          1 MOL1         0.0829
       7    C3      19.147452   18.442601   22.760295 C.3        1 MOL1         0.1211
       8    H5      18.119445   18.118350   22.967356 H          1 MOL1         0.0786
       9    C4      19.351062   19.989713   22.727401 C.3        1 MOL1        -0.1768
      10    H6      19.746122   20.441377   23.644068 H          1 MOL1         0.0829
      11    H7      18.463265   20.552702   22.414617 H          1 MOL1         0.0829
      12    O1      20.052565   17.738514   23.586841 O.3        1 MOL1        -0.5515
      13    H8      19.810524   17.935486   24.516773 H          1 MOL1         0.3773
@<TRIPOS>BOND
    1     1     2    1
    2     1     3    1
    3     1     4    1
    4     4     5    1
    5     4     6    1
    6     4     7    1
    7     7     8    1
    8     1     9    1
    9     7     9    1
   10     9    10    1
   11     9    11    1
   12     7    12    1
   13    12    13    1
@<TRIPOS>SUBSTRUCTURE
       1 MOL1            1 RESIDUE      1      MOL     
@<SCITEGIC>MOL_PROPERTY
VConf Rank
SciTegic.value.IntegerValue
28

@<SCITEGIC>MOL_PROPERTY
Conf_Id
SciTegic.value.IntegerValue
20

@<SCITEGIC>MOL_PROPERTY
Delta U+W
SciTegic.value.DoubleValue
1.030

@<SCITEGIC>MOL_PROPERTY
U+W
SciTegic.value.DoubleValue
-2.101

@<SCITEGIC>MOL_PROPERTY
Grad RMS
SciTegic.value.DoubleValue
0.000000

@<SCITEGIC>MOL_PROPERTY
U
SciTegic.value.DoubleValue
0.841

@<SCITEGIC>MOL_PROPERTY
W
SciTegic.value.DoubleValue
-2.942

@<SCITEGIC>MOL_PROPERTY
W(PB)
SciTegic.value.DoubleValue
-4.530

@<SCITEGIC>MOL_PROPERTY
W(SA)
SciTegic.value.DoubleValue
1.587

@<SCITEGIC>MOL_PROPERTY
Valence
SciTegic.value.DoubleValue
6.736

@<SCITEGIC>MOL_PROPERTY
Coulomb
SciTegic.value.DoubleValue
-7.246

@<SCITEGIC>MOL_PROPERTY
VdW
SciTegic.value.DoubleValue
1.352

@<SCITEGIC>MOL_PROPERTY
VdW6
SciTegic.value.DoubleValue
-2.500

@<SCITEGIC>MOL_PROPERTY
VdW12
SciTegic.value.DoubleValue
3.851

@<SCITEGIC>MOL_PROPERTY
Bond
SciTegic.value.DoubleValue
0.063

@<SCITEGIC>MOL_PROPERTY
Angle
SciTegic.value.DoubleValue
0.687

@<SCITEGIC>MOL_PROPERTY
Pdih
SciTegic.value.DoubleValue
5.986

@<SCITEGIC>MOL_PROPERTY
Idih
SciTegic.value.DoubleValue
0.000

@<SCITEGIC>MOL_PROPERTY
Tether
SciTegic.value.DoubleValue
0.000

@<TRIPOS>MOLECULE
guest-s16_confgen4.mol2 : confsearch ligand conformer 29
          13          13           1
SMALL
USER_CHARGES
 
@<TRIPOS>ATOM
       1    C1      19.654638   18.852008   23.486534 C.3        1 MOL1        -0.1693
       2    H1      19.930907   17.895088   23.948755 H          1 MOL1         0.0829
       3    H2      19.342984   19.545340   24.276840 H          1 MOL1         0.0829
       4    C2      18.692235   18.731685   22.259073 C.3        1 MOL1        -0.1768
       5    H3      17.974697   17.904292   22.288272 H          1 MOL1         0.0829
       6    H4      18.155369   19.654378   22.006486 H          1 MOL1         0.0829
       7    C3      19.984862   18.477371   21.426249 C.3        1 MOL1         0.1211
       8    H5      20.332764   17.435770   21.453179 H          1 MOL1         0.0786
       9    C4      20.694767   19.405674   22.457483 C.3        1 MOL1        -0.1768
      10    H6      20.605491   20.479012   22.249244 H          1 MOL1         0.0829
      11    H7      21.745769   19.173516   22.661906 H          1 MOL1         0.0829
      12    O1      19.954979   18.955817   20.102612 O.3        1 MOL1        -0.5515
      13    H8      19.639139   19.882887   20.141404 H          1 MOL1         0.3773
@<TRIPOS>BOND
    1     1     2    1
    2     1     3    1
    3     1     4    1
    4     4     5    1
    5     4     6    1
    6     4     7    1
    7     7     8    1
    8     1     9    1
    9     7     9    1
   10     9    10    1
   11     9    11    1
   12     7    12    1
   13    12    13    1
@<TRIPOS>SUBSTRUCTURE
       1 MOL1            1 RESIDUE      1      MOL     
@<SCITEGIC>MOL_PROPERTY
VConf Rank
SciTegic.value.IntegerValue
29

@<SCITEGIC>MOL_PROPERTY
Conf_Id
SciTegic.value.IntegerValue
24

@<SCITEGIC>MOL_PROPERTY
Delta U+W
SciTegic.value.DoubleValue
0.356

@<SCITEGIC>MOL_PROPERTY
U+W
SciTegic.value.DoubleValue
-2.775

@<SCITEGIC>MOL_PROPERTY
Grad RMS
SciTegic.value.DoubleValue
0.000000

@<SCITEGIC>MOL_PROPERTY
U
SciTegic.value.DoubleValue
-0.184

@<SCITEGIC>MOL_PROPERTY
W
SciTegic.value.DoubleValue
-2.591

@<SCITEGIC>MOL_PROPERTY
W(PB)
SciTegic.value.DoubleValue
-4.184

@<SCITEGIC>MOL_PROPERTY
W(SA)
SciTegic.value.DoubleValue
1.593

@<SCITEGIC>MOL_PROPERTY
Valence
SciTegic.value.DoubleValue
6.840

@<SCITEGIC>MOL_PROPERTY
Coulomb
SciTegic.value.DoubleValue
-7.916

@<SCITEGIC>MOL_PROPERTY
VdW
SciTegic.value.DoubleValue
0.893

@<SCITEGIC>MOL_PROPERTY
VdW6
SciTegic.value.DoubleValue
-2.167

@<SCITEGIC>MOL_PROPERTY
VdW12
SciTegic.value.DoubleValue
3.060

@<SCITEGIC>MOL_PROPERTY
Bond
SciTegic.value.DoubleValue
0.059

@<SCITEGIC>MOL_PROPERTY
Angle
SciTegic.value.DoubleValue
0.918

@<SCITEGIC>MOL_PROPERTY
Pdih
SciTegic.value.DoubleValue
5.862

@<SCITEGIC>MOL_PROPERTY
Idih
SciTegic.value.DoubleValue
0.000

@<SCITEGIC>MOL_PROPERTY
Tether
SciTegic.value.DoubleValue
0.000

@<TRIPOS>MOLECULE
guest-s16_confgen4.mol2 : confsearch ligand conformer 30
          13          13           1
SMALL
USER_CHARGES
 
@<TRIPOS>ATOM
       1    C1      18.685665   18.470187   22.229759 C.3        1 MOL1        -0.1693
       2    H1      18.143721   17.525513   22.357285 H          1 MOL1         0.0829
       3    H2      17.954224   19.267060   22.044602 H          1 MOL1         0.0829
       4    C2      19.891158   18.438042   21.231816 C.3        1 MOL1        -0.1768
       5    H3      20.400193   17.468671   21.166872 H          1 MOL1         0.0829
       6    H4      19.686631   18.792629   20.215378 H          1 MOL1         0.0829
       7    C3      20.587319   19.459892   22.183223 C.3        1 MOL1         0.1211
       8    H5      21.674034   19.337188   22.275319 H          1 MOL1         0.0786
       9    C4      19.754523   18.798997   23.325004 C.3        1 MOL1        -0.1768
      10    H6      20.230057   17.918127   23.773279 H          1 MOL1         0.0829
      11    H7      19.431067   19.467762   24.130508 H          1 MOL1         0.0829
      12    O1      20.274412   20.812470   21.929552 O.3        1 MOL1        -0.5515
      13    H8      19.298854   20.861433   21.857412 H          1 MOL1         0.3773
@<TRIPOS>BOND
    1     1     2    1
    2     1     3    1
    3     1     4    1
    4     4     5    1
    5     4     6    1
    6     4     7    1
    7     7     8    1
    8     1     9    1
    9     7     9    1
   10     9    10    1
   11     9    11    1
   12     7    12    1
   13    12    13    1
@<TRIPOS>SUBSTRUCTURE
       1 MOL1            1 RESIDUE      1      MOL     
@<SCITEGIC>MOL_PROPERTY
VConf Rank
SciTegic.value.IntegerValue
30

@<SCITEGIC>MOL_PROPERTY
Conf_Id
SciTegic.value.IntegerValue
44

@<SCITEGIC>MOL_PROPERTY
Delta U+W
SciTegic.value.DoubleValue
0.823

@<SCITEGIC>MOL_PROPERTY
U+W
SciTegic.value.DoubleValue
-2.308

@<SCITEGIC>MOL_PROPERTY
Grad RMS
SciTegic.value.DoubleValue
0.000000

@<SCITEGIC>MOL_PROPERTY
U
SciTegic.value.DoubleValue
0.039

@<SCITEGIC>MOL_PROPERTY
W
SciTegic.value.DoubleValue
-2.348

@<SCITEGIC>MOL_PROPERTY
W(PB)
SciTegic.value.DoubleValue
-3.918

@<SCITEGIC>MOL_PROPERTY
W(SA)
SciTegic.value.DoubleValue
1.571

@<SCITEGIC>MOL_PROPERTY
Valence
SciTegic.value.DoubleValue
7.320

@<SCITEGIC>MOL_PROPERTY
Coulomb
SciTegic.value.DoubleValue
-8.530

@<SCITEGIC>MOL_PROPERTY
VdW
SciTegic.value.DoubleValue
1.249

@<SCITEGIC>MOL_PROPERTY
VdW6
SciTegic.value.DoubleValue
-2.615

@<SCITEGIC>MOL_PROPERTY
VdW12
SciTegic.value.DoubleValue
3.864

@<SCITEGIC>MOL_PROPERTY
Bond
SciTegic.value.DoubleValue
0.056

@<SCITEGIC>MOL_PROPERTY
Angle
SciTegic.value.DoubleValue
0.694

@<SCITEGIC>MOL_PROPERTY
Pdih
SciTegic.value.DoubleValue
6.570

@<SCITEGIC>MOL_PROPERTY
Idih
SciTegic.value.DoubleValue
0.000

@<SCITEGIC>MOL_PROPERTY
Tether
SciTegic.value.DoubleValue
0.000

@<TRIPOS>MOLECULE
guest-s16_confgen4.mol2 : confsearch ligand conformer 31
          13          13           1
SMALL
USER_CHARGES
 
@<TRIPOS>ATOM
       1    C1      18.605097   18.926842   21.473775 C.3        1 MOL1        -0.1693
       2    H1      18.474358   19.769894   20.782575 H          1 MOL1         0.0829
       3    H2      17.819150   18.187810   21.277672 H          1 MOL1         0.0829
       4    C2      18.807782   19.333328   22.970771 C.3        1 MOL1        -0.1768
       5    H3      18.288238   20.239600   23.300475 H          1 MOL1         0.0829
       6    H4      18.614203   18.532302   23.694975 H          1 MOL1         0.0829
       7    C3      20.308956   19.512549   22.592351 C.3        1 MOL1         0.1211
       8    H5      20.537474   20.485430   22.135903 H          1 MOL1         0.0786
       9    C4      20.064899   18.371022   21.559613 C.3        1 MOL1        -0.1768
      10    H6      20.656328   18.424902   20.639026 H          1 MOL1         0.0829
      11    H7      20.145741   17.357760   21.972601 H          1 MOL1         0.0829
      12    O1      21.228272   19.212270   23.616674 O.3        1 MOL1        -0.5515
      13    H8      22.122230   19.204198   23.211733 H          1 MOL1         0.3773
@<TRIPOS>BOND
    1     1     2    1
    2     1     3    1
    3     1     4    1
    4     4     5    1
    5     4     6    1
    6     4     7    1
    7     7     8    1
    8     1     9    1
    9     7     9    1
   10     9    10    1
   11     9    11    1
   12     7    12    1
   13    12    13    1
@<TRIPOS>SUBSTRUCTURE
       1 MOL1            1 RESIDUE      1      MOL     
@<SCITEGIC>MOL_PROPERTY
VConf Rank
SciTegic.value.IntegerValue
31

@<SCITEGIC>MOL_PROPERTY
Conf_Id
SciTegic.value.IntegerValue
22

@<SCITEGIC>MOL_PROPERTY
Delta U+W
SciTegic.value.DoubleValue
0.000

@<SCITEGIC>MOL_PROPERTY
U+W
SciTegic.value.DoubleValue
-3.131

@<SCITEGIC>MOL_PROPERTY
Grad RMS
SciTegic.value.DoubleValue
0.000000

@<SCITEGIC>MOL_PROPERTY
U
SciTegic.value.DoubleValue
-0.154

@<SCITEGIC>MOL_PROPERTY
W
SciTegic.value.DoubleValue
-2.978

@<SCITEGIC>MOL_PROPERTY
W(PB)
SciTegic.value.DoubleValue
-4.579

@<SCITEGIC>MOL_PROPERTY
W(SA)
SciTegic.value.DoubleValue
1.601

@<SCITEGIC>MOL_PROPERTY
Valence
SciTegic.value.DoubleValue
6.333

@<SCITEGIC>MOL_PROPERTY
Coulomb
SciTegic.value.DoubleValue
-7.439

@<SCITEGIC>MOL_PROPERTY
VdW
SciTegic.value.DoubleValue
0.952

@<SCITEGIC>MOL_PROPERTY
VdW6
SciTegic.value.DoubleValue
-2.120

@<SCITEGIC>MOL_PROPERTY
VdW12
SciTegic.value.DoubleValue
3.072

@<SCITEGIC>MOL_PROPERTY
Bond
SciTegic.value.DoubleValue
0.065

@<SCITEGIC>MOL_PROPERTY
Angle
SciTegic.value.DoubleValue
0.931

@<SCITEGIC>MOL_PROPERTY
Pdih
SciTegic.value.DoubleValue
5.338

@<SCITEGIC>MOL_PROPERTY
Idih
SciTegic.value.DoubleValue
0.000

@<SCITEGIC>MOL_PROPERTY
Tether
SciTegic.value.DoubleValue
0.000

@<TRIPOS>MOLECULE
guest-s16_confgen4.mol2 : confsearch ligand conformer 32
          13          13           1
SMALL
USER_CHARGES
 
@<TRIPOS>ATOM
       1    C1      20.390988   19.395699   21.276177 C.3        1 MOL1        -0.1693
       2    H1      21.463502   19.231545   21.444562 H          1 MOL1         0.0829
       3    H2      20.265161   19.964427   20.347170 H          1 MOL1         0.0829
       4    C2      19.607238   19.929820   22.520275 C.3        1 MOL1        -0.1768
       5    H3      18.643096   20.398921   22.287537 H          1 MOL1         0.0829
       6    H4      20.165315   20.587163   23.196014 H          1 MOL1         0.0829
       7    C3      19.512835   18.434716   22.950330 C.3        1 MOL1         0.1211
       8    H5      20.404990   18.064061   23.473527 H          1 MOL1         0.0786
       9    C4      19.502022   18.117025   21.424618 C.3        1 MOL1        -0.1768
      10    H6      18.513965   18.186662   20.952941 H          1 MOL1         0.0829
      11    H7      19.966019   17.168760   21.132278 H          1 MOL1         0.0829
      12    O1      18.340944   18.080893   23.647490 O.3        1 MOL1        -0.5515
      13    H8      18.406024   18.474689   24.544090 H          1 MOL1         0.3773
@<TRIPOS>BOND
    1     1     2    1
    2     1     3    1
    3     1     4    1
    4     4     5    1
    5     4     6    1
    6     4     7    1
    7     7     8    1
    8     1     9    1
    9     7     9    1
   10     9    10    1
   11     9    11    1
   12     7    12    1
   13    12    13    1
@<TRIPOS>SUBSTRUCTURE
       1 MOL1            1 RESIDUE      1      MOL     
@<SCITEGIC>MOL_PROPERTY
VConf Rank
SciTegic.value.IntegerValue
32

@<SCITEGIC>MOL_PROPERTY
Conf_Id
SciTegic.value.IntegerValue
19

@<SCITEGIC>MOL_PROPERTY
Delta U+W
SciTegic.value.DoubleValue
-0.011

@<SCITEGIC>MOL_PROPERTY
U+W
SciTegic.value.DoubleValue
-3.142

@<SCITEGIC>MOL_PROPERTY
Grad RMS
SciTegic.value.DoubleValue
0.000000

@<SCITEGIC>MOL_PROPERTY
U
SciTegic.value.DoubleValue
-0.154

@<SCITEGIC>MOL_PROPERTY
W
SciTegic.value.DoubleValue
-2.989

@<SCITEGIC>MOL_PROPERTY
W(PB)
SciTegic.value.DoubleValue
-4.588

@<SCITEGIC>MOL_PROPERTY
W(SA)
SciTegic.value.DoubleValue
1.599

@<SCITEGIC>MOL_PROPERTY
Valence
SciTegic.value.DoubleValue
6.334

@<SCITEGIC>MOL_PROPERTY
Coulomb
SciTegic.value.DoubleValue
-7.439

@<SCITEGIC>MOL_PROPERTY
VdW
SciTegic.value.DoubleValue
0.951

@<SCITEGIC>MOL_PROPERTY
VdW6
SciTegic.value.DoubleValue
-2.120

@<SCITEGIC>MOL_PROPERTY
VdW12
SciTegic.value.DoubleValue
3.072

@<SCITEGIC>MOL_PROPERTY
Bond
SciTegic.value.DoubleValue
0.065

@<SCITEGIC>MOL_PROPERTY
Angle
SciTegic.value.DoubleValue
0.930

@<SCITEGIC>MOL_PROPERTY
Pdih
SciTegic.value.DoubleValue
5.339

@<SCITEGIC>MOL_PROPERTY
Idih
SciTegic.value.DoubleValue
0.000

@<SCITEGIC>MOL_PROPERTY
Tether
SciTegic.value.DoubleValue
0.000

@<TRIPOS>MOLECULE
guest-s16_confgen4.mol2 : confsearch ligand conformer 33
          13          13           1
SMALL
USER_CHARGES
 
@<TRIPOS>ATOM
       1    C1      18.665079   18.407977   21.874511 C.3        1 MOL1        -0.1693
       2    H1      17.570701   18.357999   21.831895 H          1 MOL1         0.0829
       3    H2      19.077694   17.588481   21.271699 H          1 MOL1         0.0829
       4    C2      19.293015   18.544635   23.301393 C.3        1 MOL1        -0.1768
       5    H3      18.670856   19.088963   24.022081 H          1 MOL1         0.0829
       6    H4      19.636323   17.614256   23.767148 H          1 MOL1         0.0829
       7    C3      20.399915   19.414023   22.627327 C.3        1 MOL1         0.1211
       8    H5      20.769004   20.243222   23.244591 H          1 MOL1         0.0786
       9    C4      19.302000   19.808844   21.590603 C.3        1 MOL1        -0.1768
      10    H6      19.649112   19.979862   20.565607 H          1 MOL1         0.0829
      11    H7      18.681384   20.659950   21.896264 H          1 MOL1         0.0829
      12    O1      21.488062   18.684559   22.096326 O.3        1 MOL1        -0.5515
      13    H8      22.018541   19.306925   21.554655 H          1 MOL1         0.3773
@<TRIPOS>BOND
    1     1     2    1
    2     1     3    1
    3     1     4    1
    4     4     5    1
    5     4     6    1
    6     4     7    1
    7     7     8    1
    8     1     9    1
    9     7     9    1
   10     9    10    1
   11     9    11    1
   12     7    12    1
   13    12    13    1
@<TRIPOS>SUBSTRUCTURE
       1 MOL1            1 RESIDUE      1      MOL     
@<SCITEGIC>MOL_PROPERTY
VConf Rank
SciTegic.value.IntegerValue
33

@<SCITEGIC>MOL_PROPERTY
Conf_Id
SciTegic.value.IntegerValue
20

@<SCITEGIC>MOL_PROPERTY
Delta U+W
SciTegic.value.DoubleValue
1.030

@<SCITEGIC>MOL_PROPERTY
U+W
SciTegic.value.DoubleValue
-2.101

@<SCITEGIC>MOL_PROPERTY
Grad RMS
SciTegic.value.DoubleValue
0.000000

@<SCITEGIC>MOL_PROPERTY
U
SciTegic.value.DoubleValue
0.841

@<SCITEGIC>MOL_PROPERTY
W
SciTegic.value.DoubleValue
-2.942

@<SCITEGIC>MOL_PROPERTY
W(PB)
SciTegic.value.DoubleValue
-4.530

@<SCITEGIC>MOL_PROPERTY
W(SA)
SciTegic.value.DoubleValue
1.587

@<SCITEGIC>MOL_PROPERTY
Valence
SciTegic.value.DoubleValue
6.736

@<SCITEGIC>MOL_PROPERTY
Coulomb
SciTegic.value.DoubleValue
-7.246

@<SCITEGIC>MOL_PROPERTY
VdW
SciTegic.value.DoubleValue
1.352

@<SCITEGIC>MOL_PROPERTY
VdW6
SciTegic.value.DoubleValue
-2.500

@<SCITEGIC>MOL_PROPERTY
VdW12
SciTegic.value.DoubleValue
3.851

@<SCITEGIC>MOL_PROPERTY
Bond
SciTegic.value.DoubleValue
0.063

@<SCITEGIC>MOL_PROPERTY
Angle
SciTegic.value.DoubleValue
0.687

@<SCITEGIC>MOL_PROPERTY
Pdih
SciTegic.value.DoubleValue
5.986

@<SCITEGIC>MOL_PROPERTY
Idih
SciTegic.value.DoubleValue
0.000

@<SCITEGIC>MOL_PROPERTY
Tether
SciTegic.value.DoubleValue
0.000

@<TRIPOS>MOLECULE
guest-s16_confgen4.mol2 : confsearch ligand conformer 34
          13          13           1
SMALL
USER_CHARGES
 
@<TRIPOS>ATOM
       1    C1      20.252619   18.050197   22.968046 C.3        1 MOL1        -0.1693
       2    H1      20.977518   18.363406   23.730994 H          1 MOL1         0.0829
       3    H2      20.121370   16.963601   23.035162 H          1 MOL1         0.0829
       4    C2      20.520549   18.622952   21.537129 C.3        1 MOL1        -0.1768
       5    H3      21.571271   18.780424   21.269775 H          1 MOL1         0.0829
       6    H4      20.029313   18.073098   20.724888 H          1 MOL1         0.0829
       7    C3      19.751680   19.885139   22.031980 C.3        1 MOL1         0.1211
       8    H5      20.373993   20.589881   22.600098 H          1 MOL1         0.0786
       9    C4      18.939624   18.899667   22.925605 C.3        1 MOL1        -0.1768
      10    H6      18.095031   18.411663   22.423705 H          1 MOL1         0.0829
      11    H7      18.594147   19.301523   23.884484 H          1 MOL1         0.0829
      12    O1      19.006707   20.563239   21.048611 O.3        1 MOL1        -0.5515
      13    H8      18.474781   19.888048   20.577557 H          1 MOL1         0.3773
@<TRIPOS>BOND
    1     1     2    1
    2     1     3    1
    3     1     4    1
    4     4     5    1
    5     4     6    1
    6     4     7    1
    7     7     8    1
    8     1     9    1
    9     7     9    1
   10     9    10    1
   11     9    11    1
   12     7    12    1
   13    12    13    1
@<TRIPOS>SUBSTRUCTURE
       1 MOL1            1 RESIDUE      1      MOL     
@<SCITEGIC>MOL_PROPERTY
VConf Rank
SciTegic.value.IntegerValue
34

@<SCITEGIC>MOL_PROPERTY
Conf_Id
SciTegic.value.IntegerValue
24

@<SCITEGIC>MOL_PROPERTY
Delta U+W
SciTegic.value.DoubleValue
0.356

@<SCITEGIC>MOL_PROPERTY
U+W
SciTegic.value.DoubleValue
-2.775

@<SCITEGIC>MOL_PROPERTY
Grad RMS
SciTegic.value.DoubleValue
0.000000

@<SCITEGIC>MOL_PROPERTY
U
SciTegic.value.DoubleValue
-0.184

@<SCITEGIC>MOL_PROPERTY
W
SciTegic.value.DoubleValue
-2.591

@<SCITEGIC>MOL_PROPERTY
W(PB)
SciTegic.value.DoubleValue
-4.184

@<SCITEGIC>MOL_PROPERTY
W(SA)
SciTegic.value.DoubleValue
1.593

@<SCITEGIC>MOL_PROPERTY
Valence
SciTegic.value.DoubleValue
6.840

@<SCITEGIC>MOL_PROPERTY
Coulomb
SciTegic.value.DoubleValue
-7.916

@<SCITEGIC>MOL_PROPERTY
VdW
SciTegic.value.DoubleValue
0.893

@<SCITEGIC>MOL_PROPERTY
VdW6
SciTegic.value.DoubleValue
-2.167

@<SCITEGIC>MOL_PROPERTY
VdW12
SciTegic.value.DoubleValue
3.060

@<SCITEGIC>MOL_PROPERTY
Bond
SciTegic.value.DoubleValue
0.059

@<SCITEGIC>MOL_PROPERTY
Angle
SciTegic.value.DoubleValue
0.918

@<SCITEGIC>MOL_PROPERTY
Pdih
SciTegic.value.DoubleValue
5.862

@<SCITEGIC>MOL_PROPERTY
Idih
SciTegic.value.DoubleValue
0.000

@<SCITEGIC>MOL_PROPERTY
Tether
SciTegic.value.DoubleValue
0.000

@<TRIPOS>MOLECULE
guest-s16_confgen4.mol2 : confsearch ligand conformer 35
          13          13           1
SMALL
USER_CHARGES
 
@<TRIPOS>ATOM
       1    C1      19.274837   19.884116   21.702789 C.3        1 MOL1        -0.1693
       2    H1      18.850257   20.295869   20.779445 H          1 MOL1         0.0829
       3    H2      19.313816   20.683993   22.453105 H          1 MOL1         0.0829
       4    C2      20.600401   19.067403   21.541544 C.3        1 MOL1        -0.1768
       5    H3      20.698709   18.547820   20.580615 H          1 MOL1         0.0829
       6    H4      21.530517   19.611757   21.739713 H          1 MOL1         0.0829
       7    C3      20.077841   18.165301   22.702205 C.3        1 MOL1         0.1211
       8    H5      20.333407   17.101964   22.610081 H          1 MOL1         0.0786
       9    C4      18.647635   18.540625   22.204572 C.3        1 MOL1        -0.1768
      10    H6      18.267154   17.891885   21.406208 H          1 MOL1         0.0829
      11    H7      17.878035   18.626464   22.979849 H          1 MOL1         0.0829
      12    O1      20.393367   18.626704   23.998075 O.3        1 MOL1        -0.5515
      13    H8      20.145881   19.574069   24.021809 H          1 MOL1         0.3773
@<TRIPOS>BOND
    1     1     2    1
    2     1     3    1
    3     1     4    1
    4     4     5    1
    5     4     6    1
    6     4     7    1
    7     7     8    1
    8     1     9    1
    9     7     9    1
   10     9    10    1
   11     9    11    1
   12     7    12    1
   13    12    13    1
@<TRIPOS>SUBSTRUCTURE
       1 MOL1            1 RESIDUE      1      MOL     
@<SCITEGIC>MOL_PROPERTY
VConf Rank
SciTegic.value.IntegerValue
35

@<SCITEGIC>MOL_PROPERTY
Conf_Id
SciTegic.value.IntegerValue
44

@<SCITEGIC>MOL_PROPERTY
Delta U+W
SciTegic.value.DoubleValue
0.823

@<SCITEGIC>MOL_PROPERTY
U+W
SciTegic.value.DoubleValue
-2.308

@<SCITEGIC>MOL_PROPERTY
Grad RMS
SciTegic.value.DoubleValue
0.000000

@<SCITEGIC>MOL_PROPERTY
U
SciTegic.value.DoubleValue
0.039

@<SCITEGIC>MOL_PROPERTY
W
SciTegic.value.DoubleValue
-2.348

@<SCITEGIC>MOL_PROPERTY
W(PB)
SciTegic.value.DoubleValue
-3.918

@<SCITEGIC>MOL_PROPERTY
W(SA)
SciTegic.value.DoubleValue
1.571

@<SCITEGIC>MOL_PROPERTY
Valence
SciTegic.value.DoubleValue
7.320

@<SCITEGIC>MOL_PROPERTY
Coulomb
SciTegic.value.DoubleValue
-8.530

@<SCITEGIC>MOL_PROPERTY
VdW
SciTegic.value.DoubleValue
1.249

@<SCITEGIC>MOL_PROPERTY
VdW6
SciTegic.value.DoubleValue
-2.615

@<SCITEGIC>MOL_PROPERTY
VdW12
SciTegic.value.DoubleValue
3.864

@<SCITEGIC>MOL_PROPERTY
Bond
SciTegic.value.DoubleValue
0.056

@<SCITEGIC>MOL_PROPERTY
Angle
SciTegic.value.DoubleValue
0.694

@<SCITEGIC>MOL_PROPERTY
Pdih
SciTegic.value.DoubleValue
6.570

@<SCITEGIC>MOL_PROPERTY
Idih
SciTegic.value.DoubleValue
0.000

@<SCITEGIC>MOL_PROPERTY
Tether
SciTegic.value.DoubleValue
0.000

@<TRIPOS>MOLECULE
guest-s16_confgen4.mol2 : confsearch ligand conformer 36
          13          13           1
SMALL
USER_CHARGES
 
@<TRIPOS>ATOM
       1    C1      20.631213   19.096604   23.147751 C.3        1 MOL1        -0.1693
       2    H1      20.534936   19.942391   23.841264 H          1 MOL1         0.0829
       3    H2      21.499056   18.496234   23.445649 H          1 MOL1         0.0829
       4    C2      20.547960   19.479441   21.633217 C.3        1 MOL1        -0.1768
       5    H3      20.946155   20.462760   21.360296 H          1 MOL1         0.0829
       6    H4      20.958651   18.729258   20.946089 H          1 MOL1         0.0829
       7    C3      19.003076   19.403099   21.823881 C.3        1 MOL1         0.1211
       8    H5      18.562324   20.319745   22.239284 H          1 MOL1         0.0786
       9    C4      19.305426   18.307170   22.890051 C.3        1 MOL1        -0.1768
      10    H6      18.605472   18.252533   23.731034 H          1 MOL1         0.0829
      11    H7      19.444853   17.298914   22.480449 H          1 MOL1         0.0829
      12    O1      18.278219   18.965149   20.698124 O.3        1 MOL1        -0.5515
      13    H8      17.355386   18.804609   20.991054 H          1 MOL1         0.3773
@<TRIPOS>BOND
    1     1     2    1
    2     1     3    1
    3     1     4    1
    4     4     5    1
    5     4     6    1
    6     4     7    1
    7     7     8    1
    8     1     9    1
    9     7     9    1
   10     9    10    1
   11     9    11    1
   12     7    12    1
   13    12    13    1
@<TRIPOS>SUBSTRUCTURE
       1 MOL1            1 RESIDUE      1      MOL     
@<SCITEGIC>MOL_PROPERTY
VConf Rank
SciTegic.value.IntegerValue
36

@<SCITEGIC>MOL_PROPERTY
Conf_Id
SciTegic.value.IntegerValue
22

@<SCITEGIC>MOL_PROPERTY
Delta U+W
SciTegic.value.DoubleValue
0.000

@<SCITEGIC>MOL_PROPERTY
U+W
SciTegic.value.DoubleValue
-3.131

@<SCITEGIC>MOL_PROPERTY
Grad RMS
SciTegic.value.DoubleValue
0.000000

@<SCITEGIC>MOL_PROPERTY
U
SciTegic.value.DoubleValue
-0.154

@<SCITEGIC>MOL_PROPERTY
W
SciTegic.value.DoubleValue
-2.978

@<SCITEGIC>MOL_PROPERTY
W(PB)
SciTegic.value.DoubleValue
-4.579

@<SCITEGIC>MOL_PROPERTY
W(SA)
SciTegic.value.DoubleValue
1.601

@<SCITEGIC>MOL_PROPERTY
Valence
SciTegic.value.DoubleValue
6.333

@<SCITEGIC>MOL_PROPERTY
Coulomb
SciTegic.value.DoubleValue
-7.439

@<SCITEGIC>MOL_PROPERTY
VdW
SciTegic.value.DoubleValue
0.952

@<SCITEGIC>MOL_PROPERTY
VdW6
SciTegic.value.DoubleValue
-2.120

@<SCITEGIC>MOL_PROPERTY
VdW12
SciTegic.value.DoubleValue
3.072

@<SCITEGIC>MOL_PROPERTY
Bond
SciTegic.value.DoubleValue
0.065

@<SCITEGIC>MOL_PROPERTY
Angle
SciTegic.value.DoubleValue
0.931

@<SCITEGIC>MOL_PROPERTY
Pdih
SciTegic.value.DoubleValue
5.338

@<SCITEGIC>MOL_PROPERTY
Idih
SciTegic.value.DoubleValue
0.000

@<SCITEGIC>MOL_PROPERTY
Tether
SciTegic.value.DoubleValue
0.000

@<TRIPOS>MOLECULE
guest-s16_confgen4.mol2 : confsearch ligand conformer 37
          13          13           1
SMALL
USER_CHARGES
 
@<TRIPOS>ATOM
       1    C1      19.166042   17.690384   22.222161 C.3        1 MOL1        -0.1693
       2    H1      18.070980   17.633455   22.278588 H          1 MOL1         0.0829
       3    H2      19.569916   16.671001   22.213177 H          1 MOL1         0.0829
       4    C2      19.823327   18.680897   23.239112 C.3        1 MOL1        -0.1768
       5    H3      20.891926   18.509847   23.419759 H          1 MOL1         0.0829
       6    H4      19.315451   18.789153   24.203744 H          1 MOL1         0.0829
       7    C3      19.513738   19.781984   22.180360 C.3        1 MOL1         0.1211
       8    H5      18.486218   20.168211   22.226101 H          1 MOL1         0.0786
       9    C4      19.715239   18.656616   21.121215 C.3        1 MOL1        -0.1768
      10    H6      20.760294   18.482500   20.836382 H          1 MOL1         0.0829
      11    H7      19.112081   18.745571   20.211133 H          1 MOL1         0.0829
      12    O1      20.443224   20.838871   22.120398 O.3        1 MOL1        -0.5515
      13    H8      20.313663   21.385889   22.924879 H          1 MOL1         0.3773
@<TRIPOS>BOND
    1     1     2    1
    2     1     3    1
    3     1     4    1
    4     4     5    1
    5     4     6    1
    6     4     7    1
    7     7     8    1
    8     1     9    1
    9     7     9    1
   10     9    10    1
   11     9    11    1
   12     7    12    1
   13    12    13    1
@<TRIPOS>SUBSTRUCTURE
       1 MOL1            1 RESIDUE      1      MOL     
@<SCITEGIC>MOL_PROPERTY
VConf Rank
SciTegic.value.IntegerValue
37

@<SCITEGIC>MOL_PROPERTY
Conf_Id
SciTegic.value.IntegerValue
19

@<SCITEGIC>MOL_PROPERTY
Delta U+W
SciTegic.value.DoubleValue
-0.011

@<SCITEGIC>MOL_PROPERTY
U+W
SciTegic.value.DoubleValue
-3.142

@<SCITEGIC>MOL_PROPERTY
Grad RMS
SciTegic.value.DoubleValue
0.000000

@<SCITEGIC>MOL_PROPERTY
U
SciTegic.value.DoubleValue
-0.154

@<SCITEGIC>MOL_PROPERTY
W
SciTegic.value.DoubleValue
-2.989

@<SCITEGIC>MOL_PROPERTY
W(PB)
SciTegic.value.DoubleValue
-4.588

@<SCITEGIC>MOL_PROPERTY
W(SA)
SciTegic.value.DoubleValue
1.599

@<SCITEGIC>MOL_PROPERTY
Valence
SciTegic.value.DoubleValue
6.334

@<SCITEGIC>MOL_PROPERTY
Coulomb
SciTegic.value.DoubleValue
-7.439

@<SCITEGIC>MOL_PROPERTY
VdW
SciTegic.value.DoubleValue
0.951

@<SCITEGIC>MOL_PROPERTY
VdW6
SciTegic.value.DoubleValue
-2.120

@<SCITEGIC>MOL_PROPERTY
VdW12
SciTegic.value.DoubleValue
3.072

@<SCITEGIC>MOL_PROPERTY
Bond
SciTegic.value.DoubleValue
0.065

@<SCITEGIC>MOL_PROPERTY
Angle
SciTegic.value.DoubleValue
0.930

@<SCITEGIC>MOL_PROPERTY
Pdih
SciTegic.value.DoubleValue
5.339

@<SCITEGIC>MOL_PROPERTY
Idih
SciTegic.value.DoubleValue
0.000

@<SCITEGIC>MOL_PROPERTY
Tether
SciTegic.value.DoubleValue
0.000

@<TRIPOS>MOLECULE
guest-s16_confgen4.mol2 : confsearch ligand conformer 38
          13          13           1
SMALL
USER_CHARGES
 
@<TRIPOS>ATOM
       1    C1      20.812517   19.394277   22.375604 C.3        1 MOL1        -0.1693
       2    H1      21.847335   19.132605   22.125291 H          1 MOL1         0.0829
       3    H2      20.806638   20.380288   22.858258 H          1 MOL1         0.0829
       4    C2      19.987875   18.297754   23.128315 C.3        1 MOL1        -0.1768
       5    H3      20.269469   17.267012   22.881248 H          1 MOL1         0.0829
       6    H4      19.939100   18.396026   24.218433 H          1 MOL1         0.0829
       7    C3      18.747113   18.827173   22.343677 C.3        1 MOL1         0.1211
       8    H5      18.025309   18.052846   22.053455 H          1 MOL1         0.0786
       9    C4      19.762661   19.225823   21.227507 C.3        1 MOL1        -0.1768
      10    H6      19.521434   20.131713   20.660475 H          1 MOL1         0.0829
      11    H7      19.990177   18.420002   20.519084 H          1 MOL1         0.0829
      12    O1      18.075090   19.910511   22.954338 O.3        1 MOL1        -0.5515
      13    H8      17.436969   20.263667   22.298414 H          1 MOL1         0.3773
@<TRIPOS>BOND
    1     1     2    1
    2     1     3    1
    3     1     4    1
    4     4     5    1
    5     4     6    1
    6     4     7    1
    7     7     8    1
    8     1     9    1
    9     7     9    1
   10     9    10    1
   11     9    11    1
   12     7    12    1
   13    12    13    1
@<TRIPOS>SUBSTRUCTURE
       1 MOL1            1 RESIDUE      1      MOL     
@<SCITEGIC>MOL_PROPERTY
VConf Rank
SciTegic.value.IntegerValue
38

@<SCITEGIC>MOL_PROPERTY
Conf_Id
SciTegic.value.IntegerValue
20

@<SCITEGIC>MOL_PROPERTY
Delta U+W
SciTegic.value.DoubleValue
1.030

@<SCITEGIC>MOL_PROPERTY
U+W
SciTegic.value.DoubleValue
-2.101

@<SCITEGIC>MOL_PROPERTY
Grad RMS
SciTegic.value.DoubleValue
0.000000

@<SCITEGIC>MOL_PROPERTY
U
SciTegic.value.DoubleValue
0.841

@<SCITEGIC>MOL_PROPERTY
W
SciTegic.value.DoubleValue
-2.942

@<SCITEGIC>MOL_PROPERTY
W(PB)
SciTegic.value.DoubleValue
-4.530

@<SCITEGIC>MOL_PROPERTY
W(SA)
SciTegic.value.DoubleValue
1.587

@<SCITEGIC>MOL_PROPERTY
Valence
SciTegic.value.DoubleValue
6.736

@<SCITEGIC>MOL_PROPERTY
Coulomb
SciTegic.value.DoubleValue
-7.246

@<SCITEGIC>MOL_PROPERTY
VdW
SciTegic.value.DoubleValue
1.352

@<SCITEGIC>MOL_PROPERTY
VdW6
SciTegic.value.DoubleValue
-2.500

@<SCITEGIC>MOL_PROPERTY
VdW12
SciTegic.value.DoubleValue
3.851

@<SCITEGIC>MOL_PROPERTY
Bond
SciTegic.value.DoubleValue
0.063

@<SCITEGIC>MOL_PROPERTY
Angle
SciTegic.value.DoubleValue
0.687

@<SCITEGIC>MOL_PROPERTY
Pdih
SciTegic.value.DoubleValue
5.986

@<SCITEGIC>MOL_PROPERTY
Idih
SciTegic.value.DoubleValue
0.000

@<SCITEGIC>MOL_PROPERTY
Tether
SciTegic.value.DoubleValue
0.000

@<TRIPOS>MOLECULE
guest-s16_confgen4.mol2 : confsearch ligand conformer 39
          13          13           1
SMALL
USER_CHARGES
 
@<TRIPOS>ATOM
       1    C1      19.141334   19.718443   23.043261 C.3        1 MOL1        -0.1693
       2    H1      19.683162   20.029733   23.946139 H          1 MOL1         0.0829
       3    H2      18.140146   20.165203   23.064451 H          1 MOL1         0.0829
       4    C2      19.203338   18.185093   22.739366 C.3        1 MOL1        -0.1768
       5    H3      19.252689   17.522527   23.610494 H          1 MOL1         0.0829
       6    H4      18.419653   17.820527   22.063854 H          1 MOL1         0.0829
       7    C3      20.565723   18.501185   22.051508 C.3        1 MOL1         0.1211
       8    H5      21.413069   18.555501   22.748464 H          1 MOL1         0.0786
       9    C4      19.941262   19.887638   21.709527 C.3        1 MOL1        -0.1768
      10    H6      19.322512   19.903611   20.803833 H          1 MOL1         0.0829
      11    H7      20.642313   20.728676   21.671147 H          1 MOL1         0.0829
      12    O1      20.885753   17.692763   20.944326 O.3        1 MOL1        -0.5515
      13    H8      20.097648   17.681937   20.361666 H          1 MOL1         0.3773
@<TRIPOS>BOND
    1     1     2    1
    2     1     3    1
    3     1     4    1
    4     4     5    1
    5     4     6    1
    6     4     7    1
    7     7     8    1
    8     1     9    1
    9     7     9    1
   10     9    10    1
   11     9    11    1
   12     7    12    1
   13    12    13    1
@<TRIPOS>SUBSTRUCTURE
       1 MOL1            1 RESIDUE      1      MOL     
@<SCITEGIC>MOL_PROPERTY
VConf Rank
SciTegic.value.IntegerValue
39

@<SCITEGIC>MOL_PROPERTY
Conf_Id
SciTegic.value.IntegerValue
24

@<SCITEGIC>MOL_PROPERTY
Delta U+W
SciTegic.value.DoubleValue
0.356

@<SCITEGIC>MOL_PROPERTY
U+W
SciTegic.value.DoubleValue
-2.775

@<SCITEGIC>MOL_PROPERTY
Grad RMS
SciTegic.value.DoubleValue
0.000000

@<SCITEGIC>MOL_PROPERTY
U
SciTegic.value.DoubleValue
-0.184

@<SCITEGIC>MOL_PROPERTY
W
SciTegic.value.DoubleValue
-2.591

@<SCITEGIC>MOL_PROPERTY
W(PB)
SciTegic.value.DoubleValue
-4.184

@<SCITEGIC>MOL_PROPERTY
W(SA)
SciTegic.value.DoubleValue
1.593

@<SCITEGIC>MOL_PROPERTY
Valence
SciTegic.value.DoubleValue
6.840

@<SCITEGIC>MOL_PROPERTY
Coulomb
SciTegic.value.DoubleValue
-7.916

@<SCITEGIC>MOL_PROPERTY
VdW
SciTegic.value.DoubleValue
0.893

@<SCITEGIC>MOL_PROPERTY
VdW6
SciTegic.value.DoubleValue
-2.167

@<SCITEGIC>MOL_PROPERTY
VdW12
SciTegic.value.DoubleValue
3.060

@<SCITEGIC>MOL_PROPERTY
Bond
SciTegic.value.DoubleValue
0.059

@<SCITEGIC>MOL_PROPERTY
Angle
SciTegic.value.DoubleValue
0.918

@<SCITEGIC>MOL_PROPERTY
Pdih
SciTegic.value.DoubleValue
5.862

@<SCITEGIC>MOL_PROPERTY
Idih
SciTegic.value.DoubleValue
0.000

@<SCITEGIC>MOL_PROPERTY
Tether
SciTegic.value.DoubleValue
0.000

@<TRIPOS>MOLECULE
guest-s16_confgen4.mol2 : confsearch ligand conformer 40
          13          13           1
SMALL
USER_CHARGES
 
@<TRIPOS>ATOM
       1    C1      20.662202   18.880018   21.644535 C.3        1 MOL1        -0.1693
       2    H1      21.136996   18.839829   20.656948 H          1 MOL1         0.0829
       3    H2      21.445332   18.799581   22.409082 H          1 MOL1         0.0829
       4    C2      19.437266   17.928284   21.853998 C.3        1 MOL1        -0.1768
       5    H3      18.858308   17.727628   20.944295 H          1 MOL1         0.0829
       6    H4      19.645924   16.974430   22.351324 H          1 MOL1         0.0829
       7    C3      18.836455   19.050438   22.756101 C.3        1 MOL1         0.1211
       8    H5      17.745840   19.156531   22.694534 H          1 MOL1         0.0786
       9    C4      19.642641   20.046788   21.866525 C.3        1 MOL1        -0.1768
      10    H6      19.114039   20.365557   20.959894 H          1 MOL1         0.0829
      11    H7      20.030061   20.936911   22.374752 H          1 MOL1         0.0829
      12    O1      19.240969   19.003229   24.107348 O.3        1 MOL1        -0.5515
      13    H8      20.215824   18.908748   24.100674 H          1 MOL1         0.3773
@<TRIPOS>BOND
    1     1     2    1
    2     1     3    1
    3     1     4    1
    4     4     5    1
    5     4     6    1
    6     4     7    1
    7     7     8    1
    8     1     9    1
    9     7     9    1
   10     9    10    1
   11     9    11    1
   12     7    12    1
   13    12    13    1
@<TRIPOS>SUBSTRUCTURE
       1 MOL1            1 RESIDUE      1      MOL     
@<SCITEGIC>MOL_PROPERTY
VConf Rank
SciTegic.value.IntegerValue
40

@<SCITEGIC>MOL_PROPERTY
Conf_Id
SciTegic.value.IntegerValue
44

@<SCITEGIC>MOL_PROPERTY
Delta U+W
SciTegic.value.DoubleValue
0.823

@<SCITEGIC>MOL_PROPERTY
U+W
SciTegic.value.DoubleValue
-2.308

@<SCITEGIC>MOL_PROPERTY
Grad RMS
SciTegic.value.DoubleValue
0.000000

@<SCITEGIC>MOL_PROPERTY
U
SciTegic.value.DoubleValue
0.039

@<SCITEGIC>MOL_PROPERTY
W
SciTegic.value.DoubleValue
-2.348

@<SCITEGIC>MOL_PROPERTY
W(PB)
SciTegic.value.DoubleValue
-3.918

@<SCITEGIC>MOL_PROPERTY
W(SA)
SciTegic.value.DoubleValue
1.571

@<SCITEGIC>MOL_PROPERTY
Valence
SciTegic.value.DoubleValue
7.320

@<SCITEGIC>MOL_PROPERTY
Coulomb
SciTegic.value.DoubleValue
-8.530

@<SCITEGIC>MOL_PROPERTY
VdW
SciTegic.value.DoubleValue
1.249

@<SCITEGIC>MOL_PROPERTY
VdW6
SciTegic.value.DoubleValue
-2.615

@<SCITEGIC>MOL_PROPERTY
VdW12
SciTegic.value.DoubleValue
3.864

@<SCITEGIC>MOL_PROPERTY
Bond
SciTegic.value.DoubleValue
0.056

@<SCITEGIC>MOL_PROPERTY
Angle
SciTegic.value.DoubleValue
0.694

@<SCITEGIC>MOL_PROPERTY
Pdih
SciTegic.value.DoubleValue
6.570

@<SCITEGIC>MOL_PROPERTY
Idih
SciTegic.value.DoubleValue
0.000

@<SCITEGIC>MOL_PROPERTY
Tether
SciTegic.value.DoubleValue
0.000

@<TRIPOS>MOLECULE
guest-s16_confgen4.mol2 : confsearch ligand conformer 41
          13          13           1
SMALL
USER_CHARGES
 
@<TRIPOS>ATOM
       1    C1      20.691671   19.621602   22.845609 C.3        1 MOL1        -0.1693
       2    H1      21.365037   18.911496   23.343519 H          1 MOL1         0.0829
       3    H2      21.107195   20.630908   22.950391 H          1 MOL1         0.0829
       4    C2      19.180211   19.459189   23.214954 C.3        1 MOL1        -0.1768
       5    H3      18.965120   19.118894   24.233726 H          1 MOL1         0.0829
       6    H4      18.556802   20.335084   22.996427 H          1 MOL1         0.0829
       7    C3      19.154601   18.357469   22.112954 C.3        1 MOL1         0.1211
       8    H5      19.504729   17.375660   22.460120 H          1 MOL1         0.0786
       9    C4      20.252509   19.205738   21.402861 C.3        1 MOL1        -0.1768
      10    H6      20.988200   18.642403   20.818408 H          1 MOL1         0.0829
      11    H7      19.866308   20.027422   20.786843 H          1 MOL1         0.0829
      12    O1      17.939165   18.235683   21.411219 O.3        1 MOL1        -0.5515
      13    H8      18.101181   17.636357   20.651112 H          1 MOL1         0.3773
@<TRIPOS>BOND
    1     1     2    1
    2     1     3    1
    3     1     4    1
    4     4     5    1
    5     4     6    1
    6     4     7    1
    7     7     8    1
    8     1     9    1
    9     7     9    1
   10     9    10    1
   11     9    11    1
   12     7    12    1
   13    12    13    1
@<TRIPOS>SUBSTRUCTURE
       1 MOL1            1 RESIDUE      1      MOL     
@<SCITEGIC>MOL_PROPERTY
VConf Rank
SciTegic.value.IntegerValue
41

@<SCITEGIC>MOL_PROPERTY
Conf_Id
SciTegic.value.IntegerValue
22

@<SCITEGIC>MOL_PROPERTY
Delta U+W
SciTegic.value.DoubleValue
0.000

@<SCITEGIC>MOL_PROPERTY
U+W
SciTegic.value.DoubleValue
-3.131

@<SCITEGIC>MOL_PROPERTY
Grad RMS
SciTegic.value.DoubleValue
0.000000

@<SCITEGIC>MOL_PROPERTY
U
SciTegic.value.DoubleValue
-0.154

@<SCITEGIC>MOL_PROPERTY
W
SciTegic.value.DoubleValue
-2.978

@<SCITEGIC>MOL_PROPERTY
W(PB)
SciTegic.value.DoubleValue
-4.579

@<SCITEGIC>MOL_PROPERTY
W(SA)
SciTegic.value.DoubleValue
1.601

@<SCITEGIC>MOL_PROPERTY
Valence
SciTegic.value.DoubleValue
6.333

@<SCITEGIC>MOL_PROPERTY
Coulomb
SciTegic.value.DoubleValue
-7.439

@<SCITEGIC>MOL_PROPERTY
VdW
SciTegic.value.DoubleValue
0.952

@<SCITEGIC>MOL_PROPERTY
VdW6
SciTegic.value.DoubleValue
-2.120

@<SCITEGIC>MOL_PROPERTY
VdW12
SciTegic.value.DoubleValue
3.072

@<SCITEGIC>MOL_PROPERTY
Bond
SciTegic.value.DoubleValue
0.065

@<SCITEGIC>MOL_PROPERTY
Angle
SciTegic.value.DoubleValue
0.931

@<SCITEGIC>MOL_PROPERTY
Pdih
SciTegic.value.DoubleValue
5.338

@<SCITEGIC>MOL_PROPERTY
Idih
SciTegic.value.DoubleValue
0.000

@<SCITEGIC>MOL_PROPERTY
Tether
SciTegic.value.DoubleValue
0.000

@<TRIPOS>MOLECULE
guest-s16_confgen4.mol2 : confsearch ligand conformer 42
          13          13           1
SMALL
USER_CHARGES
 
@<TRIPOS>ATOM
       1    C1      20.664587   19.714964   22.462223 C.3        1 MOL1        -0.1693
       2    H1      21.547291   19.183496   22.841644 H          1 MOL1         0.0829
       3    H2      20.892039   20.786811   22.420415 H          1 MOL1         0.0829
       4    C2      19.317504   19.324976   23.155481 C.3        1 MOL1        -0.1768
       5    H3      18.508744   20.055465   23.028648 H          1 MOL1         0.0829
       6    H4      19.381802   19.050210   24.214038 H          1 MOL1         0.0829
       7    C3      19.282242   18.138106   22.145882 C.3        1 MOL1         0.1211
       8    H5      19.877455   17.269108   22.458331 H          1 MOL1         0.0786
       9    C4      20.032484   19.096002   21.172015 C.3        1 MOL1        -0.1768
      10    H6      19.379483   19.774372   20.608997 H          1 MOL1         0.0829
      11    H7      20.728180   18.616923   20.474555 H          1 MOL1         0.0829
      12    O1      17.997084   17.740108   21.728130 O.3        1 MOL1        -0.5515
      13    H8      17.573205   17.283840   22.486648 H          1 MOL1         0.3773
@<TRIPOS>BOND
    1     1     2    1
    2     1     3    1
    3     1     4    1
    4     4     5    1
    5     4     6    1
    6     4     7    1
    7     7     8    1
    8     1     9    1
    9     7     9    1
   10     9    10    1
   11     9    11    1
   12     7    12    1
   13    12    13    1
@<TRIPOS>SUBSTRUCTURE
       1 MOL1            1 RESIDUE      1      MOL     
@<SCITEGIC>MOL_PROPERTY
VConf Rank
SciTegic.value.IntegerValue
42

@<SCITEGIC>MOL_PROPERTY
Conf_Id
SciTegic.value.IntegerValue
19

@<SCITEGIC>MOL_PROPERTY
Delta U+W
SciTegic.value.DoubleValue
-0.011

@<SCITEGIC>MOL_PROPERTY
U+W
SciTegic.value.DoubleValue
-3.142

@<SCITEGIC>MOL_PROPERTY
Grad RMS
SciTegic.value.DoubleValue
0.000000

@<SCITEGIC>MOL_PROPERTY
U
SciTegic.value.DoubleValue
-0.154

@<SCITEGIC>MOL_PROPERTY
W
SciTegic.value.DoubleValue
-2.989

@<SCITEGIC>MOL_PROPERTY
W(PB)
SciTegic.value.DoubleValue
-4.588

@<SCITEGIC>MOL_PROPERTY
W(SA)
SciTegic.value.DoubleValue
1.599

@<SCITEGIC>MOL_PROPERTY
Valence
SciTegic.value.DoubleValue
6.334

@<SCITEGIC>MOL_PROPERTY
Coulomb
SciTegic.value.DoubleValue
-7.439

@<SCITEGIC>MOL_PROPERTY
VdW
SciTegic.value.DoubleValue
0.951

@<SCITEGIC>MOL_PROPERTY
VdW6
SciTegic.value.DoubleValue
-2.120

@<SCITEGIC>MOL_PROPERTY
VdW12
SciTegic.value.DoubleValue
3.072

@<SCITEGIC>MOL_PROPERTY
Bond
SciTegic.value.DoubleValue
0.065

@<SCITEGIC>MOL_PROPERTY
Angle
SciTegic.value.DoubleValue
0.930

@<SCITEGIC>MOL_PROPERTY
Pdih
SciTegic.value.DoubleValue
5.339

@<SCITEGIC>MOL_PROPERTY
Idih
SciTegic.value.DoubleValue
0.000

@<SCITEGIC>MOL_PROPERTY
Tether
SciTegic.value.DoubleValue
0.000

@<TRIPOS>MOLECULE
guest-s16_confgen4.mol2 : confsearch ligand conformer 43
          13          13           1
SMALL
USER_CHARGES
 
@<TRIPOS>ATOM
       1    C1      18.410674   19.173408   22.383132 C.3        1 MOL1        -0.1693
       2    H1      17.440282   18.892938   21.956926 H          1 MOL1         0.0829
       3    H2      18.237513   19.747147   23.302940 H          1 MOL1         0.0829
       4    C2      19.434556   19.824278   21.394697 C.3        1 MOL1        -0.1768
       5    H3      19.347978   19.479093   20.357336 H          1 MOL1         0.0829
       6    H4      19.476648   20.919091   21.397398 H          1 MOL1         0.0829
       7    C3      20.545206   19.101070   22.218624 C.3        1 MOL1         0.1211
       8    H5      21.395757   18.743511   21.624043 H          1 MOL1         0.0786
       9    C4      19.460198   18.021189   22.523110 C.3        1 MOL1        -0.1768
      10    H6      19.521100   17.543880   23.507396 H          1 MOL1         0.0829
      11    H7      19.379332   17.238330   21.759195 H          1 MOL1         0.0829
      12    O1      21.009641   19.815655   23.346371 O.3        1 MOL1        -0.5515
      13    H8      21.562802   19.200105   23.872931 H          1 MOL1         0.3773
@<TRIPOS>BOND
    1     1     2    1
    2     1     3    1
    3     1     4    1
    4     4     5    1
    5     4     6    1
    6     4     7    1
    7     7     8    1
    8     1     9    1
    9     7     9    1
   10     9    10    1
   11     9    11    1
   12     7    12    1
   13    12    13    1
@<TRIPOS>SUBSTRUCTURE
       1 MOL1            1 RESIDUE      1      MOL     
@<SCITEGIC>MOL_PROPERTY
VConf Rank
SciTegic.value.IntegerValue
43

@<SCITEGIC>MOL_PROPERTY
Conf_Id
SciTegic.value.IntegerValue
20

@<SCITEGIC>MOL_PROPERTY
Delta U+W
SciTegic.value.DoubleValue
1.030

@<SCITEGIC>MOL_PROPERTY
U+W
SciTegic.value.DoubleValue
-2.101

@<SCITEGIC>MOL_PROPERTY
Grad RMS
SciTegic.value.DoubleValue
0.000000

@<SCITEGIC>MOL_PROPERTY
U
SciTegic.value.DoubleValue
0.841

@<SCITEGIC>MOL_PROPERTY
W
SciTegic.value.DoubleValue
-2.942

@<SCITEGIC>MOL_PROPERTY
W(PB)
SciTegic.value.DoubleValue
-4.530

@<SCITEGIC>MOL_PROPERTY
W(SA)
SciTegic.value.DoubleValue
1.587

@<SCITEGIC>MOL_PROPERTY
Valence
SciTegic.value.DoubleValue
6.736

@<SCITEGIC>MOL_PROPERTY
Coulomb
SciTegic.value.DoubleValue
-7.246

@<SCITEGIC>MOL_PROPERTY
VdW
SciTegic.value.DoubleValue
1.352

@<SCITEGIC>MOL_PROPERTY
VdW6
SciTegic.value.DoubleValue
-2.500

@<SCITEGIC>MOL_PROPERTY
VdW12
SciTegic.value.DoubleValue
3.851

@<SCITEGIC>MOL_PROPERTY
Bond
SciTegic.value.DoubleValue
0.063

@<SCITEGIC>MOL_PROPERTY
Angle
SciTegic.value.DoubleValue
0.687

@<SCITEGIC>MOL_PROPERTY
Pdih
SciTegic.value.DoubleValue
5.986

@<SCITEGIC>MOL_PROPERTY
Idih
SciTegic.value.DoubleValue
0.000

@<SCITEGIC>MOL_PROPERTY
Tether
SciTegic.value.DoubleValue
0.000

@<TRIPOS>MOLECULE
guest-s16_confgen4.mol2 : confsearch ligand conformer 44
          13          13           1
SMALL
USER_CHARGES
 
@<TRIPOS>ATOM
       1    C1      19.056899   19.758225   21.491812 C.3        1 MOL1        -0.1693
       2    H1      17.962372   19.694309   21.551759 H          1 MOL1         0.0829
       3    H2      19.322830   20.549833   20.781137 H          1 MOL1         0.0829
       4    C2      19.782342   18.386190   21.295324 C.3        1 MOL1        -0.1768
       5    H3      19.239868   17.632954   20.713387 H          1 MOL1         0.0829
       6    H4      20.805564   18.461177   20.907016 H          1 MOL1         0.0829
       7    C3      19.678302   18.248681   22.844331 C.3        1 MOL1         0.1211
       8    H5      18.709989   17.863696   23.191967 H          1 MOL1         0.0786
       9    C4      19.786125   19.803216   22.875129 C.3        1 MOL1        -0.1768
      10    H6      20.810191   20.194927   22.839926 H          1 MOL1         0.0829
      11    H7      19.246992   20.301430   23.688400 H          1 MOL1         0.0829
      12    O1      20.737347   17.556982   23.462226 O.3        1 MOL1        -0.5515
      13    H8      21.569781   17.941218   23.115621 H          1 MOL1         0.3773
@<TRIPOS>BOND
    1     1     2    1
    2     1     3    1
    3     1     4    1
    4     4     5    1
    5     4     6    1
    6     4     7    1
    7     7     8    1
    8     1     9    1
    9     7     9    1
   10     9    10    1
   11     9    11    1
   12     7    12    1
   13    12    13    1
@<TRIPOS>SUBSTRUCTURE
       1 MOL1            1 RESIDUE      1      MOL     
@<SCITEGIC>MOL_PROPERTY
VConf Rank
SciTegic.value.IntegerValue
44

@<SCITEGIC>MOL_PROPERTY
Conf_Id
SciTegic.value.IntegerValue
24

@<SCITEGIC>MOL_PROPERTY
Delta U+W
SciTegic.value.DoubleValue
0.356

@<SCITEGIC>MOL_PROPERTY
U+W
SciTegic.value.DoubleValue
-2.775

@<SCITEGIC>MOL_PROPERTY
Grad RMS
SciTegic.value.DoubleValue
0.000000

@<SCITEGIC>MOL_PROPERTY
U
SciTegic.value.DoubleValue
-0.184

@<SCITEGIC>MOL_PROPERTY
W
SciTegic.value.DoubleValue
-2.591

@<SCITEGIC>MOL_PROPERTY
W(PB)
SciTegic.value.DoubleValue
-4.184

@<SCITEGIC>MOL_PROPERTY
W(SA)
SciTegic.value.DoubleValue
1.593

@<SCITEGIC>MOL_PROPERTY
Valence
SciTegic.value.DoubleValue
6.840

@<SCITEGIC>MOL_PROPERTY
Coulomb
SciTegic.value.DoubleValue
-7.916

@<SCITEGIC>MOL_PROPERTY
VdW
SciTegic.value.DoubleValue
0.893

@<SCITEGIC>MOL_PROPERTY
VdW6
SciTegic.value.DoubleValue
-2.167

@<SCITEGIC>MOL_PROPERTY
VdW12
SciTegic.value.DoubleValue
3.060

@<SCITEGIC>MOL_PROPERTY
Bond
SciTegic.value.DoubleValue
0.059

@<SCITEGIC>MOL_PROPERTY
Angle
SciTegic.value.DoubleValue
0.918

@<SCITEGIC>MOL_PROPERTY
Pdih
SciTegic.value.DoubleValue
5.862

@<SCITEGIC>MOL_PROPERTY
Idih
SciTegic.value.DoubleValue
0.000

@<SCITEGIC>MOL_PROPERTY
Tether
SciTegic.value.DoubleValue
0.000

@<TRIPOS>MOLECULE
guest-s16_confgen4.mol2 : confsearch ligand conformer 45
          13          13           1
SMALL
USER_CHARGES
 
@<TRIPOS>ATOM
       1    C1      18.721412   19.488421   22.440488 C.3        1 MOL1        -0.1693
       2    H1      18.235552   20.441378   22.681706 H          1 MOL1         0.0829
       3    H2      17.952625   18.705997   22.407721 H          1 MOL1         0.0829
       4    C2      19.987780   19.132123   23.288723 C.3        1 MOL1        -0.1768
       5    H3      20.562410   20.000888   23.632326 H          1 MOL1         0.0829
       6    H4      19.825876   18.462645   24.140952 H          1 MOL1         0.0829
       7    C3      20.553131   18.465982   21.996195 C.3        1 MOL1         0.1211
       8    H5      21.637432   18.568895   21.861336 H          1 MOL1         0.0786
       9    C4      19.694148   19.507506   21.214292 C.3        1 MOL1        -0.1768
      10    H6      20.196782   20.468309   21.049276 H          1 MOL1         0.0829
      11    H7      19.276660   19.164768   20.260907 H          1 MOL1         0.0829
      12    O1      20.169050   17.121179   21.807213 O.3        1 MOL1        -0.5515
      13    H8      19.198999   17.089881   21.938875 H          1 MOL1         0.3773
@<TRIPOS>BOND
    1     1     2    1
    2     1     3    1
    3     1     4    1
    4     4     5    1
    5     4     6    1
    6     4     7    1
    7     7     8    1
    8     1     9    1
    9     7     9    1
   10     9    10    1
   11     9    11    1
   12     7    12    1
   13    12    13    1
@<TRIPOS>SUBSTRUCTURE
       1 MOL1            1 RESIDUE      1      MOL     
@<SCITEGIC>MOL_PROPERTY
VConf Rank
SciTegic.value.IntegerValue
45

@<SCITEGIC>MOL_PROPERTY
Conf_Id
SciTegic.value.IntegerValue
44

@<SCITEGIC>MOL_PROPERTY
Delta U+W
SciTegic.value.DoubleValue
0.823

@<SCITEGIC>MOL_PROPERTY
U+W
SciTegic.value.DoubleValue
-2.308

@<SCITEGIC>MOL_PROPERTY
Grad RMS
SciTegic.value.DoubleValue
0.000000

@<SCITEGIC>MOL_PROPERTY
U
SciTegic.value.DoubleValue
0.039

@<SCITEGIC>MOL_PROPERTY
W
SciTegic.value.DoubleValue
-2.348

@<SCITEGIC>MOL_PROPERTY
W(PB)
SciTegic.value.DoubleValue
-3.918

@<SCITEGIC>MOL_PROPERTY
W(SA)
SciTegic.value.DoubleValue
1.571

@<SCITEGIC>MOL_PROPERTY
Valence
SciTegic.value.DoubleValue
7.320

@<SCITEGIC>MOL_PROPERTY
Coulomb
SciTegic.value.DoubleValue
-8.530

@<SCITEGIC>MOL_PROPERTY
VdW
SciTegic.value.DoubleValue
1.249

@<SCITEGIC>MOL_PROPERTY
VdW6
SciTegic.value.DoubleValue
-2.615

@<SCITEGIC>MOL_PROPERTY
VdW12
SciTegic.value.DoubleValue
3.864

@<SCITEGIC>MOL_PROPERTY
Bond
SciTegic.value.DoubleValue
0.056

@<SCITEGIC>MOL_PROPERTY
Angle
SciTegic.value.DoubleValue
0.694

@<SCITEGIC>MOL_PROPERTY
Pdih
SciTegic.value.DoubleValue
6.570

@<SCITEGIC>MOL_PROPERTY
Idih
SciTegic.value.DoubleValue
0.000

@<SCITEGIC>MOL_PROPERTY
Tether
SciTegic.value.DoubleValue
0.000

@<TRIPOS>MOLECULE
guest-s16_confgen4.mol2 : confsearch ligand conformer 46
          13          13           1
SMALL
USER_CHARGES
 
@<TRIPOS>ATOM
       1    C1      18.642128   18.253847   22.509178 C.3        1 MOL1        -0.1693
       2    H1      17.939632   18.677274   23.239106 H          1 MOL1         0.0829
       3    H2      18.248462   17.291273   22.161594 H          1 MOL1         0.0829
       4    C2      20.139516   18.260484   22.962052 C.3        1 MOL1        -0.1768
       5    H3      20.320758   18.137554   24.035364 H          1 MOL1         0.0829
       6    H4      20.789060   17.567646   22.412821 H          1 MOL1         0.0829
       7    C3      20.166292   19.726482   22.433866 C.3        1 MOL1         0.1211
       8    H5      19.784096   20.463486   23.153458 H          1 MOL1         0.0786
       9    C4      19.107222   19.248648   21.395003 C.3        1 MOL1        -0.1768
      10    H6      18.373105   19.998877   21.081313 H          1 MOL1         0.0829
      11    H7      19.528366   18.771294   20.501378 H          1 MOL1         0.0829
      12    O1      21.395669   20.148593   21.890725 O.3        1 MOL1        -0.5515
      13    H8      21.238422   21.012449   21.452285 H          1 MOL1         0.3773
@<TRIPOS>BOND
    1     1     2    1
    2     1     3    1
    3     1     4    1
    4     4     5    1
    5     4     6    1
    6     4     7    1
    7     7     8    1
    8     1     9    1
    9     7     9    1
   10     9    10    1
   11     9    11    1
   12     7    12    1
   13    12    13    1
@<TRIPOS>SUBSTRUCTURE
       1 MOL1            1 RESIDUE      1      MOL     
@<SCITEGIC>MOL_PROPERTY
VConf Rank
SciTegic.value.IntegerValue
46

@<SCITEGIC>MOL_PROPERTY
Conf_Id
SciTegic.value.IntegerValue
22

@<SCITEGIC>MOL_PROPERTY
Delta U+W
SciTegic.value.DoubleValue
0.000

@<SCITEGIC>MOL_PROPERTY
U+W
SciTegic.value.DoubleValue
-3.131

@<SCITEGIC>MOL_PROPERTY
Grad RMS
SciTegic.value.DoubleValue
0.000000

@<SCITEGIC>MOL_PROPERTY
U
SciTegic.value.DoubleValue
-0.154

@<SCITEGIC>MOL_PROPERTY
W
SciTegic.value.DoubleValue
-2.978

@<SCITEGIC>MOL_PROPERTY
W(PB)
SciTegic.value.DoubleValue
-4.579

@<SCITEGIC>MOL_PROPERTY
W(SA)
SciTegic.value.DoubleValue
1.601

@<SCITEGIC>MOL_PROPERTY
Valence
SciTegic.value.DoubleValue
6.333

@<SCITEGIC>MOL_PROPERTY
Coulomb
SciTegic.value.DoubleValue
-7.439

@<SCITEGIC>MOL_PROPERTY
VdW
SciTegic.value.DoubleValue
0.952

@<SCITEGIC>MOL_PROPERTY
VdW6
SciTegic.value.DoubleValue
-2.120

@<SCITEGIC>MOL_PROPERTY
VdW12
SciTegic.value.DoubleValue
3.072

@<SCITEGIC>MOL_PROPERTY
Bond
SciTegic.value.DoubleValue
0.065

@<SCITEGIC>MOL_PROPERTY
Angle
SciTegic.value.DoubleValue
0.931

@<SCITEGIC>MOL_PROPERTY
Pdih
SciTegic.value.DoubleValue
5.338

@<SCITEGIC>MOL_PROPERTY
Idih
SciTegic.value.DoubleValue
0.000

@<SCITEGIC>MOL_PROPERTY
Tether
SciTegic.value.DoubleValue
0.000

@<TRIPOS>MOLECULE
guest-s16_confgen4.mol2 : confsearch ligand conformer 47
          13          13           1
SMALL
USER_CHARGES
 
@<TRIPOS>ATOM
       1    C1      20.766156   18.461932   22.729641 C.3        1 MOL1        -0.1693
       2    H1      20.632525   17.768620   23.570502 H          1 MOL1         0.0829
       3    H2      21.840051   18.610179   22.564984 H          1 MOL1         0.0829
       4    C2      19.897276   19.760516   22.807467 C.3        1 MOL1        -0.1768
       5    H3      20.249256   20.585750   22.175888 H          1 MOL1         0.0829
       6    H4      19.696268   20.146708   23.812764 H          1 MOL1         0.0829
       7    C3      18.766496   18.896000   22.172530 C.3        1 MOL1         0.1211
       8    H5      18.208142   18.289230   22.898569 H          1 MOL1         0.0786
       9    C4      19.916954   18.122609   21.460382 C.3        1 MOL1        -0.1768
      10    H6      20.271060   18.588253   20.532282 H          1 MOL1         0.0829
      11    H7      19.731275   17.059473   21.272695 H          1 MOL1         0.0829
      12    O1      17.886649   19.588208   21.317389 O.3        1 MOL1        -0.5515
      13    H8      17.319994   20.156902   21.881917 H          1 MOL1         0.3773
@<TRIPOS>BOND
    1     1     2    1
    2     1     3    1
    3     1     4    1
    4     4     5    1
    5     4     6    1
    6     4     7    1
    7     7     8    1
    8     1     9    1
    9     7     9    1
   10     9    10    1
   11     9    11    1
   12     7    12    1
   13    12    13    1
@<TRIPOS>SUBSTRUCTURE
       1 MOL1            1 RESIDUE      1      MOL     
@<SCITEGIC>MOL_PROPERTY
VConf Rank
SciTegic.value.IntegerValue
47

@<SCITEGIC>MOL_PROPERTY
Conf_Id
SciTegic.value.IntegerValue
19

@<SCITEGIC>MOL_PROPERTY
Delta U+W
SciTegic.value.DoubleValue
-0.011

@<SCITEGIC>MOL_PROPERTY
U+W
SciTegic.value.DoubleValue
-3.142

@<SCITEGIC>MOL_PROPERTY
Grad RMS
SciTegic.value.DoubleValue
0.000000

@<SCITEGIC>MOL_PROPERTY
U
SciTegic.value.DoubleValue
-0.154

@<SCITEGIC>MOL_PROPERTY
W
SciTegic.value.DoubleValue
-2.989

@<SCITEGIC>MOL_PROPERTY
W(PB)
SciTegic.value.DoubleValue
-4.588

@<SCITEGIC>MOL_PROPERTY
W(SA)
SciTegic.value.DoubleValue
1.599

@<SCITEGIC>MOL_PROPERTY
Valence
SciTegic.value.DoubleValue
6.334

@<SCITEGIC>MOL_PROPERTY
Coulomb
SciTegic.value.DoubleValue
-7.439

@<SCITEGIC>MOL_PROPERTY
VdW
SciTegic.value.DoubleValue
0.951

@<SCITEGIC>MOL_PROPERTY
VdW6
SciTegic.value.DoubleValue
-2.120

@<SCITEGIC>MOL_PROPERTY
VdW12
SciTegic.value.DoubleValue
3.072

@<SCITEGIC>MOL_PROPERTY
Bond
SciTegic.value.DoubleValue
0.065

@<SCITEGIC>MOL_PROPERTY
Angle
SciTegic.value.DoubleValue
0.930

@<SCITEGIC>MOL_PROPERTY
Pdih
SciTegic.value.DoubleValue
5.339

@<SCITEGIC>MOL_PROPERTY
Idih
SciTegic.value.DoubleValue
0.000

@<SCITEGIC>MOL_PROPERTY
Tether
SciTegic.value.DoubleValue
0.000

@<TRIPOS>MOLECULE
guest-s16_confgen4.mol2 : confsearch ligand conformer 48
          13          13           1
SMALL
USER_CHARGES
 
@<TRIPOS>ATOM
       1    C1      19.801233   18.740962   21.100823 C.3        1 MOL1        -0.1693
       2    H1      19.305525   18.536094   20.144643 H          1 MOL1         0.0829
       3    H2      20.887740   18.711454   20.946421 H          1 MOL1         0.0829
       4    C2      19.297023   17.912685   22.329115 C.3        1 MOL1        -0.1768
       5    H3      18.236780   17.635471   22.286659 H          1 MOL1         0.0829
       6    H4      19.882409   17.021637   22.581604 H          1 MOL1         0.0829
       7    C3      19.591948   19.182972   23.186331 C.3        1 MOL1         0.1211
       8    H5      18.885789   19.353182   24.009240 H          1 MOL1         0.0786
       9    C4      19.289789   19.993484   21.887153 C.3        1 MOL1        -0.1768
      10    H6      19.866986   20.914721   21.751073 H          1 MOL1         0.0829
      11    H7      18.227407   20.221000   21.736966 H          1 MOL1         0.0829
      12    O1      20.920013   19.286142   23.659347 O.3        1 MOL1        -0.5515
      13    H8      21.029046   20.189893   24.024724 H          1 MOL1         0.3773
@<TRIPOS>BOND
    1     1     2    1
    2     1     3    1
    3     1     4    1
    4     4     5    1
    5     4     6    1
    6     4     7    1
    7     7     8    1
    8     1     9    1
    9     7     9    1
   10     9    10    1
   11     9    11    1
   12     7    12    1
   13    12    13    1
@<TRIPOS>SUBSTRUCTURE
       1 MOL1            1 RESIDUE      1      MOL     
@<SCITEGIC>MOL_PROPERTY
VConf Rank
SciTegic.value.IntegerValue
48

@<SCITEGIC>MOL_PROPERTY
Conf_Id
SciTegic.value.IntegerValue
20

@<SCITEGIC>MOL_PROPERTY
Delta U+W
SciTegic.value.DoubleValue
1.030

@<SCITEGIC>MOL_PROPERTY
U+W
SciTegic.value.DoubleValue
-2.101

@<SCITEGIC>MOL_PROPERTY
Grad RMS
SciTegic.value.DoubleValue
0.000000

@<SCITEGIC>MOL_PROPERTY
U
SciTegic.value.DoubleValue
0.841

@<SCITEGIC>MOL_PROPERTY
W
SciTegic.value.DoubleValue
-2.942

@<SCITEGIC>MOL_PROPERTY
W(PB)
SciTegic.value.DoubleValue
-4.530

@<SCITEGIC>MOL_PROPERTY
W(SA)
SciTegic.value.DoubleValue
1.587

@<SCITEGIC>MOL_PROPERTY
Valence
SciTegic.value.DoubleValue
6.736

@<SCITEGIC>MOL_PROPERTY
Coulomb
SciTegic.value.DoubleValue
-7.246

@<SCITEGIC>MOL_PROPERTY
VdW
SciTegic.value.DoubleValue
1.352

@<SCITEGIC>MOL_PROPERTY
VdW6
SciTegic.value.DoubleValue
-2.500

@<SCITEGIC>MOL_PROPERTY
VdW12
SciTegic.value.DoubleValue
3.851

@<SCITEGIC>MOL_PROPERTY
Bond
SciTegic.value.DoubleValue
0.063

@<SCITEGIC>MOL_PROPERTY
Angle
SciTegic.value.DoubleValue
0.687

@<SCITEGIC>MOL_PROPERTY
Pdih
SciTegic.value.DoubleValue
5.986

@<SCITEGIC>MOL_PROPERTY
Idih
SciTegic.value.DoubleValue
0.000

@<SCITEGIC>MOL_PROPERTY
Tether
SciTegic.value.DoubleValue
0.000

@<TRIPOS>MOLECULE
guest-s16_confgen4.mol2 : confsearch ligand conformer 49
          13          13           1
SMALL
USER_CHARGES
 
@<TRIPOS>ATOM
       1    C1      18.793885   18.131245   22.454954 C.3        1 MOL1        -0.1693
       2    H1      18.114466   17.872332   21.632140 H          1 MOL1         0.0829
       3    H2      18.477211   17.589198   23.354022 H          1 MOL1         0.0829
       4    C2      19.052406   19.663956   22.631929 C.3        1 MOL1        -0.1768
       5    H3      18.218801   20.326452   22.374066 H          1 MOL1         0.0829
       6    H4      19.438995   19.951922   23.617329 H          1 MOL1         0.0829
       7    C3      20.139191   19.483218   21.529482 C.3        1 MOL1         0.1211
       8    H5      19.742000   19.510179   20.505662 H          1 MOL1         0.0786
       9    C4      20.314829   18.043289   22.099493 C.3        1 MOL1        -0.1768
      10    H6      20.983584   17.969016   22.965887 H          1 MOL1         0.0829
      11    H7      20.596136   17.274491   21.371409 H          1 MOL1         0.0829
      12    O1      21.264345   20.321125   21.646769 O.3        1 MOL1        -0.5515
      13    H8      21.572755   20.256414   22.574894 H          1 MOL1         0.3773
@<TRIPOS>BOND
    1     1     2    1
    2     1     3    1
    3     1     4    1
    4     4     5    1
    5     4     6    1
    6     4     7    1
    7     7     8    1
    8     1     9    1
    9     7     9    1
   10     9    10    1
   11     9    11    1
   12     7    12    1
   13    12    13    1
@<TRIPOS>SUBSTRUCTURE
       1 MOL1            1 RESIDUE      1      MOL     
@<SCITEGIC>MOL_PROPERTY
VConf Rank
SciTegic.value.IntegerValue
49

@<SCITEGIC>MOL_PROPERTY
Conf_Id
SciTegic.value.IntegerValue
24

@<SCITEGIC>MOL_PROPERTY
Delta U+W
SciTegic.value.DoubleValue
0.356

@<SCITEGIC>MOL_PROPERTY
U+W
SciTegic.value.DoubleValue
-2.775

@<SCITEGIC>MOL_PROPERTY
Grad RMS
SciTegic.value.DoubleValue
0.000000

@<SCITEGIC>MOL_PROPERTY
U
SciTegic.value.DoubleValue
-0.184

@<SCITEGIC>MOL_PROPERTY
W
SciTegic.value.DoubleValue
-2.591

@<SCITEGIC>MOL_PROPERTY
W(PB)
SciTegic.value.DoubleValue
-4.184

@<SCITEGIC>MOL_PROPERTY
W(SA)
SciTegic.value.DoubleValue
1.593

@<SCITEGIC>MOL_PROPERTY
Valence
SciTegic.value.DoubleValue
6.840

@<SCITEGIC>MOL_PROPERTY
Coulomb
SciTegic.value.DoubleValue
-7.916

@<SCITEGIC>MOL_PROPERTY
VdW
SciTegic.value.DoubleValue
0.893

@<SCITEGIC>MOL_PROPERTY
VdW6
SciTegic.value.DoubleValue
-2.167

@<SCITEGIC>MOL_PROPERTY
VdW12
SciTegic.value.DoubleValue
3.060

@<SCITEGIC>MOL_PROPERTY
Bond
SciTegic.value.DoubleValue
0.059

@<SCITEGIC>MOL_PROPERTY
Angle
SciTegic.value.DoubleValue
0.918

@<SCITEGIC>MOL_PROPERTY
Pdih
SciTegic.value.DoubleValue
5.862

@<SCITEGIC>MOL_PROPERTY
Idih
SciTegic.value.DoubleValue
0.000

@<SCITEGIC>MOL_PROPERTY
Tether
SciTegic.value.DoubleValue
0.000

@<TRIPOS>MOLECULE
guest-s16_confgen4.mol2 : confsearch ligand conformer 50
          13          13           1
SMALL
USER_CHARGES
 
@<TRIPOS>ATOM
       1    C1      19.905546   20.005872   22.595459 C.3        1 MOL1        -0.1693
       2    H1      19.473836   20.962189   22.913983 H          1 MOL1         0.0829
       3    H2      20.997282   20.071342   22.685582 H          1 MOL1         0.0829
       4    C2      19.390220   19.444114   21.228343 C.3        1 MOL1        -0.1768
       5    H3      18.356163   19.718336   20.986389 H          1 MOL1         0.0829
       6    H4      20.018336   19.648930   20.354141 H          1 MOL1         0.0829
       7    C3      19.541333   18.025197   21.859084 C.3        1 MOL1         0.1211
       8    H5      18.776961   17.300351   21.551154 H          1 MOL1         0.0786
       9    C4      19.268434   18.723320   23.227348 C.3        1 MOL1        -0.1768
      10    H6      18.204516   18.820815   23.475520 H          1 MOL1         0.0829
      11    H7      19.790543   18.300749   24.093109 H          1 MOL1         0.0829
      12    O1      20.825974   17.454932   21.731721 O.3        1 MOL1        -0.5515
      13    H8      21.462713   18.141825   22.018175 H          1 MOL1         0.3773
@<TRIPOS>BOND
    1     1     2    1
    2     1     3    1
    3     1     4    1
    4     4     5    1
    5     4     6    1
    6     4     7    1
    7     7     8    1
    8     1     9    1
    9     7     9    1
   10     9    10    1
   11     9    11    1
   12     7    12    1
   13    12    13    1
@<TRIPOS>SUBSTRUCTURE
       1 MOL1            1 RESIDUE      1      MOL     
@<SCITEGIC>MOL_PROPERTY
VConf Rank
SciTegic.value.IntegerValue
50

@<SCITEGIC>MOL_PROPERTY
Conf_Id
SciTegic.value.IntegerValue
44

@<SCITEGIC>MOL_PROPERTY
Delta U+W
SciTegic.value.DoubleValue
0.823

@<SCITEGIC>MOL_PROPERTY
U+W
SciTegic.value.DoubleValue
-2.308

@<SCITEGIC>MOL_PROPERTY
Grad RMS
SciTegic.value.DoubleValue
0.000000

@<SCITEGIC>MOL_PROPERTY
U
SciTegic.value.DoubleValue
0.039

@<SCITEGIC>MOL_PROPERTY
W
SciTegic.value.DoubleValue
-2.348

@<SCITEGIC>MOL_PROPERTY
W(PB)
SciTegic.value.DoubleValue
-3.918

@<SCITEGIC>MOL_PROPERTY
W(SA)
SciTegic.value.DoubleValue
1.571

@<SCITEGIC>MOL_PROPERTY
Valence
SciTegic.value.DoubleValue
7.320

@<SCITEGIC>MOL_PROPERTY
Coulomb
SciTegic.value.DoubleValue
-8.530

@<SCITEGIC>MOL_PROPERTY
VdW
SciTegic.value.DoubleValue
1.249

@<SCITEGIC>MOL_PROPERTY
VdW6
SciTegic.value.DoubleValue
-2.615

@<SCITEGIC>MOL_PROPERTY
VdW12
SciTegic.value.DoubleValue
3.864

@<SCITEGIC>MOL_PROPERTY
Bond
SciTegic.value.DoubleValue
0.056

@<SCITEGIC>MOL_PROPERTY
Angle
SciTegic.value.DoubleValue
0.694

@<SCITEGIC>MOL_PROPERTY
Pdih
SciTegic.value.DoubleValue
6.570

@<SCITEGIC>MOL_PROPERTY
Idih
SciTegic.value.DoubleValue
0.000

@<SCITEGIC>MOL_PROPERTY
Tether
SciTegic.value.DoubleValue
0.000

@<TRIPOS>MOLECULE
guest-s16_confgen4.mol2 : confsearch ligand conformer 51
          13          13           1
SMALL
USER_CHARGES
 
@<TRIPOS>ATOM
       1    C1      19.273831   19.668013   23.341881 C.3        1 MOL1        -0.1693
       2    H1      19.517192   20.738693   23.344435 H          1 MOL1         0.0829
       3    H2      18.713054   19.433954   24.254615 H          1 MOL1         0.0829
       4    C2      20.477524   18.724099   23.014075 C.3        1 MOL1        -0.1768
       5    H3      21.463559   19.063367   23.349624 H          1 MOL1         0.0829
       6    H4      20.340061   17.679996   23.321547 H          1 MOL1         0.0829
       7    C3      20.135597   19.007492   21.520214 C.3        1 MOL1         0.1211
       8    H5      20.564857   19.943646   21.137574 H          1 MOL1         0.0786
       9    C4      18.659767   19.139460   22.003641 C.3        1 MOL1        -0.1768
      10    H6      18.035891   19.847105   21.446694 H          1 MOL1         0.0829
      11    H7      18.121872   18.187188   22.091050 H          1 MOL1         0.0829
      12    O1      20.386170   17.942687   20.632549 O.3        1 MOL1        -0.5515
      13    H8      19.983354   18.182206   19.770242 H          1 MOL1         0.3773
@<TRIPOS>BOND
    1     1     2    1
    2     1     3    1
    3     1     4    1
    4     4     5    1
    5     4     6    1
    6     4     7    1
    7     7     8    1
    8     1     9    1
    9     7     9    1
   10     9    10    1
   11     9    11    1
   12     7    12    1
   13    12    13    1
@<TRIPOS>SUBSTRUCTURE
       1 MOL1            1 RESIDUE      1      MOL     
@<SCITEGIC>MOL_PROPERTY
VConf Rank
SciTegic.value.IntegerValue
51

@<SCITEGIC>MOL_PROPERTY
Conf_Id
SciTegic.value.IntegerValue
22

@<SCITEGIC>MOL_PROPERTY
Delta U+W
SciTegic.value.DoubleValue
0.000

@<SCITEGIC>MOL_PROPERTY
U+W
SciTegic.value.DoubleValue
-3.131

@<SCITEGIC>MOL_PROPERTY
Grad RMS
SciTegic.value.DoubleValue
0.000000

@<SCITEGIC>MOL_PROPERTY
U
SciTegic.value.DoubleValue
-0.154

@<SCITEGIC>MOL_PROPERTY
W
SciTegic.value.DoubleValue
-2.978

@<SCITEGIC>MOL_PROPERTY
W(PB)
SciTegic.value.DoubleValue
-4.579

@<SCITEGIC>MOL_PROPERTY
W(SA)
SciTegic.value.DoubleValue
1.601

@<SCITEGIC>MOL_PROPERTY
Valence
SciTegic.value.DoubleValue
6.333

@<SCITEGIC>MOL_PROPERTY
Coulomb
SciTegic.value.DoubleValue
-7.439

@<SCITEGIC>MOL_PROPERTY
VdW
SciTegic.value.DoubleValue
0.952

@<SCITEGIC>MOL_PROPERTY
VdW6
SciTegic.value.DoubleValue
-2.120

@<SCITEGIC>MOL_PROPERTY
VdW12
SciTegic.value.DoubleValue
3.072

@<SCITEGIC>MOL_PROPERTY
Bond
SciTegic.value.DoubleValue
0.065

@<SCITEGIC>MOL_PROPERTY
Angle
SciTegic.value.DoubleValue
0.931

@<SCITEGIC>MOL_PROPERTY
Pdih
SciTegic.value.DoubleValue
5.338

@<SCITEGIC>MOL_PROPERTY
Idih
SciTegic.value.DoubleValue
0.000

@<SCITEGIC>MOL_PROPERTY
Tether
SciTegic.value.DoubleValue
0.000

@<TRIPOS>MOLECULE
guest-s16_confgen4.mol2 : confsearch ligand conformer 52
          13          13           1
SMALL
USER_CHARGES
 
@<TRIPOS>ATOM
       1    C1      19.022897   19.078932   21.084026 C.3        1 MOL1        -0.1693
       2    H1      19.591901   18.672721   20.237379 H          1 MOL1         0.0829
       3    H2      18.112135   19.552845   20.698984 H          1 MOL1         0.0829
       4    C2      19.865715   19.927947   22.092075 C.3        1 MOL1        -0.1768
       5    H3      19.276389   20.593244   22.735400 H          1 MOL1         0.0829
       6    H4      20.698487   20.497194   21.664733 H          1 MOL1         0.0829
       7    C3      20.239007   18.561704   22.742635 C.3        1 MOL1         0.1211
       8    H5      21.067982   18.041712   22.243165 H          1 MOL1         0.0786
       9    C4      18.829034   18.087187   22.278247 C.3        1 MOL1        -0.1768
      10    H6      18.013293   18.347322   22.964163 H          1 MOL1         0.0829
      11    H7      18.745441   17.026545   22.017455 H          1 MOL1         0.0829
      12    O1      20.435203   18.591798   24.137321 O.3        1 MOL1        -0.5515
      13    H8      21.284617   19.055230   24.301426 H          1 MOL1         0.3773
@<TRIPOS>BOND
    1     1     2    1
    2     1     3    1
    3     1     4    1
    4     4     5    1
    5     4     6    1
    6     4     7    1
    7     7     8    1
    8     1     9    1
    9     7     9    1
   10     9    10    1
   11     9    11    1
   12     7    12    1
   13    12    13    1
@<TRIPOS>SUBSTRUCTURE
       1 MOL1            1 RESIDUE      1      MOL     
@<SCITEGIC>MOL_PROPERTY
VConf Rank
SciTegic.value.IntegerValue
52

@<SCITEGIC>MOL_PROPERTY
Conf_Id
SciTegic.value.IntegerValue
19

@<SCITEGIC>MOL_PROPERTY
Delta U+W
SciTegic.value.DoubleValue
-0.011

@<SCITEGIC>MOL_PROPERTY
U+W
SciTegic.value.DoubleValue
-3.142

@<SCITEGIC>MOL_PROPERTY
Grad RMS
SciTegic.value.DoubleValue
0.000000

@<SCITEGIC>MOL_PROPERTY
U
SciTegic.value.DoubleValue
-0.154

@<SCITEGIC>MOL_PROPERTY
W
SciTegic.value.DoubleValue
-2.989

@<SCITEGIC>MOL_PROPERTY
W(PB)
SciTegic.value.DoubleValue
-4.588

@<SCITEGIC>MOL_PROPERTY
W(SA)
SciTegic.value.DoubleValue
1.599

@<SCITEGIC>MOL_PROPERTY
Valence
SciTegic.value.DoubleValue
6.334

@<SCITEGIC>MOL_PROPERTY
Coulomb
SciTegic.value.DoubleValue
-7.439

@<SCITEGIC>MOL_PROPERTY
VdW
SciTegic.value.DoubleValue
0.951

@<SCITEGIC>MOL_PROPERTY
VdW6
SciTegic.value.DoubleValue
-2.120

@<SCITEGIC>MOL_PROPERTY
VdW12
SciTegic.value.DoubleValue
3.072

@<SCITEGIC>MOL_PROPERTY
Bond
SciTegic.value.DoubleValue
0.065

@<SCITEGIC>MOL_PROPERTY
Angle
SciTegic.value.DoubleValue
0.930

@<SCITEGIC>MOL_PROPERTY
Pdih
SciTegic.value.DoubleValue
5.339

@<SCITEGIC>MOL_PROPERTY
Idih
SciTegic.value.DoubleValue
0.000

@<SCITEGIC>MOL_PROPERTY
Tether
SciTegic.value.DoubleValue
0.000

@<TRIPOS>MOLECULE
guest-s16_confgen4.mol2 : confsearch ligand conformer 53
          13          13           1
SMALL
USER_CHARGES
 
@<TRIPOS>ATOM
       1    C1      20.270164   18.723465   21.279443 C.3        1 MOL1        -0.1693
       2    H1      20.759250   17.892152   20.758203 H          1 MOL1         0.0829
       3    H2      20.311197   19.613108   20.637526 H          1 MOL1         0.0829
       4    C2      20.719280   18.968390   22.758388 C.3        1 MOL1        -0.1768
       5    H3      21.028092   18.063686   23.295893 H          1 MOL1         0.0829
       6    H4      21.480407   19.742091   22.908276 H          1 MOL1         0.0829
       7    C3      19.246235   19.404131   23.033519 C.3        1 MOL1         0.1211
       8    H5      18.864680   19.125772   24.024349 H          1 MOL1         0.0786
       9    C4      18.858620   18.422117   21.883954 C.3        1 MOL1        -0.1768
      10    H6      18.000309   18.716746   21.270074 H          1 MOL1         0.0829
      11    H7      18.716264   17.384333   22.209089 H          1 MOL1         0.0829
      12    O1      18.970496   20.766029   22.774010 O.3        1 MOL1        -0.5515
      13    H8      17.996692   20.877677   22.811376 H          1 MOL1         0.3773
@<TRIPOS>BOND
    1     1     2    1
    2     1     3    1
    3     1     4    1
    4     4     5    1
    5     4     6    1
    6     4     7    1
    7     7     8    1
    8     1     9    1
    9     7     9    1
   10     9    10    1
   11     9    11    1
   12     7    12    1
   13    12    13    1
@<TRIPOS>SUBSTRUCTURE
       1 MOL1            1 RESIDUE      1      MOL     
@<SCITEGIC>MOL_PROPERTY
VConf Rank
SciTegic.value.IntegerValue
53

@<SCITEGIC>MOL_PROPERTY
Conf_Id
SciTegic.value.IntegerValue
20

@<SCITEGIC>MOL_PROPERTY
Delta U+W
SciTegic.value.DoubleValue
1.030

@<SCITEGIC>MOL_PROPERTY
U+W
SciTegic.value.DoubleValue
-2.101

@<SCITEGIC>MOL_PROPERTY
Grad RMS
SciTegic.value.DoubleValue
0.000000

@<SCITEGIC>MOL_PROPERTY
U
SciTegic.value.DoubleValue
0.841

@<SCITEGIC>MOL_PROPERTY
W
SciTegic.value.DoubleValue
-2.942

@<SCITEGIC>MOL_PROPERTY
W(PB)
SciTegic.value.DoubleValue
-4.530

@<SCITEGIC>MOL_PROPERTY
W(SA)
SciTegic.value.DoubleValue
1.587

@<SCITEGIC>MOL_PROPERTY
Valence
SciTegic.value.DoubleValue
6.736

@<SCITEGIC>MOL_PROPERTY
Coulomb
SciTegic.value.DoubleValue
-7.246

@<SCITEGIC>MOL_PROPERTY
VdW
SciTegic.value.DoubleValue
1.352

@<SCITEGIC>MOL_PROPERTY
VdW6
SciTegic.value.DoubleValue
-2.500

@<SCITEGIC>MOL_PROPERTY
VdW12
SciTegic.value.DoubleValue
3.851

@<SCITEGIC>MOL_PROPERTY
Bond
SciTegic.value.DoubleValue
0.063

@<SCITEGIC>MOL_PROPERTY
Angle
SciTegic.value.DoubleValue
0.687

@<SCITEGIC>MOL_PROPERTY
Pdih
SciTegic.value.DoubleValue
5.986

@<SCITEGIC>MOL_PROPERTY
Idih
SciTegic.value.DoubleValue
0.000

@<SCITEGIC>MOL_PROPERTY
Tether
SciTegic.value.DoubleValue
0.000

@<TRIPOS>MOLECULE
guest-s16_confgen4.mol2 : confsearch ligand conformer 54
          13          13           1
SMALL
USER_CHARGES
 
@<TRIPOS>ATOM
       1    C1      20.813434   18.242879   22.232852 C.3        1 MOL1        -0.1693
       2    H1      21.779490   18.764266   22.256545 H          1 MOL1         0.0829
       3    H2      20.998958   17.162138   22.232389 H          1 MOL1         0.0829
       4    C2      19.812767   18.768824   21.151462 C.3        1 MOL1        -0.1768
       5    H3      20.258979   19.148351   20.225641 H          1 MOL1         0.0829
       6    H4      19.008536   18.068830   20.893376 H          1 MOL1         0.0829
       7    C3      19.427910   19.847224   22.208861 C.3        1 MOL1         0.1211
       8    H5      20.104716   20.712253   22.227585 H          1 MOL1         0.0786
       9    C4      19.765591   18.759810   23.273125 C.3        1 MOL1        -0.1768
      10    H6      18.950816   18.057801   23.489257 H          1 MOL1         0.0829
      11    H7      20.170138   19.131378   24.221054 H          1 MOL1         0.0829
      12    O1      18.085132   20.269100   22.180798 O.3        1 MOL1        -0.5515
      13    H8      17.532137   19.459984   22.165090 H          1 MOL1         0.3773
@<TRIPOS>BOND
    1     1     2    1
    2     1     3    1
    3     1     4    1
    4     4     5    1
    5     4     6    1
    6     4     7    1
    7     7     8    1
    8     1     9    1
    9     7     9    1
   10     9    10    1
   11     9    11    1
   12     7    12    1
   13    12    13    1
@<TRIPOS>SUBSTRUCTURE
       1 MOL1            1 RESIDUE      1      MOL     
@<SCITEGIC>MOL_PROPERTY
VConf Rank
SciTegic.value.IntegerValue
54

@<SCITEGIC>MOL_PROPERTY
Conf_Id
SciTegic.value.IntegerValue
24

@<SCITEGIC>MOL_PROPERTY
Delta U+W
SciTegic.value.DoubleValue
0.356

@<SCITEGIC>MOL_PROPERTY
U+W
SciTegic.value.DoubleValue
-2.775

@<SCITEGIC>MOL_PROPERTY
Grad RMS
SciTegic.value.DoubleValue
0.000000

@<SCITEGIC>MOL_PROPERTY
U
SciTegic.value.DoubleValue
-0.184

@<SCITEGIC>MOL_PROPERTY
W
SciTegic.value.DoubleValue
-2.591

@<SCITEGIC>MOL_PROPERTY
W(PB)
SciTegic.value.DoubleValue
-4.184

@<SCITEGIC>MOL_PROPERTY
W(SA)
SciTegic.value.DoubleValue
1.593

@<SCITEGIC>MOL_PROPERTY
Valence
SciTegic.value.DoubleValue
6.840

@<SCITEGIC>MOL_PROPERTY
Coulomb
SciTegic.value.DoubleValue
-7.916

@<SCITEGIC>MOL_PROPERTY
VdW
SciTegic.value.DoubleValue
0.893

@<SCITEGIC>MOL_PROPERTY
VdW6
SciTegic.value.DoubleValue
-2.167

@<SCITEGIC>MOL_PROPERTY
VdW12
SciTegic.value.DoubleValue
3.060

@<SCITEGIC>MOL_PROPERTY
Bond
SciTegic.value.DoubleValue
0.059

@<SCITEGIC>MOL_PROPERTY
Angle
SciTegic.value.DoubleValue
0.918

@<SCITEGIC>MOL_PROPERTY
Pdih
SciTegic.value.DoubleValue
5.862

@<SCITEGIC>MOL_PROPERTY
Idih
SciTegic.value.DoubleValue
0.000

@<SCITEGIC>MOL_PROPERTY
Tether
SciTegic.value.DoubleValue
0.000

@<TRIPOS>MOLECULE
guest-s16_confgen4.mol2 : confsearch ligand conformer 55
          13          13           1
SMALL
USER_CHARGES
 
@<TRIPOS>ATOM
       1    C1      19.923287   18.044536   22.805440 C.3        1 MOL1        -0.1693
       2    H1      20.093561   17.627552   23.805193 H          1 MOL1         0.0829
       3    H2      20.010400   17.232899   22.071988 H          1 MOL1         0.0829
       4    C2      20.733717   19.337363   22.456240 C.3        1 MOL1        -0.1768
       5    H3      20.957200   19.978766   23.317444 H          1 MOL1         0.0829
       6    H4      21.656187   19.189499   21.883621 H          1 MOL1         0.0829
       7    C3      19.485944   19.786980   21.634718 C.3        1 MOL1         0.1211
       8    H5      19.283423   20.865381   21.657605 H          1 MOL1         0.0786
       9    C4      18.650891   18.942185   22.646154 C.3        1 MOL1        -0.1768
      10    H6      18.363697   19.486695   23.553922 H          1 MOL1         0.0829
      11    H7      17.760440   18.450351   22.238841 H          1 MOL1         0.0829
      12    O1      19.453538   19.318254   20.303939 O.3        1 MOL1        -0.5515
      13    H8      19.639572   18.357511   20.344901 H          1 MOL1         0.3773
@<TRIPOS>BOND
    1     1     2    1
    2     1     3    1
    3     1     4    1
    4     4     5    1
    5     4     6    1
    6     4     7    1
    7     7     8    1
    8     1     9    1
    9     7     9    1
   10     9    10    1
   11     9    11    1
   12     7    12    1
   13    12    13    1
@<TRIPOS>SUBSTRUCTURE
       1 MOL1            1 RESIDUE      1      MOL     
@<SCITEGIC>MOL_PROPERTY
VConf Rank
SciTegic.value.IntegerValue
55

@<SCITEGIC>MOL_PROPERTY
Conf_Id
SciTegic.value.IntegerValue
44

@<SCITEGIC>MOL_PROPERTY
Delta U+W
SciTegic.value.DoubleValue
0.823

@<SCITEGIC>MOL_PROPERTY
U+W
SciTegic.value.DoubleValue
-2.308

@<SCITEGIC>MOL_PROPERTY
Grad RMS
SciTegic.value.DoubleValue
0.000000

@<SCITEGIC>MOL_PROPERTY
U
SciTegic.value.DoubleValue
0.039

@<SCITEGIC>MOL_PROPERTY
W
SciTegic.value.DoubleValue
-2.348

@<SCITEGIC>MOL_PROPERTY
W(PB)
SciTegic.value.DoubleValue
-3.918

@<SCITEGIC>MOL_PROPERTY
W(SA)
SciTegic.value.DoubleValue
1.571

@<SCITEGIC>MOL_PROPERTY
Valence
SciTegic.value.DoubleValue
7.320

@<SCITEGIC>MOL_PROPERTY
Coulomb
SciTegic.value.DoubleValue
-8.530

@<SCITEGIC>MOL_PROPERTY
VdW
SciTegic.value.DoubleValue
1.249

@<SCITEGIC>MOL_PROPERTY
VdW6
SciTegic.value.DoubleValue
-2.615

@<SCITEGIC>MOL_PROPERTY
VdW12
SciTegic.value.DoubleValue
3.864

@<SCITEGIC>MOL_PROPERTY
Bond
SciTegic.value.DoubleValue
0.056

@<SCITEGIC>MOL_PROPERTY
Angle
SciTegic.value.DoubleValue
0.694

@<SCITEGIC>MOL_PROPERTY
Pdih
SciTegic.value.DoubleValue
6.570

@<SCITEGIC>MOL_PROPERTY
Idih
SciTegic.value.DoubleValue
0.000

@<SCITEGIC>MOL_PROPERTY
Tether
SciTegic.value.DoubleValue
0.000

@<TRIPOS>MOLECULE
guest-s16_confgen4.mol2 : confsearch ligand conformer 56
          13          13           1
SMALL
USER_CHARGES
 
@<TRIPOS>ATOM
       1    C1      19.009238   17.913056   22.426930 C.3        1 MOL1        -0.1693
       2    H1      19.636291   17.019342   22.310031 H          1 MOL1         0.0829
       3    H2      17.999855   17.597461   22.716555 H          1 MOL1         0.0829
       4    C2      19.097166   18.933415   21.244373 C.3        1 MOL1        -0.1768
       5    H3      19.267997   18.507472   20.249712 H          1 MOL1         0.0829
       6    H4      18.262159   19.642594   21.185947 H          1 MOL1         0.0829
       7    C3      20.360901   19.482721   21.972442 C.3        1 MOL1         0.1211
       8    H5      21.277455   18.916730   21.756467 H          1 MOL1         0.0786
       9    C4      19.646956   19.051955   23.289225 C.3        1 MOL1        -0.1768
      10    H6      20.303044   18.729278   24.105069 H          1 MOL1         0.0829
      11    H7      18.931199   19.785613   23.680673 H          1 MOL1         0.0829
      12    O1      20.582870   20.866768   21.832122 O.3        1 MOL1        -0.5515
      13    H8      21.297597   21.111502   22.458598 H          1 MOL1         0.3773
@<TRIPOS>BOND
    1     1     2    1
    2     1     3    1
    3     1     4    1
    4     4     5    1
    5     4     6    1
    6     4     7    1
    7     7     8    1
    8     1     9    1
    9     7     9    1
   10     9    10    1
   11     9    11    1
   12     7    12    1
   13    12    13    1
@<TRIPOS>SUBSTRUCTURE
       1 MOL1            1 RESIDUE      1      MOL     
@<SCITEGIC>MOL_PROPERTY
VConf Rank
SciTegic.value.IntegerValue
56

@<SCITEGIC>MOL_PROPERTY
Conf_Id
SciTegic.value.IntegerValue
22

@<SCITEGIC>MOL_PROPERTY
Delta U+W
SciTegic.value.DoubleValue
0.000

@<SCITEGIC>MOL_PROPERTY
U+W
SciTegic.value.DoubleValue
-3.131

@<SCITEGIC>MOL_PROPERTY
Grad RMS
SciTegic.value.DoubleValue
0.000000

@<SCITEGIC>MOL_PROPERTY
U
SciTegic.value.DoubleValue
-0.154

@<SCITEGIC>MOL_PROPERTY
W
SciTegic.value.DoubleValue
-2.978

@<SCITEGIC>MOL_PROPERTY
W(PB)
SciTegic.value.DoubleValue
-4.579

@<SCITEGIC>MOL_PROPERTY
W(SA)
SciTegic.value.DoubleValue
1.601

@<SCITEGIC>MOL_PROPERTY
Valence
SciTegic.value.DoubleValue
6.333

@<SCITEGIC>MOL_PROPERTY
Coulomb
SciTegic.value.DoubleValue
-7.439

@<SCITEGIC>MOL_PROPERTY
VdW
SciTegic.value.DoubleValue
0.952

@<SCITEGIC>MOL_PROPERTY
VdW6
SciTegic.value.DoubleValue
-2.120

@<SCITEGIC>MOL_PROPERTY
VdW12
SciTegic.value.DoubleValue
3.072

@<SCITEGIC>MOL_PROPERTY
Bond
SciTegic.value.DoubleValue
0.065

@<SCITEGIC>MOL_PROPERTY
Angle
SciTegic.value.DoubleValue
0.931

@<SCITEGIC>MOL_PROPERTY
Pdih
SciTegic.value.DoubleValue
5.338

@<SCITEGIC>MOL_PROPERTY
Idih
SciTegic.value.DoubleValue
0.000

@<SCITEGIC>MOL_PROPERTY
Tether
SciTegic.value.DoubleValue
0.000

@<TRIPOS>MOLECULE
guest-s16_confgen4.mol2 : confsearch ligand conformer 57
          13          13           1
SMALL
USER_CHARGES
 
@<TRIPOS>ATOM
       1    C1      19.656369   20.139343   22.763331 C.3        1 MOL1        -0.1693
       2    H1      19.167392   20.893840   22.133075 H          1 MOL1         0.0829
       3    H2      20.081650   20.638930   23.641903 H          1 MOL1         0.0829
       4    C2      20.611487   19.165668   21.997148 C.3        1 MOL1        -0.1768
       5    H3      21.336721   18.641476   22.632012 H          1 MOL1         0.0829
       6    H4      21.138128   19.586868   21.133776 H          1 MOL1         0.0829
       7    C3      19.323190   18.349424   21.675852 C.3        1 MOL1         0.1211
       8    H5      18.759021   18.728274   20.812575 H          1 MOL1         0.0786
       9    C4      18.793820   18.865607   23.047773 C.3        1 MOL1        -0.1768
      10    H6      19.119154   18.273637   23.912247 H          1 MOL1         0.0829
      11    H7      17.711208   19.019312   23.113246 H          1 MOL1         0.0829
      12    O1      19.500281   16.954831   21.584757 O.3        1 MOL1        -0.5515
      13    H8      19.983679   16.777172   20.749313 H          1 MOL1         0.3773
@<TRIPOS>BOND
    1     1     2    1
    2     1     3    1
    3     1     4    1
    4     4     5    1
    5     4     6    1
    6     4     7    1
    7     7     8    1
    8     1     9    1
    9     7     9    1
   10     9    10    1
   11     9    11    1
   12     7    12    1
   13    12    13    1
@<TRIPOS>SUBSTRUCTURE
       1 MOL1            1 RESIDUE      1      MOL     
@<SCITEGIC>MOL_PROPERTY
VConf Rank
SciTegic.value.IntegerValue
57

@<SCITEGIC>MOL_PROPERTY
Conf_Id
SciTegic.value.IntegerValue
19

@<SCITEGIC>MOL_PROPERTY
Delta U+W
SciTegic.value.DoubleValue
-0.011

@<SCITEGIC>MOL_PROPERTY
U+W
SciTegic.value.DoubleValue
-3.142

@<SCITEGIC>MOL_PROPERTY
Grad RMS
SciTegic.value.DoubleValue
0.000000

@<SCITEGIC>MOL_PROPERTY
U
SciTegic.value.DoubleValue
-0.154

@<SCITEGIC>MOL_PROPERTY
W
SciTegic.value.DoubleValue
-2.989

@<SCITEGIC>MOL_PROPERTY
W(PB)
SciTegic.value.DoubleValue
-4.588

@<SCITEGIC>MOL_PROPERTY
W(SA)
SciTegic.value.DoubleValue
1.599

@<SCITEGIC>MOL_PROPERTY
Valence
SciTegic.value.DoubleValue
6.334

@<SCITEGIC>MOL_PROPERTY
Coulomb
SciTegic.value.DoubleValue
-7.439

@<SCITEGIC>MOL_PROPERTY
VdW
SciTegic.value.DoubleValue
0.951

@<SCITEGIC>MOL_PROPERTY
VdW6
SciTegic.value.DoubleValue
-2.120

@<SCITEGIC>MOL_PROPERTY
VdW12
SciTegic.value.DoubleValue
3.072

@<SCITEGIC>MOL_PROPERTY
Bond
SciTegic.value.DoubleValue
0.065

@<SCITEGIC>MOL_PROPERTY
Angle
SciTegic.value.DoubleValue
0.930

@<SCITEGIC>MOL_PROPERTY
Pdih
SciTegic.value.DoubleValue
5.339

@<SCITEGIC>MOL_PROPERTY
Idih
SciTegic.value.DoubleValue
0.000

@<SCITEGIC>MOL_PROPERTY
Tether
SciTegic.value.DoubleValue
0.000

@<TRIPOS>MOLECULE
guest-s16_confgen4.mol2 : confsearch ligand conformer 58
          13          13           1
SMALL
USER_CHARGES
 
@<TRIPOS>ATOM
       1    C1      18.598586   19.230617   22.926436 C.3        1 MOL1        -0.1693
       2    H1      18.016009   18.908598   23.797576 H          1 MOL1         0.0829
       3    H2      18.096529   20.092227   22.467334 H          1 MOL1         0.0829
       4    C2      19.009660   18.105813   21.919060 C.3        1 MOL1        -0.1768
       5    H3      19.167587   17.121362   22.375878 H          1 MOL1         0.0829
       6    H4      18.363918   17.985733   21.042139 H          1 MOL1         0.0829
       7    C3      20.319967   18.921796   21.689506 C.3        1 MOL1         0.1211
       8    H5      21.215735   18.310215   21.521041 H          1 MOL1         0.0786
       9    C4      20.134718   19.419854   23.157061 C.3        1 MOL1        -0.1768
      10    H6      20.467163   20.443483   23.362040 H          1 MOL1         0.0829
      11    H7      20.565340   18.753948   23.914760 H          1 MOL1         0.0829
      12    O1      20.228446   19.928260   20.701175 O.3        1 MOL1        -0.5515
      13    H8      21.038028   20.477789   20.770094 H          1 MOL1         0.3773
@<TRIPOS>BOND
    1     1     2    1
    2     1     3    1
    3     1     4    1
    4     4     5    1
    5     4     6    1
    6     4     7    1
    7     7     8    1
    8     1     9    1
    9     7     9    1
   10     9    10    1
   11     9    11    1
   12     7    12    1
   13    12    13    1
@<TRIPOS>SUBSTRUCTURE
       1 MOL1            1 RESIDUE      1      MOL     
@<SCITEGIC>MOL_PROPERTY
VConf Rank
SciTegic.value.IntegerValue
58

@<SCITEGIC>MOL_PROPERTY
Conf_Id
SciTegic.value.IntegerValue
20

@<SCITEGIC>MOL_PROPERTY
Delta U+W
SciTegic.value.DoubleValue
1.030

@<SCITEGIC>MOL_PROPERTY
U+W
SciTegic.value.DoubleValue
-2.101

@<SCITEGIC>MOL_PROPERTY
Grad RMS
SciTegic.value.DoubleValue
0.000000

@<SCITEGIC>MOL_PROPERTY
U
SciTegic.value.DoubleValue
0.841

@<SCITEGIC>MOL_PROPERTY
W
SciTegic.value.DoubleValue
-2.942

@<SCITEGIC>MOL_PROPERTY
W(PB)
SciTegic.value.DoubleValue
-4.530

@<SCITEGIC>MOL_PROPERTY
W(SA)
SciTegic.value.DoubleValue
1.587

@<SCITEGIC>MOL_PROPERTY
Valence
SciTegic.value.DoubleValue
6.736

@<SCITEGIC>MOL_PROPERTY
Coulomb
SciTegic.value.DoubleValue
-7.246

@<SCITEGIC>MOL_PROPERTY
VdW
SciTegic.value.DoubleValue
1.352

@<SCITEGIC>MOL_PROPERTY
VdW6
SciTegic.value.DoubleValue
-2.500

@<SCITEGIC>MOL_PROPERTY
VdW12
SciTegic.value.DoubleValue
3.851

@<SCITEGIC>MOL_PROPERTY
Bond
SciTegic.value.DoubleValue
0.063

@<SCITEGIC>MOL_PROPERTY
Angle
SciTegic.value.DoubleValue
0.687

@<SCITEGIC>MOL_PROPERTY
Pdih
SciTegic.value.DoubleValue
5.986

@<SCITEGIC>MOL_PROPERTY
Idih
SciTegic.value.DoubleValue
0.000

@<SCITEGIC>MOL_PROPERTY
Tether
SciTegic.value.DoubleValue
0.000

@<TRIPOS>MOLECULE
guest-s16_confgen4.mol2 : confsearch ligand conformer 59
          13          13           1
SMALL
USER_CHARGES
 
@<TRIPOS>ATOM
       1    C1      20.695447   19.670178   21.733648 C.3        1 MOL1        -0.1693
       2    H1      20.911667   20.630352   22.220458 H          1 MOL1         0.0829
       3    H2      21.388803   19.539409   20.894256 H          1 MOL1         0.0829
       4    C2      19.182954   19.421514   21.420776 C.3        1 MOL1        -0.1768
       5    H3      18.587971   20.309516   21.180484 H          1 MOL1         0.0829
       6    H4      18.993272   18.654332   20.659961 H          1 MOL1         0.0829
       7    C3      19.086989   18.920849   22.893624 C.3        1 MOL1         0.1211
       8    H5      18.962613   19.726912   23.629481 H          1 MOL1         0.0786
       9    C4      20.563508   18.456212   22.711521 C.3        1 MOL1        -0.1768
      10    H6      20.682396   17.473272   22.239203 H          1 MOL1         0.0829
      11    H7      21.187762   18.491702   23.611153 H          1 MOL1         0.0829
      12    O1      18.153548   17.892259   23.122770 O.3        1 MOL1        -0.5515
      13    H8      18.311673   17.206331   22.440701 H          1 MOL1         0.3773
@<TRIPOS>BOND
    1     1     2    1
    2     1     3    1
    3     1     4    1
    4     4     5    1
    5     4     6    1
    6     4     7    1
    7     7     8    1
    8     1     9    1
    9     7     9    1
   10     9    10    1
   11     9    11    1
   12     7    12    1
   13    12    13    1
@<TRIPOS>SUBSTRUCTURE
       1 MOL1            1 RESIDUE      1      MOL     
@<SCITEGIC>MOL_PROPERTY
VConf Rank
SciTegic.value.IntegerValue
59

@<SCITEGIC>MOL_PROPERTY
Conf_Id
SciTegic.value.IntegerValue
24

@<SCITEGIC>MOL_PROPERTY
Delta U+W
SciTegic.value.DoubleValue
0.356

@<SCITEGIC>MOL_PROPERTY
U+W
SciTegic.value.DoubleValue
-2.775

@<SCITEGIC>MOL_PROPERTY
Grad RMS
SciTegic.value.DoubleValue
0.000000

@<SCITEGIC>MOL_PROPERTY
U
SciTegic.value.DoubleValue
-0.184

@<SCITEGIC>MOL_PROPERTY
W
SciTegic.value.DoubleValue
-2.591

@<SCITEGIC>MOL_PROPERTY
W(PB)
SciTegic.value.DoubleValue
-4.184

@<SCITEGIC>MOL_PROPERTY
W(SA)
SciTegic.value.DoubleValue
1.593

@<SCITEGIC>MOL_PROPERTY
Valence
SciTegic.value.DoubleValue
6.840

@<SCITEGIC>MOL_PROPERTY
Coulomb
SciTegic.value.DoubleValue
-7.916

@<SCITEGIC>MOL_PROPERTY
VdW
SciTegic.value.DoubleValue
0.893

@<SCITEGIC>MOL_PROPERTY
VdW6
SciTegic.value.DoubleValue
-2.167

@<SCITEGIC>MOL_PROPERTY
VdW12
SciTegic.value.DoubleValue
3.060

@<SCITEGIC>MOL_PROPERTY
Bond
SciTegic.value.DoubleValue
0.059

@<SCITEGIC>MOL_PROPERTY
Angle
SciTegic.value.DoubleValue
0.918

@<SCITEGIC>MOL_PROPERTY
Pdih
SciTegic.value.DoubleValue
5.862

@<SCITEGIC>MOL_PROPERTY
Idih
SciTegic.value.DoubleValue
0.000

@<SCITEGIC>MOL_PROPERTY
Tether
SciTegic.value.DoubleValue
0.000

@<TRIPOS>MOLECULE
guest-s16_confgen4.mol2 : confsearch ligand conformer 60
          13          13           1
SMALL
USER_CHARGES
 
@<TRIPOS>ATOM
       1    C1      20.762800   19.318010   22.245694 C.3        1 MOL1        -0.1693
       2    H1      21.770084   19.116611   22.629346 H          1 MOL1         0.0829
       3    H2      20.797354   20.237026   21.646935 H          1 MOL1         0.0829
       4    C2      19.605709   19.261069   23.298327 C.3        1 MOL1        -0.1768
       5    H3      19.778067   18.559934   24.123989 H          1 MOL1         0.0829
       6    H4      19.286669   20.221622   23.718161 H          1 MOL1         0.0829
       7    C3      18.715174   18.688314   22.152513 C.3        1 MOL1         0.1211
       8    H5      17.985191   17.932870   22.470186 H          1 MOL1         0.0786
       9    C4      20.038193   18.112021   21.559638 C.3        1 MOL1        -0.1768
      10    H6      20.316591   17.129158   21.958999 H          1 MOL1         0.0829
      11    H7      20.095596   18.072426   20.466091 H          1 MOL1         0.0829
      12    O1      18.082994   19.662949   21.351162 O.3        1 MOL1        -0.5515
      13    H8      18.777435   20.305961   21.098969 H          1 MOL1         0.3773
@<TRIPOS>BOND
    1     1     2    1
    2     1     3    1
    3     1     4    1
    4     4     5    1
    5     4     6    1
    6     4     7    1
    7     7     8    1
    8     1     9    1
    9     7     9    1
   10     9    10    1
   11     9    11    1
   12     7    12    1
   13    12    13    1
@<TRIPOS>SUBSTRUCTURE
       1 MOL1            1 RESIDUE      1      MOL     
@<SCITEGIC>MOL_PROPERTY
VConf Rank
SciTegic.value.IntegerValue
60

@<SCITEGIC>MOL_PROPERTY
Conf_Id
SciTegic.value.IntegerValue
44

@<SCITEGIC>MOL_PROPERTY
Delta U+W
SciTegic.value.DoubleValue
0.823

@<SCITEGIC>MOL_PROPERTY
U+W
SciTegic.value.DoubleValue
-2.308

@<SCITEGIC>MOL_PROPERTY
Grad RMS
SciTegic.value.DoubleValue
0.000000

@<SCITEGIC>MOL_PROPERTY
U
SciTegic.value.DoubleValue
0.039

@<SCITEGIC>MOL_PROPERTY
W
SciTegic.value.DoubleValue
-2.348

@<SCITEGIC>MOL_PROPERTY
W(PB)
SciTegic.value.DoubleValue
-3.918

@<SCITEGIC>MOL_PROPERTY
W(SA)
SciTegic.value.DoubleValue
1.571

@<SCITEGIC>MOL_PROPERTY
Valence
SciTegic.value.DoubleValue
7.320

@<SCITEGIC>MOL_PROPERTY
Coulomb
SciTegic.value.DoubleValue
-8.530

@<SCITEGIC>MOL_PROPERTY
VdW
SciTegic.value.DoubleValue
1.249

@<SCITEGIC>MOL_PROPERTY
VdW6
SciTegic.value.DoubleValue
-2.615

@<SCITEGIC>MOL_PROPERTY
VdW12
SciTegic.value.DoubleValue
3.864

@<SCITEGIC>MOL_PROPERTY
Bond
SciTegic.value.DoubleValue
0.056

@<SCITEGIC>MOL_PROPERTY
Angle
SciTegic.value.DoubleValue
0.694

@<SCITEGIC>MOL_PROPERTY
Pdih
SciTegic.value.DoubleValue
6.570

@<SCITEGIC>MOL_PROPERTY
Idih
SciTegic.value.DoubleValue
0.000

@<SCITEGIC>MOL_PROPERTY
Tether
SciTegic.value.DoubleValue
0.000

@<TRIPOS>MOLECULE
guest-s16_confgen4.mol2 : confsearch ligand conformer 61
          13          13           1
SMALL
USER_CHARGES
 
@<TRIPOS>ATOM
       1    C1      20.139804   20.242193   22.530505 C.3        1 MOL1        -0.1693
       2    H1      19.696710   21.040822   21.921042 H          1 MOL1         0.0829
       3    H2      20.830035   20.694435   23.252582 H          1 MOL1         0.0829
       4    C2      20.696678   19.028981   21.714836 C.3        1 MOL1        -0.1768
       5    H3      21.108047   19.258961   20.725976 H          1 MOL1         0.0829
       6    H4      21.413237   18.400081   22.257620 H          1 MOL1         0.0829
       7    C3      19.230751   18.500220   21.732662 C.3        1 MOL1         0.1211
       8    H5      18.594063   18.933757   20.949249 H          1 MOL1         0.0786
       9    C4      19.112256   19.215938   23.112119 C.3        1 MOL1        -0.1768
      10    H6      18.122092   19.613244   23.360904 H          1 MOL1         0.0829
      11    H7      19.481693   18.629895   23.962921 H          1 MOL1         0.0829
      12    O1      19.096555   17.098319   21.767471 O.3        1 MOL1        -0.5515
      13    H8      18.150807   16.901063   21.940256 H          1 MOL1         0.3773
@<TRIPOS>BOND
    1     1     2    1
    2     1     3    1
    3     1     4    1
    4     4     5    1
    5     4     6    1
    6     4     7    1
    7     7     8    1
    8     1     9    1
    9     7     9    1
   10     9    10    1
   11     9    11    1
   12     7    12    1
   13    12    13    1
@<TRIPOS>SUBSTRUCTURE
       1 MOL1            1 RESIDUE      1      MOL     
@<SCITEGIC>MOL_PROPERTY
VConf Rank
SciTegic.value.IntegerValue
61

@<SCITEGIC>MOL_PROPERTY
Conf_Id
SciTegic.value.IntegerValue
22

@<SCITEGIC>MOL_PROPERTY
Delta U+W
SciTegic.value.DoubleValue
0.000

@<SCITEGIC>MOL_PROPERTY
U+W
SciTegic.value.DoubleValue
-3.131

@<SCITEGIC>MOL_PROPERTY
Grad RMS
SciTegic.value.DoubleValue
0.000000

@<SCITEGIC>MOL_PROPERTY
U
SciTegic.value.DoubleValue
-0.154

@<SCITEGIC>MOL_PROPERTY
W
SciTegic.value.DoubleValue
-2.978

@<SCITEGIC>MOL_PROPERTY
W(PB)
SciTegic.value.DoubleValue
-4.579

@<SCITEGIC>MOL_PROPERTY
W(SA)
SciTegic.value.DoubleValue
1.601

@<SCITEGIC>MOL_PROPERTY
Valence
SciTegic.value.DoubleValue
6.333

@<SCITEGIC>MOL_PROPERTY
Coulomb
SciTegic.value.DoubleValue
-7.439

@<SCITEGIC>MOL_PROPERTY
VdW
SciTegic.value.DoubleValue
0.952

@<SCITEGIC>MOL_PROPERTY
VdW6
SciTegic.value.DoubleValue
-2.120

@<SCITEGIC>MOL_PROPERTY
VdW12
SciTegic.value.DoubleValue
3.072

@<SCITEGIC>MOL_PROPERTY
Bond
SciTegic.value.DoubleValue
0.065

@<SCITEGIC>MOL_PROPERTY
Angle
SciTegic.value.DoubleValue
0.931

@<SCITEGIC>MOL_PROPERTY
Pdih
SciTegic.value.DoubleValue
5.338

@<SCITEGIC>MOL_PROPERTY
Idih
SciTegic.value.DoubleValue
0.000

@<SCITEGIC>MOL_PROPERTY
Tether
SciTegic.value.DoubleValue
0.000

@<TRIPOS>MOLECULE
guest-s16_confgen4.mol2 : confsearch ligand conformer 62
          13          13           1
SMALL
USER_CHARGES
 
@<TRIPOS>ATOM
       1    C1      19.723403   18.108820   21.213863 C.3        1 MOL1        -0.1693
       2    H1      19.656670   17.047957   21.489006 H          1 MOL1         0.0829
       3    H2      19.904867   18.180218   20.134831 H          1 MOL1         0.0829
       4    C2      20.662971   18.963997   22.126667 C.3        1 MOL1        -0.1768
       5    H3      20.991438   19.912952   21.684639 H          1 MOL1         0.0829
       6    H4      21.535781   18.446444   22.539603 H          1 MOL1         0.0829
       7    C3      19.431668   19.083179   23.074762 C.3        1 MOL1         0.1211
       8    H5      19.300599   18.223074   23.745658 H          1 MOL1         0.0786
       9    C4      18.571513   19.004779   21.777522 C.3        1 MOL1        -0.1768
      10    H6      18.440019   19.963594   21.260833 H          1 MOL1         0.0829
      11    H7      17.592754   18.524372   21.883351 H          1 MOL1         0.0829
      12    O1      19.335663   20.293761   23.788783 O.3        1 MOL1        -0.5515
      13    H8      20.034753   20.281234   24.477492 H          1 MOL1         0.3773
@<TRIPOS>BOND
    1     1     2    1
    2     1     3    1
    3     1     4    1
    4     4     5    1
    5     4     6    1
    6     4     7    1
    7     7     8    1
    8     1     9    1
    9     7     9    1
   10     9    10    1
   11     9    11    1
   12     7    12    1
   13    12    13    1
@<TRIPOS>SUBSTRUCTURE
       1 MOL1            1 RESIDUE      1      MOL     
@<SCITEGIC>MOL_PROPERTY
VConf Rank
SciTegic.value.IntegerValue
62

@<SCITEGIC>MOL_PROPERTY
Conf_Id
SciTegic.value.IntegerValue
19

@<SCITEGIC>MOL_PROPERTY
Delta U+W
SciTegic.value.DoubleValue
-0.011

@<SCITEGIC>MOL_PROPERTY
U+W
SciTegic.value.DoubleValue
-3.142

@<SCITEGIC>MOL_PROPERTY
Grad RMS
SciTegic.value.DoubleValue
0.000000

@<SCITEGIC>MOL_PROPERTY
U
SciTegic.value.DoubleValue
-0.154

@<SCITEGIC>MOL_PROPERTY
W
SciTegic.value.DoubleValue
-2.989

@<SCITEGIC>MOL_PROPERTY
W(PB)
SciTegic.value.DoubleValue
-4.588

@<SCITEGIC>MOL_PROPERTY
W(SA)
SciTegic.value.DoubleValue
1.599

@<SCITEGIC>MOL_PROPERTY
Valence
SciTegic.value.DoubleValue
6.334

@<SCITEGIC>MOL_PROPERTY
Coulomb
SciTegic.value.DoubleValue
-7.439

@<SCITEGIC>MOL_PROPERTY
VdW
SciTegic.value.DoubleValue
0.951

@<SCITEGIC>MOL_PROPERTY
VdW6
SciTegic.value.DoubleValue
-2.120

@<SCITEGIC>MOL_PROPERTY
VdW12
SciTegic.value.DoubleValue
3.072

@<SCITEGIC>MOL_PROPERTY
Bond
SciTegic.value.DoubleValue
0.065

@<SCITEGIC>MOL_PROPERTY
Angle
SciTegic.value.DoubleValue
0.930

@<SCITEGIC>MOL_PROPERTY
Pdih
SciTegic.value.DoubleValue
5.339

@<SCITEGIC>MOL_PROPERTY
Idih
SciTegic.value.DoubleValue
0.000

@<SCITEGIC>MOL_PROPERTY
Tether
SciTegic.value.DoubleValue
0.000

@<TRIPOS>MOLECULE
guest-s16_confgen4.mol2 : confsearch ligand conformer 63
          13          13           1
SMALL
USER_CHARGES
 
@<TRIPOS>ATOM
       1    C1      20.150836   19.979778   22.905972 C.3        1 MOL1        -0.1693
       2    H1      20.343446   20.395911   23.901820 H          1 MOL1         0.0829
       3    H2      20.668181   20.598252   22.160955 H          1 MOL1         0.0829
       4    C2      18.654887   19.669743   22.566875 C.3        1 MOL1        -0.1768
       5    H3      18.042457   19.383562   23.430470 H          1 MOL1         0.0829
       6    H4      18.120996   20.439087   21.998138 H          1 MOL1         0.0829
       7    C3      19.192226   18.462931   21.736033 C.3        1 MOL1         0.1211
       8    H5      18.552426   17.571329   21.758714 H          1 MOL1         0.0786
       9    C4      20.381505   18.440270   22.746576 C.3        1 MOL1        -0.1768
      10    H6      21.352709   18.139833   22.338101 H          1 MOL1         0.0829
      11    H7      20.188033   17.855958   23.654388 H          1 MOL1         0.0829
      12    O1      19.547232   18.769840   20.402645 O.3        1 MOL1        -0.5515
      13    H8      20.026755   17.993203   20.043413 H          1 MOL1         0.3773
@<TRIPOS>BOND
    1     1     2    1
    2     1     3    1
    3     1     4    1
    4     4     5    1
    5     4     6    1
    6     4     7    1
    7     7     8    1
    8     1     9    1
    9     7     9    1
   10     9    10    1
   11     9    11    1
   12     7    12    1
   13    12    13    1
@<TRIPOS>SUBSTRUCTURE
       1 MOL1            1 RESIDUE      1      MOL     
@<SCITEGIC>MOL_PROPERTY
VConf Rank
SciTegic.value.IntegerValue
63

@<SCITEGIC>MOL_PROPERTY
Conf_Id
SciTegic.value.IntegerValue
20

@<SCITEGIC>MOL_PROPERTY
Delta U+W
SciTegic.value.DoubleValue
1.030

@<SCITEGIC>MOL_PROPERTY
U+W
SciTegic.value.DoubleValue
-2.101

@<SCITEGIC>MOL_PROPERTY
Grad RMS
SciTegic.value.DoubleValue
0.000000

@<SCITEGIC>MOL_PROPERTY
U
SciTegic.value.DoubleValue
0.841

@<SCITEGIC>MOL_PROPERTY
W
SciTegic.value.DoubleValue
-2.942

@<SCITEGIC>MOL_PROPERTY
W(PB)
SciTegic.value.DoubleValue
-4.530

@<SCITEGIC>MOL_PROPERTY
W(SA)
SciTegic.value.DoubleValue
1.587

@<SCITEGIC>MOL_PROPERTY
Valence
SciTegic.value.DoubleValue
6.736

@<SCITEGIC>MOL_PROPERTY
Coulomb
SciTegic.value.DoubleValue
-7.246

@<SCITEGIC>MOL_PROPERTY
VdW
SciTegic.value.DoubleValue
1.352

@<SCITEGIC>MOL_PROPERTY
VdW6
SciTegic.value.DoubleValue
-2.500

@<SCITEGIC>MOL_PROPERTY
VdW12
SciTegic.value.DoubleValue
3.851

@<SCITEGIC>MOL_PROPERTY
Bond
SciTegic.value.DoubleValue
0.063

@<SCITEGIC>MOL_PROPERTY
Angle
SciTegic.value.DoubleValue
0.687

@<SCITEGIC>MOL_PROPERTY
Pdih
SciTegic.value.DoubleValue
5.986

@<SCITEGIC>MOL_PROPERTY
Idih
SciTegic.value.DoubleValue
0.000

@<SCITEGIC>MOL_PROPERTY
Tether
SciTegic.value.DoubleValue
0.000

@<TRIPOS>MOLECULE
guest-s16_confgen4.mol2 : confsearch ligand conformer 64
          13          13           1
SMALL
USER_CHARGES
 
@<TRIPOS>ATOM
       1    C1      21.010291   19.153512   22.291752 C.3        1 MOL1        -0.1693
       2    H1      21.464453   19.865447   21.589929 H          1 MOL1         0.0829
       3    H2      21.797209   18.752332   22.941549 H          1 MOL1         0.0829
       4    C2      20.060620   18.100020   21.631725 C.3        1 MOL1        -0.1768
       5    H3      20.322802   17.784075   20.615984 H          1 MOL1         0.0829
       6    H4      19.874180   17.207023   22.240975 H          1 MOL1         0.0829
       7    C3      18.965229   19.203875   21.735550 C.3        1 MOL1         0.1211
       8    H5      18.987291   19.930295   20.911826 H          1 MOL1         0.0786
       9    C4      19.723889   19.676012   23.012530 C.3        1 MOL1        -0.1768
      10    H6      19.462186   19.135269   23.930406 H          1 MOL1         0.0829
      11    H7      19.688685   20.751907   23.216249 H          1 MOL1         0.0829
      12    O1      17.654581   18.736599   21.949259 O.3        1 MOL1        -0.5515
      13    H8      17.697185   18.096472   22.690301 H          1 MOL1         0.3773
@<TRIPOS>BOND
    1     1     2    1
    2     1     3    1
    3     1     4    1
    4     4     5    1
    5     4     6    1
    6     4     7    1
    7     7     8    1
    8     1     9    1
    9     7     9    1
   10     9    10    1
   11     9    11    1
   12     7    12    1
   13    12    13    1
@<TRIPOS>SUBSTRUCTURE
       1 MOL1            1 RESIDUE      1      MOL     
@<SCITEGIC>MOL_PROPERTY
VConf Rank
SciTegic.value.IntegerValue
64

@<SCITEGIC>MOL_PROPERTY
Conf_Id
SciTegic.value.IntegerValue
24

@<SCITEGIC>MOL_PROPERTY
Delta U+W
SciTegic.value.DoubleValue
0.356

@<SCITEGIC>MOL_PROPERTY
U+W
SciTegic.value.DoubleValue
-2.775

@<SCITEGIC>MOL_PROPERTY
Grad RMS
SciTegic.value.DoubleValue
0.000000

@<SCITEGIC>MOL_PROPERTY
U
SciTegic.value.DoubleValue
-0.184

@<SCITEGIC>MOL_PROPERTY
W
SciTegic.value.DoubleValue
-2.591

@<SCITEGIC>MOL_PROPERTY
W(PB)
SciTegic.value.DoubleValue
-4.184

@<SCITEGIC>MOL_PROPERTY
W(SA)
SciTegic.value.DoubleValue
1.593

@<SCITEGIC>MOL_PROPERTY
Valence
SciTegic.value.DoubleValue
6.840

@<SCITEGIC>MOL_PROPERTY
Coulomb
SciTegic.value.DoubleValue
-7.916

@<SCITEGIC>MOL_PROPERTY
VdW
SciTegic.value.DoubleValue
0.893

@<SCITEGIC>MOL_PROPERTY
VdW6
SciTegic.value.DoubleValue
-2.167

@<SCITEGIC>MOL_PROPERTY
VdW12
SciTegic.value.DoubleValue
3.060

@<SCITEGIC>MOL_PROPERTY
Bond
SciTegic.value.DoubleValue
0.059

@<SCITEGIC>MOL_PROPERTY
Angle
SciTegic.value.DoubleValue
0.918

@<SCITEGIC>MOL_PROPERTY
Pdih
SciTegic.value.DoubleValue
5.862

@<SCITEGIC>MOL_PROPERTY
Idih
SciTegic.value.DoubleValue
0.000

@<SCITEGIC>MOL_PROPERTY
Tether
SciTegic.value.DoubleValue
0.000

@<TRIPOS>MOLECULE
guest-s16_confgen4.mol2 : confsearch ligand conformer 65
          13          13           1
SMALL
USER_CHARGES
 
@<TRIPOS>ATOM
       1    C1      20.489580   18.271878   22.588169 C.3        1 MOL1        -0.1693
       2    H1      21.171291   17.450665   22.336668 H          1 MOL1         0.0829
       3    H2      20.632556   18.529550   23.645268 H          1 MOL1         0.0829
       4    C2      18.998222   18.080692   22.152927 C.3        1 MOL1        -0.1768
       5    H3      18.864241   17.478017   21.246369 H          1 MOL1         0.0829
       6    H4      18.314052   17.707588   22.923260 H          1 MOL1         0.0829
       7    C3      18.969581   19.620472   21.903432 C.3        1 MOL1         0.1211
       8    H5      18.359123   19.937339   21.048199 H          1 MOL1         0.0786
       9    C4      20.495736   19.491138   21.606587 C.3        1 MOL1        -0.1768
      10    H6      20.728924   19.234283   20.566076 H          1 MOL1         0.0829
      11    H7      21.115026   20.345706   21.901378 H          1 MOL1         0.0829
      12    O1      18.651285   20.397726   23.037580 O.3        1 MOL1        -0.5515
      13    H8      19.222241   20.072919   23.764095 H          1 MOL1         0.3773
@<TRIPOS>BOND
    1     1     2    1
    2     1     3    1
    3     1     4    1
    4     4     5    1
    5     4     6    1
    6     4     7    1
    7     7     8    1
    8     1     9    1
    9     7     9    1
   10     9    10    1
   11     9    11    1
   12     7    12    1
   13    12    13    1
@<TRIPOS>SUBSTRUCTURE
       1 MOL1            1 RESIDUE      1      MOL     
@<SCITEGIC>MOL_PROPERTY
VConf Rank
SciTegic.value.IntegerValue
65

@<SCITEGIC>MOL_PROPERTY
Conf_Id
SciTegic.value.IntegerValue
44

@<SCITEGIC>MOL_PROPERTY
Delta U+W
SciTegic.value.DoubleValue
0.823

@<SCITEGIC>MOL_PROPERTY
U+W
SciTegic.value.DoubleValue
-2.308

@<SCITEGIC>MOL_PROPERTY
Grad RMS
SciTegic.value.DoubleValue
0.000000

@<SCITEGIC>MOL_PROPERTY
U
SciTegic.value.DoubleValue
0.039

@<SCITEGIC>MOL_PROPERTY
W
SciTegic.value.DoubleValue
-2.348

@<SCITEGIC>MOL_PROPERTY
W(PB)
SciTegic.value.DoubleValue
-3.918

@<SCITEGIC>MOL_PROPERTY
W(SA)
SciTegic.value.DoubleValue
1.571

@<SCITEGIC>MOL_PROPERTY
Valence
SciTegic.value.DoubleValue
7.320

@<SCITEGIC>MOL_PROPERTY
Coulomb
SciTegic.value.DoubleValue
-8.530

@<SCITEGIC>MOL_PROPERTY
VdW
SciTegic.value.DoubleValue
1.249

@<SCITEGIC>MOL_PROPERTY
VdW6
SciTegic.value.DoubleValue
-2.615

@<SCITEGIC>MOL_PROPERTY
VdW12
SciTegic.value.DoubleValue
3.864

@<SCITEGIC>MOL_PROPERTY
Bond
SciTegic.value.DoubleValue
0.056

@<SCITEGIC>MOL_PROPERTY
Angle
SciTegic.value.DoubleValue
0.694

@<SCITEGIC>MOL_PROPERTY
Pdih
SciTegic.value.DoubleValue
6.570

@<SCITEGIC>MOL_PROPERTY
Idih
SciTegic.value.DoubleValue
0.000

@<SCITEGIC>MOL_PROPERTY
Tether
SciTegic.value.DoubleValue
0.000

@<TRIPOS>MOLECULE
guest-s16_confgen4.mol2 : confsearch ligand conformer 66
          13          13           1
SMALL
USER_CHARGES
 
@<TRIPOS>ATOM
       1    C1      18.414898   19.444472   22.357734 C.3        1 MOL1        -0.1693
       2    H1      18.150354   19.779141   23.369464 H          1 MOL1         0.0829
       3    H2      17.549066   19.593723   21.701687 H          1 MOL1         0.0829
       4    C2      19.092982   18.036278   22.290648 C.3        1 MOL1        -0.1768
       5    H3      18.772925   17.308924   23.044625 H          1 MOL1         0.0829
       6    H4      19.062903   17.558020   21.303759 H          1 MOL1         0.0829
       7    C3      20.418892   18.794465   22.600428 C.3        1 MOL1         0.1211
       8    H5      20.577070   18.991205   23.669697 H          1 MOL1         0.0786
       9    C4      19.782073   19.987250   21.825238 C.3        1 MOL1        -0.1768
      10    H6      20.069875   20.987514   22.167018 H          1 MOL1         0.0829
      11    H7      19.901283   19.938378   20.735653 H          1 MOL1         0.0829
      12    O1      21.577222   18.245512   22.016077 O.3        1 MOL1        -0.5515
      13    H8      22.303184   18.893025   22.146113 H          1 MOL1         0.3773
@<TRIPOS>BOND
    1     1     2    1
    2     1     3    1
    3     1     4    1
    4     4     5    1
    5     4     6    1
    6     4     7    1
    7     7     8    1
    8     1     9    1
    9     7     9    1
   10     9    10    1
   11     9    11    1
   12     7    12    1
   13    12    13    1
@<TRIPOS>SUBSTRUCTURE
       1 MOL1            1 RESIDUE      1      MOL     
@<SCITEGIC>MOL_PROPERTY
VConf Rank
SciTegic.value.IntegerValue
66

@<SCITEGIC>MOL_PROPERTY
Conf_Id
SciTegic.value.IntegerValue
22

@<SCITEGIC>MOL_PROPERTY
Delta U+W
SciTegic.value.DoubleValue
0.000

@<SCITEGIC>MOL_PROPERTY
U+W
SciTegic.value.DoubleValue
-3.131

@<SCITEGIC>MOL_PROPERTY
Grad RMS
SciTegic.value.DoubleValue
0.000000

@<SCITEGIC>MOL_PROPERTY
U
SciTegic.value.DoubleValue
-0.154

@<SCITEGIC>MOL_PROPERTY
W
SciTegic.value.DoubleValue
-2.978

@<SCITEGIC>MOL_PROPERTY
W(PB)
SciTegic.value.DoubleValue
-4.579

@<SCITEGIC>MOL_PROPERTY
W(SA)
SciTegic.value.DoubleValue
1.601

@<SCITEGIC>MOL_PROPERTY
Valence
SciTegic.value.DoubleValue
6.333

@<SCITEGIC>MOL_PROPERTY
Coulomb
SciTegic.value.DoubleValue
-7.439

@<SCITEGIC>MOL_PROPERTY
VdW
SciTegic.value.DoubleValue
0.952

@<SCITEGIC>MOL_PROPERTY
VdW6
SciTegic.value.DoubleValue
-2.120

@<SCITEGIC>MOL_PROPERTY
VdW12
SciTegic.value.DoubleValue
3.072

@<SCITEGIC>MOL_PROPERTY
Bond
SciTegic.value.DoubleValue
0.065

@<SCITEGIC>MOL_PROPERTY
Angle
SciTegic.value.DoubleValue
0.931

@<SCITEGIC>MOL_PROPERTY
Pdih
SciTegic.value.DoubleValue
5.338

@<SCITEGIC>MOL_PROPERTY
Idih
SciTegic.value.DoubleValue
0.000

@<SCITEGIC>MOL_PROPERTY
Tether
SciTegic.value.DoubleValue
0.000

@<TRIPOS>MOLECULE
guest-s16_confgen4.mol2 : confsearch ligand conformer 67
          13          13           1
SMALL
USER_CHARGES
 
@<TRIPOS>ATOM
       1    C1      18.906290   18.412696   21.268558 C.3        1 MOL1        -0.1693
       2    H1      19.233780   17.410306   20.962695 H          1 MOL1         0.0829
       3    H2      18.080379   18.725057   20.618450 H          1 MOL1         0.0829
       4    C2      20.062186   19.449818   21.457264 C.3        1 MOL1        -0.1768
       5    H3      19.743682   20.499545   21.436696 H          1 MOL1         0.0829
       6    H4      20.928901   19.331228   20.797783 H          1 MOL1         0.0829
       7    C3      20.207452   18.845122   22.886401 C.3        1 MOL1         0.1211
       8    H5      20.811251   17.927990   22.923244 H          1 MOL1         0.0786
       9    C4      18.673079   18.584222   22.805925 C.3        1 MOL1        -0.1768
      10    H6      18.050763   19.444037   23.083462 H          1 MOL1         0.0829
      11    H7      18.311571   17.699925   23.341920 H          1 MOL1         0.0829
      12    O1      20.612645   19.751311   23.885996 O.3        1 MOL1        -0.5515
      13    H8      21.560118   19.953124   23.728614 H          1 MOL1         0.3773
@<TRIPOS>BOND
    1     1     2    1
    2     1     3    1
    3     1     4    1
    4     4     5    1
    5     4     6    1
    6     4     7    1
    7     7     8    1
    8     1     9    1
    9     7     9    1
   10     9    10    1
   11     9    11    1
   12     7    12    1
   13    12    13    1
@<TRIPOS>SUBSTRUCTURE
       1 MOL1            1 RESIDUE      1      MOL     
@<SCITEGIC>MOL_PROPERTY
VConf Rank
SciTegic.value.IntegerValue
67

@<SCITEGIC>MOL_PROPERTY
Conf_Id
SciTegic.value.IntegerValue
19

@<SCITEGIC>MOL_PROPERTY
Delta U+W
SciTegic.value.DoubleValue
-0.011

@<SCITEGIC>MOL_PROPERTY
U+W
SciTegic.value.DoubleValue
-3.142

@<SCITEGIC>MOL_PROPERTY
Grad RMS
SciTegic.value.DoubleValue
0.000000

@<SCITEGIC>MOL_PROPERTY
U
SciTegic.value.DoubleValue
-0.154

@<SCITEGIC>MOL_PROPERTY
W
SciTegic.value.DoubleValue
-2.989

@<SCITEGIC>MOL_PROPERTY
W(PB)
SciTegic.value.DoubleValue
-4.588

@<SCITEGIC>MOL_PROPERTY
W(SA)
SciTegic.value.DoubleValue
1.599

@<SCITEGIC>MOL_PROPERTY
Valence
SciTegic.value.DoubleValue
6.334

@<SCITEGIC>MOL_PROPERTY
Coulomb
SciTegic.value.DoubleValue
-7.439

@<SCITEGIC>MOL_PROPERTY
VdW
SciTegic.value.DoubleValue
0.951

@<SCITEGIC>MOL_PROPERTY
VdW6
SciTegic.value.DoubleValue
-2.120

@<SCITEGIC>MOL_PROPERTY
VdW12
SciTegic.value.DoubleValue
3.072

@<SCITEGIC>MOL_PROPERTY
Bond
SciTegic.value.DoubleValue
0.065

@<SCITEGIC>MOL_PROPERTY
Angle
SciTegic.value.DoubleValue
0.930

@<SCITEGIC>MOL_PROPERTY
Pdih
SciTegic.value.DoubleValue
5.339

@<SCITEGIC>MOL_PROPERTY
Idih
SciTegic.value.DoubleValue
0.000

@<SCITEGIC>MOL_PROPERTY
Tether
SciTegic.value.DoubleValue
0.000

@<TRIPOS>MOLECULE
guest-s16_confgen4.mol2 : confsearch ligand conformer 68
          13          13           1
SMALL
USER_CHARGES
 
@<TRIPOS>ATOM
       1    C1      18.707542   18.975835   21.470339 C.3        1 MOL1        -0.1693
       2    H1      17.911593   19.528740   20.957758 H          1 MOL1         0.0829
       3    H2      18.738400   17.953747   21.070851 H          1 MOL1         0.0829
       4    C2      18.710097   19.062832   23.032835 C.3        1 MOL1        -0.1768
       5    H3      18.322498   20.005938   23.436670 H          1 MOL1         0.0829
       6    H4      18.230665   18.231739   23.561819 H          1 MOL1         0.0829
       7    C3      20.266564   18.999094   22.939156 C.3        1 MOL1         0.1211
       8    H5      20.794712   19.601743   23.689280 H          1 MOL1         0.0786
       9    C4      20.099674   19.686243   21.547730 C.3        1 MOL1        -0.1768
      10    H6      20.828092   19.400428   20.780873 H          1 MOL1         0.0829
      11    H7      20.048776   20.781008   21.591015 H          1 MOL1         0.0829
      12    O1      20.807077   17.693559   22.899553 O.3        1 MOL1        -0.5515
      13    H8      21.755996   17.778789   22.666220 H          1 MOL1         0.3773
@<TRIPOS>BOND
    1     1     2    1
    2     1     3    1
    3     1     4    1
    4     4     5    1
    5     4     6    1
    6     4     7    1
    7     7     8    1
    8     1     9    1
    9     7     9    1
   10     9    10    1
   11     9    11    1
   12     7    12    1
   13    12    13    1
@<TRIPOS>SUBSTRUCTURE
       1 MOL1            1 RESIDUE      1      MOL     
@<SCITEGIC>MOL_PROPERTY
VConf Rank
SciTegic.value.IntegerValue
68

@<SCITEGIC>MOL_PROPERTY
Conf_Id
SciTegic.value.IntegerValue
20

@<SCITEGIC>MOL_PROPERTY
Delta U+W
SciTegic.value.DoubleValue
1.030

@<SCITEGIC>MOL_PROPERTY
U+W
SciTegic.value.DoubleValue
-2.101

@<SCITEGIC>MOL_PROPERTY
Grad RMS
SciTegic.value.DoubleValue
0.000000

@<SCITEGIC>MOL_PROPERTY
U
SciTegic.value.DoubleValue
0.841

@<SCITEGIC>MOL_PROPERTY
W
SciTegic.value.DoubleValue
-2.942

@<SCITEGIC>MOL_PROPERTY
W(PB)
SciTegic.value.DoubleValue
-4.530

@<SCITEGIC>MOL_PROPERTY
W(SA)
SciTegic.value.DoubleValue
1.587

@<SCITEGIC>MOL_PROPERTY
Valence
SciTegic.value.DoubleValue
6.736

@<SCITEGIC>MOL_PROPERTY
Coulomb
SciTegic.value.DoubleValue
-7.246

@<SCITEGIC>MOL_PROPERTY
VdW
SciTegic.value.DoubleValue
1.352

@<SCITEGIC>MOL_PROPERTY
VdW6
SciTegic.value.DoubleValue
-2.500

@<SCITEGIC>MOL_PROPERTY
VdW12
SciTegic.value.DoubleValue
3.851

@<SCITEGIC>MOL_PROPERTY
Bond
SciTegic.value.DoubleValue
0.063

@<SCITEGIC>MOL_PROPERTY
Angle
SciTegic.value.DoubleValue
0.687

@<SCITEGIC>MOL_PROPERTY
Pdih
SciTegic.value.DoubleValue
5.986

@<SCITEGIC>MOL_PROPERTY
Idih
SciTegic.value.DoubleValue
0.000

@<SCITEGIC>MOL_PROPERTY
Tether
SciTegic.value.DoubleValue
0.000

@<TRIPOS>MOLECULE
guest-s16_confgen4.mol2 : confsearch ligand conformer 69
          13          13           1
SMALL
USER_CHARGES
 
@<TRIPOS>ATOM
       1    C1      19.562493   19.407412   21.027844 C.3        1 MOL1        -0.1693
       2    H1      20.420243   19.854264   20.507980 H          1 MOL1         0.0829
       3    H2      18.688409   19.457187   20.367602 H          1 MOL1         0.0829
       4    C2      19.347785   19.915616   22.491739 C.3        1 MOL1        -0.1768
       5    H3      19.632842   20.955108   22.687932 H          1 MOL1         0.0829
       6    H4      18.340759   19.745275   22.892076 H          1 MOL1         0.0829
       7    C3      20.401460   18.838321   22.889683 C.3        1 MOL1         0.1211
       8    H5      21.442022   19.166628   22.762639 H          1 MOL1         0.0786
       9    C4      19.848358   18.017239   21.685915 C.3        1 MOL1        -0.1768
      10    H6      18.953216   17.422588   21.906140 H          1 MOL1         0.0829
      11    H7      20.575497   17.380174   21.170444 H          1 MOL1         0.0829
      12    O1      20.217870   18.252210   24.156405 O.3        1 MOL1        -0.5515
      13    H8      19.277649   17.980816   24.211636 H          1 MOL1         0.3773
@<TRIPOS>BOND
    1     1     2    1
    2     1     3    1
    3     1     4    1
    4     4     5    1
    5     4     6    1
    6     4     7    1
    7     7     8    1
    8     1     9    1
    9     7     9    1
   10     9    10    1
   11     9    11    1
   12     7    12    1
   13    12    13    1
@<TRIPOS>SUBSTRUCTURE
       1 MOL1            1 RESIDUE      1      MOL     
@<SCITEGIC>MOL_PROPERTY
VConf Rank
SciTegic.value.IntegerValue
69

@<SCITEGIC>MOL_PROPERTY
Conf_Id
SciTegic.value.IntegerValue
24

@<SCITEGIC>MOL_PROPERTY
Delta U+W
SciTegic.value.DoubleValue
0.356

@<SCITEGIC>MOL_PROPERTY
U+W
SciTegic.value.DoubleValue
-2.775

@<SCITEGIC>MOL_PROPERTY
Grad RMS
SciTegic.value.DoubleValue
0.000000

@<SCITEGIC>MOL_PROPERTY
U
SciTegic.value.DoubleValue
-0.184

@<SCITEGIC>MOL_PROPERTY
W
SciTegic.value.DoubleValue
-2.591

@<SCITEGIC>MOL_PROPERTY
W(PB)
SciTegic.value.DoubleValue
-4.184

@<SCITEGIC>MOL_PROPERTY
W(SA)
SciTegic.value.DoubleValue
1.593

@<SCITEGIC>MOL_PROPERTY
Valence
SciTegic.value.DoubleValue
6.840

@<SCITEGIC>MOL_PROPERTY
Coulomb
SciTegic.value.DoubleValue
-7.916

@<SCITEGIC>MOL_PROPERTY
VdW
SciTegic.value.DoubleValue
0.893

@<SCITEGIC>MOL_PROPERTY
VdW6
SciTegic.value.DoubleValue
-2.167

@<SCITEGIC>MOL_PROPERTY
VdW12
SciTegic.value.DoubleValue
3.060

@<SCITEGIC>MOL_PROPERTY
Bond
SciTegic.value.DoubleValue
0.059

@<SCITEGIC>MOL_PROPERTY
Angle
SciTegic.value.DoubleValue
0.918

@<SCITEGIC>MOL_PROPERTY
Pdih
SciTegic.value.DoubleValue
5.862

@<SCITEGIC>MOL_PROPERTY
Idih
SciTegic.value.DoubleValue
0.000

@<SCITEGIC>MOL_PROPERTY
Tether
SciTegic.value.DoubleValue
0.000

@<TRIPOS>MOLECULE
guest-s16_confgen4.mol2 : confsearch ligand conformer 70
          13          13           1
SMALL
USER_CHARGES
 
@<TRIPOS>ATOM
       1    C1      18.800710   19.153651   21.548974 C.3        1 MOL1        -0.1693
       2    H1      18.150898   18.743551   20.766711 H          1 MOL1         0.0829
       3    H2      18.444329   20.159952   21.803231 H          1 MOL1         0.0829
       4    C2      20.339936   19.047378   21.285100 C.3        1 MOL1        -0.1768
       5    H3      20.638162   18.178866   20.685298 H          1 MOL1         0.0829
       6    H4      20.821685   19.939486   20.869446 H          1 MOL1         0.0829
       7    C3      20.496586   18.842216   22.823724 C.3        1 MOL1         0.1211
       8    H5      21.292745   18.146075   23.116989 H          1 MOL1         0.0786
       9    C4      19.066828   18.219671   22.776573 C.3        1 MOL1        -0.1768
      10    H6      19.052905   17.148218   22.542457 H          1 MOL1         0.0829
      11    H7      18.440443   18.391330   23.659117 H          1 MOL1         0.0829
      12    O1      20.598360   20.034351   23.572178 O.3        1 MOL1        -0.5515
      13    H8      19.868270   20.613227   23.270210 H          1 MOL1         0.3773
@<TRIPOS>BOND
    1     1     2    1
    2     1     3    1
    3     1     4    1
    4     4     5    1
    5     4     6    1
    6     4     7    1
    7     7     8    1
    8     1     9    1
    9     7     9    1
   10     9    10    1
   11     9    11    1
   12     7    12    1
   13    12    13    1
@<TRIPOS>SUBSTRUCTURE
       1 MOL1            1 RESIDUE      1      MOL     
@<SCITEGIC>MOL_PROPERTY
VConf Rank
SciTegic.value.IntegerValue
70

@<SCITEGIC>MOL_PROPERTY
Conf_Id
SciTegic.value.IntegerValue
44

@<SCITEGIC>MOL_PROPERTY
Delta U+W
SciTegic.value.DoubleValue
0.823

@<SCITEGIC>MOL_PROPERTY
U+W
SciTegic.value.DoubleValue
-2.308

@<SCITEGIC>MOL_PROPERTY
Grad RMS
SciTegic.value.DoubleValue
0.000000

@<SCITEGIC>MOL_PROPERTY
U
SciTegic.value.DoubleValue
0.039

@<SCITEGIC>MOL_PROPERTY
W
SciTegic.value.DoubleValue
-2.348

@<SCITEGIC>MOL_PROPERTY
W(PB)
SciTegic.value.DoubleValue
-3.918

@<SCITEGIC>MOL_PROPERTY
W(SA)
SciTegic.value.DoubleValue
1.571

@<SCITEGIC>MOL_PROPERTY
Valence
SciTegic.value.DoubleValue
7.320

@<SCITEGIC>MOL_PROPERTY
Coulomb
SciTegic.value.DoubleValue
-8.530

@<SCITEGIC>MOL_PROPERTY
VdW
SciTegic.value.DoubleValue
1.249

@<SCITEGIC>MOL_PROPERTY
VdW6
SciTegic.value.DoubleValue
-2.615

@<SCITEGIC>MOL_PROPERTY
VdW12
SciTegic.value.DoubleValue
3.864

@<SCITEGIC>MOL_PROPERTY
Bond
SciTegic.value.DoubleValue
0.056

@<SCITEGIC>MOL_PROPERTY
Angle
SciTegic.value.DoubleValue
0.694

@<SCITEGIC>MOL_PROPERTY
Pdih
SciTegic.value.DoubleValue
6.570

@<SCITEGIC>MOL_PROPERTY
Idih
SciTegic.value.DoubleValue
0.000

@<SCITEGIC>MOL_PROPERTY
Tether
SciTegic.value.DoubleValue
0.000

@<TRIPOS>MOLECULE
guest-s16_confgen4.mol2 : confsearch ligand conformer 71
          13          13           1
SMALL
USER_CHARGES
 
@<TRIPOS>ATOM
       1    C1      20.982570   19.138444   22.290885 C.3        1 MOL1        -0.1693
       2    H1      21.400510   19.770720   21.496443 H          1 MOL1         0.0829
       3    H2      21.801327   18.801543   22.937779 H          1 MOL1         0.0829
       4    C2      19.998286   18.028577   21.794210 C.3        1 MOL1        -0.1768
       5    H3      20.206420   17.604541   20.805861 H          1 MOL1         0.0829
       6    H4      19.835517   17.207487   22.503367 H          1 MOL1         0.0829
       7    C3      18.910876   19.144150   21.837615 C.3        1 MOL1         0.1211
       8    H5      18.892161   19.779413   20.941427 H          1 MOL1         0.0786
       9    C4      19.735234   19.740268   23.018408 C.3        1 MOL1        -0.1768
      10    H6      19.712699   20.831368   23.114132 H          1 MOL1         0.0829
      11    H7      19.516850   19.295222   23.997202 H          1 MOL1         0.0829
      12    O1      17.613017   18.707555   22.168508 O.3        1 MOL1        -0.5515
      13    H8      17.067262   19.508617   22.322307 H          1 MOL1         0.3773
@<TRIPOS>BOND
    1     1     2    1
    2     1     3    1
    3     1     4    1
    4     4     5    1
    5     4     6    1
    6     4     7    1
    7     7     8    1
    8     1     9    1
    9     7     9    1
   10     9    10    1
   11     9    11    1
   12     7    12    1
   13    12    13    1
@<TRIPOS>SUBSTRUCTURE
       1 MOL1            1 RESIDUE      1      MOL     
@<SCITEGIC>MOL_PROPERTY
VConf Rank
SciTegic.value.IntegerValue
71

@<SCITEGIC>MOL_PROPERTY
Conf_Id
SciTegic.value.IntegerValue
22

@<SCITEGIC>MOL_PROPERTY
Delta U+W
SciTegic.value.DoubleValue
0.000

@<SCITEGIC>MOL_PROPERTY
U+W
SciTegic.value.DoubleValue
-3.131

@<SCITEGIC>MOL_PROPERTY
Grad RMS
SciTegic.value.DoubleValue
0.000000

@<SCITEGIC>MOL_PROPERTY
U
SciTegic.value.DoubleValue
-0.154

@<SCITEGIC>MOL_PROPERTY
W
SciTegic.value.DoubleValue
-2.978

@<SCITEGIC>MOL_PROPERTY
W(PB)
SciTegic.value.DoubleValue
-4.579

@<SCITEGIC>MOL_PROPERTY
W(SA)
SciTegic.value.DoubleValue
1.601

@<SCITEGIC>MOL_PROPERTY
Valence
SciTegic.value.DoubleValue
6.333

@<SCITEGIC>MOL_PROPERTY
Coulomb
SciTegic.value.DoubleValue
-7.439

@<SCITEGIC>MOL_PROPERTY
VdW
SciTegic.value.DoubleValue
0.952

@<SCITEGIC>MOL_PROPERTY
VdW6
SciTegic.value.DoubleValue
-2.120

@<SCITEGIC>MOL_PROPERTY
VdW12
SciTegic.value.DoubleValue
3.072

@<SCITEGIC>MOL_PROPERTY
Bond
SciTegic.value.DoubleValue
0.065

@<SCITEGIC>MOL_PROPERTY
Angle
SciTegic.value.DoubleValue
0.931

@<SCITEGIC>MOL_PROPERTY
Pdih
SciTegic.value.DoubleValue
5.338

@<SCITEGIC>MOL_PROPERTY
Idih
SciTegic.value.DoubleValue
0.000

@<SCITEGIC>MOL_PROPERTY
Tether
SciTegic.value.DoubleValue
0.000

@<TRIPOS>MOLECULE
guest-s16_confgen4.mol2 : confsearch ligand conformer 72
          13          13           1
SMALL
USER_CHARGES
 
@<TRIPOS>ATOM
       1    C1      20.549204   18.456768   21.424129 C.3        1 MOL1        -0.1693
       2    H1      21.542010   18.898359   21.581987 H          1 MOL1         0.0829
       3    H2      20.602477   17.770997   20.570187 H          1 MOL1         0.0829
       4    C2      19.370511   19.485222   21.406929 C.3        1 MOL1        -0.1768
       5    H3      18.449744   19.118899   20.935984 H          1 MOL1         0.0829
       6    H4      19.602051   20.477373   21.004191 H          1 MOL1         0.0829
       7    C3      19.398082   19.358495   22.960111 C.3        1 MOL1         0.1211
       8    H5      20.152819   19.992129   23.445849 H          1 MOL1         0.0786
       9    C4      19.870545   17.893525   22.716214 C.3        1 MOL1        -0.1768
      10    H6      19.058568   17.178450   22.534704 H          1 MOL1         0.0829
      11    H7      20.543463   17.477709   23.474001 H          1 MOL1         0.0829
      12    O1      18.148894   19.490130   23.597882 O.3        1 MOL1        -0.5515
      13    H8      17.893731   20.436324   23.544843 H          1 MOL1         0.3773
@<TRIPOS>BOND
    1     1     2    1
    2     1     3    1
    3     1     4    1
    4     4     5    1
    5     4     6    1
    6     4     7    1
    7     7     8    1
    8     1     9    1
    9     7     9    1
   10     9    10    1
   11     9    11    1
   12     7    12    1
   13    12    13    1
@<TRIPOS>SUBSTRUCTURE
       1 MOL1            1 RESIDUE      1      MOL     
@<SCITEGIC>MOL_PROPERTY
VConf Rank
SciTegic.value.IntegerValue
72

@<SCITEGIC>MOL_PROPERTY
Conf_Id
SciTegic.value.IntegerValue
19

@<SCITEGIC>MOL_PROPERTY
Delta U+W
SciTegic.value.DoubleValue
-0.011

@<SCITEGIC>MOL_PROPERTY
U+W
SciTegic.value.DoubleValue
-3.142

@<SCITEGIC>MOL_PROPERTY
Grad RMS
SciTegic.value.DoubleValue
0.000000

@<SCITEGIC>MOL_PROPERTY
U
SciTegic.value.DoubleValue
-0.154

@<SCITEGIC>MOL_PROPERTY
W
SciTegic.value.DoubleValue
-2.989

@<SCITEGIC>MOL_PROPERTY
W(PB)
SciTegic.value.DoubleValue
-4.588

@<SCITEGIC>MOL_PROPERTY
W(SA)
SciTegic.value.DoubleValue
1.599

@<SCITEGIC>MOL_PROPERTY
Valence
SciTegic.value.DoubleValue
6.334

@<SCITEGIC>MOL_PROPERTY
Coulomb
SciTegic.value.DoubleValue
-7.439

@<SCITEGIC>MOL_PROPERTY
VdW
SciTegic.value.DoubleValue
0.951

@<SCITEGIC>MOL_PROPERTY
VdW6
SciTegic.value.DoubleValue
-2.120

@<SCITEGIC>MOL_PROPERTY
VdW12
SciTegic.value.DoubleValue
3.072

@<SCITEGIC>MOL_PROPERTY
Bond
SciTegic.value.DoubleValue
0.065

@<SCITEGIC>MOL_PROPERTY
Angle
SciTegic.value.DoubleValue
0.930

@<SCITEGIC>MOL_PROPERTY
Pdih
SciTegic.value.DoubleValue
5.339

@<SCITEGIC>MOL_PROPERTY
Idih
SciTegic.value.DoubleValue
0.000

@<SCITEGIC>MOL_PROPERTY
Tether
SciTegic.value.DoubleValue
0.000

@<TRIPOS>MOLECULE
guest-s16_confgen4.mol2 : confsearch ligand conformer 73
          13          13           1
SMALL
USER_CHARGES
 
@<TRIPOS>ATOM
       1    C1      19.936310   19.187227   23.466672 C.3        1 MOL1        -0.1693
       2    H1      19.654248   18.951542   24.499566 H          1 MOL1         0.0829
       3    H2      20.905423   19.702915   23.476334 H          1 MOL1         0.0829
       4    C2      18.838794   19.883387   22.595012 C.3        1 MOL1        -0.1768
       5    H3      17.809396   19.607781   22.854136 H          1 MOL1         0.0829
       6    H4      18.901919   20.974842   22.523354 H          1 MOL1         0.0829
       7    C3      19.428698   19.089457   21.387900 C.3        1 MOL1         0.1211
       8    H5      18.685034   18.756842   20.652276 H          1 MOL1         0.0786
       9    C4      19.835799   18.010684   22.439858 C.3        1 MOL1        -0.1768
      10    H6      20.766532   17.469529   22.236784 H          1 MOL1         0.0829
      11    H7      19.048037   17.280546   22.661900 H          1 MOL1         0.0829
      12    O1      20.509439   19.721342   20.731497 O.3        1 MOL1        -0.5515
      13    H8      20.902057   19.063603   20.118811 H          1 MOL1         0.3773
@<TRIPOS>BOND
    1     1     2    1
    2     1     3    1
    3     1     4    1
    4     4     5    1
    5     4     6    1
    6     4     7    1
    7     7     8    1
    8     1     9    1
    9     7     9    1
   10     9    10    1
   11     9    11    1
   12     7    12    1
   13    12    13    1
@<TRIPOS>SUBSTRUCTURE
       1 MOL1            1 RESIDUE      1      MOL     
@<SCITEGIC>MOL_PROPERTY
VConf Rank
SciTegic.value.IntegerValue
73

@<SCITEGIC>MOL_PROPERTY
Conf_Id
SciTegic.value.IntegerValue
20

@<SCITEGIC>MOL_PROPERTY
Delta U+W
SciTegic.value.DoubleValue
1.030

@<SCITEGIC>MOL_PROPERTY
U+W
SciTegic.value.DoubleValue
-2.101

@<SCITEGIC>MOL_PROPERTY
Grad RMS
SciTegic.value.DoubleValue
0.000000

@<SCITEGIC>MOL_PROPERTY
U
SciTegic.value.DoubleValue
0.841

@<SCITEGIC>MOL_PROPERTY
W
SciTegic.value.DoubleValue
-2.942

@<SCITEGIC>MOL_PROPERTY
W(PB)
SciTegic.value.DoubleValue
-4.530

@<SCITEGIC>MOL_PROPERTY
W(SA)
SciTegic.value.DoubleValue
1.587

@<SCITEGIC>MOL_PROPERTY
Valence
SciTegic.value.DoubleValue
6.736

@<SCITEGIC>MOL_PROPERTY
Coulomb
SciTegic.value.DoubleValue
-7.246

@<SCITEGIC>MOL_PROPERTY
VdW
SciTegic.value.DoubleValue
1.352

@<SCITEGIC>MOL_PROPERTY
VdW6
SciTegic.value.DoubleValue
-2.500

@<SCITEGIC>MOL_PROPERTY
VdW12
SciTegic.value.DoubleValue
3.851

@<SCITEGIC>MOL_PROPERTY
Bond
SciTegic.value.DoubleValue
0.063

@<SCITEGIC>MOL_PROPERTY
Angle
SciTegic.value.DoubleValue
0.687

@<SCITEGIC>MOL_PROPERTY
Pdih
SciTegic.value.DoubleValue
5.986

@<SCITEGIC>MOL_PROPERTY
Idih
SciTegic.value.DoubleValue
0.000

@<SCITEGIC>MOL_PROPERTY
Tether
SciTegic.value.DoubleValue
0.000

@<TRIPOS>MOLECULE
guest-s16_confgen4.mol2 : confsearch ligand conformer 74
          13          13           1
SMALL
USER_CHARGES
 
@<TRIPOS>ATOM
       1    C1      20.353703   18.786784   21.095575 C.3        1 MOL1        -0.1693
       2    H1      21.432730   18.987155   21.060630 H          1 MOL1         0.0829
       3    H2      20.024272   18.469241   20.099049 H          1 MOL1         0.0829
       4    C2      19.501865   19.908836   21.775817 C.3        1 MOL1        -0.1768
       5    H3      19.870232   20.933602   21.655599 H          1 MOL1         0.0829
       6    H4      18.433865   19.887199   21.526224 H          1 MOL1         0.0829
       7    C3      19.875084   19.208554   23.117259 C.3        1 MOL1         0.1211
       8    H5      20.858152   19.499599   23.511675 H          1 MOL1         0.0786
       9    C4      19.893855   17.887595   22.290295 C.3        1 MOL1        -0.1768
      10    H6      18.913470   17.414186   22.155694 H          1 MOL1         0.0829
      11    H7      20.608407   17.127298   22.624442 H          1 MOL1         0.0829
      12    O1      18.896349   19.275732   24.126904 O.3        1 MOL1        -0.5515
      13    H8      18.046618   19.007055   23.718872 H          1 MOL1         0.3773
@<TRIPOS>BOND
    1     1     2    1
    2     1     3    1
    3     1     4    1
    4     4     5    1
    5     4     6    1
    6     4     7    1
    7     7     8    1
    8     1     9    1
    9     7     9    1
   10     9    10    1
   11     9    11    1
   12     7    12    1
   13    12    13    1
@<TRIPOS>SUBSTRUCTURE
       1 MOL1            1 RESIDUE      1      MOL     
@<SCITEGIC>MOL_PROPERTY
VConf Rank
SciTegic.value.IntegerValue
74

@<SCITEGIC>MOL_PROPERTY
Conf_Id
SciTegic.value.IntegerValue
24

@<SCITEGIC>MOL_PROPERTY
Delta U+W
SciTegic.value.DoubleValue
0.356

@<SCITEGIC>MOL_PROPERTY
U+W
SciTegic.value.DoubleValue
-2.775

@<SCITEGIC>MOL_PROPERTY
Grad RMS
SciTegic.value.DoubleValue
0.000000

@<SCITEGIC>MOL_PROPERTY
U
SciTegic.value.DoubleValue
-0.184

@<SCITEGIC>MOL_PROPERTY
W
SciTegic.value.DoubleValue
-2.591

@<SCITEGIC>MOL_PROPERTY
W(PB)
SciTegic.value.DoubleValue
-4.184

@<SCITEGIC>MOL_PROPERTY
W(SA)
SciTegic.value.DoubleValue
1.593

@<SCITEGIC>MOL_PROPERTY
Valence
SciTegic.value.DoubleValue
6.840

@<SCITEGIC>MOL_PROPERTY
Coulomb
SciTegic.value.DoubleValue
-7.916

@<SCITEGIC>MOL_PROPERTY
VdW
SciTegic.value.DoubleValue
0.893

@<SCITEGIC>MOL_PROPERTY
VdW6
SciTegic.value.DoubleValue
-2.167

@<SCITEGIC>MOL_PROPERTY
VdW12
SciTegic.value.DoubleValue
3.060

@<SCITEGIC>MOL_PROPERTY
Bond
SciTegic.value.DoubleValue
0.059

@<SCITEGIC>MOL_PROPERTY
Angle
SciTegic.value.DoubleValue
0.918

@<SCITEGIC>MOL_PROPERTY
Pdih
SciTegic.value.DoubleValue
5.862

@<SCITEGIC>MOL_PROPERTY
Idih
SciTegic.value.DoubleValue
0.000

@<SCITEGIC>MOL_PROPERTY
Tether
SciTegic.value.DoubleValue
0.000

@<TRIPOS>MOLECULE
guest-s16_confgen4.mol2 : confsearch ligand conformer 75
          13          13           1
SMALL
USER_CHARGES
 
@<TRIPOS>ATOM
       1    C1      19.666423   17.886581   21.908947 C.3        1 MOL1        -0.1693
       2    H1      19.245221   16.896373   22.119779 H          1 MOL1         0.0829
       3    H2      20.345619   17.798854   21.051455 H          1 MOL1         0.0829
       4    C2      20.254547   18.655884   23.138753 C.3        1 MOL1        -0.1768
       5    H3      19.761564   18.430781   24.092331 H          1 MOL1         0.0829
       6    H4      21.338506   18.582418   23.281384 H          1 MOL1         0.0829
       7    C3      19.744218   19.959822   22.450784 C.3        1 MOL1         0.1211
       8    H5      19.374191   20.729765   23.139810 H          1 MOL1         0.0786
       9    C4      18.637184   19.062243   21.816103 C.3        1 MOL1        -0.1768
      10    H6      17.747648   18.936773   22.445386 H          1 MOL1         0.0829
      11    H7      18.313366   19.342477   20.807480 H          1 MOL1         0.0829
      12    O1      20.644015   20.532035   21.526303 O.3        1 MOL1        -0.5515
      13    H8      20.939357   19.803967   20.941492 H          1 MOL1         0.3773
@<TRIPOS>BOND
    1     1     2    1
    2     1     3    1
    3     1     4    1
    4     4     5    1
    5     4     6    1
    6     4     7    1
    7     7     8    1
    8     1     9    1
    9     7     9    1
   10     9    10    1
   11     9    11    1
   12     7    12    1
   13    12    13    1
@<TRIPOS>SUBSTRUCTURE
       1 MOL1            1 RESIDUE      1      MOL     
@<SCITEGIC>MOL_PROPERTY
VConf Rank
SciTegic.value.IntegerValue
75

@<SCITEGIC>MOL_PROPERTY
Conf_Id
SciTegic.value.IntegerValue
44

@<SCITEGIC>MOL_PROPERTY
Delta U+W
SciTegic.value.DoubleValue
0.823

@<SCITEGIC>MOL_PROPERTY
U+W
SciTegic.value.DoubleValue
-2.308

@<SCITEGIC>MOL_PROPERTY
Grad RMS
SciTegic.value.DoubleValue
0.000000

@<SCITEGIC>MOL_PROPERTY
U
SciTegic.value.DoubleValue
0.039

@<SCITEGIC>MOL_PROPERTY
W
SciTegic.value.DoubleValue
-2.348

@<SCITEGIC>MOL_PROPERTY
W(PB)
SciTegic.value.DoubleValue
-3.918

@<SCITEGIC>MOL_PROPERTY
W(SA)
SciTegic.value.DoubleValue
1.571

@<SCITEGIC>MOL_PROPERTY
Valence
SciTegic.value.DoubleValue
7.320

@<SCITEGIC>MOL_PROPERTY
Coulomb
SciTegic.value.DoubleValue
-8.530

@<SCITEGIC>MOL_PROPERTY
VdW
SciTegic.value.DoubleValue
1.249

@<SCITEGIC>MOL_PROPERTY
VdW6
SciTegic.value.DoubleValue
-2.615

@<SCITEGIC>MOL_PROPERTY
VdW12
SciTegic.value.DoubleValue
3.864

@<SCITEGIC>MOL_PROPERTY
Bond
SciTegic.value.DoubleValue
0.056

@<SCITEGIC>MOL_PROPERTY
Angle
SciTegic.value.DoubleValue
0.694

@<SCITEGIC>MOL_PROPERTY
Pdih
SciTegic.value.DoubleValue
6.570

@<SCITEGIC>MOL_PROPERTY
Idih
SciTegic.value.DoubleValue
0.000

@<SCITEGIC>MOL_PROPERTY
Tether
SciTegic.value.DoubleValue
0.000

@<TRIPOS>MOLECULE
guest-s16_confgen4.mol2 : confsearch ligand conformer 76
          13          13           1
SMALL
USER_CHARGES
 
@<TRIPOS>ATOM
       1    C1      20.761855   18.772862   21.562777 C.3        1 MOL1        -0.1693
       2    H1      21.264127   17.851862   21.886916 H          1 MOL1         0.0829
       3    H2      21.305575   19.185025   20.704390 H          1 MOL1         0.0829
       4    C2      20.432465   19.778801   22.714688 C.3        1 MOL1        -0.1768
       5    H3      21.137670   19.802401   23.552596 H          1 MOL1         0.0829
       6    H4      20.240637   20.807683   22.385766 H          1 MOL1         0.0829
       7    C3      19.149698   18.920972   22.932600 C.3        1 MOL1         0.1211
       8    H5      19.314182   18.027407   23.550295 H          1 MOL1         0.0786
       9    C4      19.210929   18.649838   21.399000 C.3        1 MOL1        -0.1768
      10    H6      18.836570   17.673946   21.070881 H          1 MOL1         0.0829
      11    H7      18.752343   19.430609   20.779411 H          1 MOL1         0.0829
      12    O1      18.017006   19.632746   23.374113 O.3        1 MOL1        -0.5515
      13    H8      17.249670   19.023754   23.314709 H          1 MOL1         0.3773
@<TRIPOS>BOND
    1     1     2    1
    2     1     3    1
    3     1     4    1
    4     4     5    1
    5     4     6    1
    6     4     7    1
    7     7     8    1
    8     1     9    1
    9     7     9    1
   10     9    10    1
   11     9    11    1
   12     7    12    1
   13    12    13    1
@<TRIPOS>SUBSTRUCTURE
       1 MOL1            1 RESIDUE      1      MOL     
@<SCITEGIC>MOL_PROPERTY
VConf Rank
SciTegic.value.IntegerValue
76

@<SCITEGIC>MOL_PROPERTY
Conf_Id
SciTegic.value.IntegerValue
22

@<SCITEGIC>MOL_PROPERTY
Delta U+W
SciTegic.value.DoubleValue
0.000

@<SCITEGIC>MOL_PROPERTY
U+W
SciTegic.value.DoubleValue
-3.131

@<SCITEGIC>MOL_PROPERTY
Grad RMS
SciTegic.value.DoubleValue
0.000000

@<SCITEGIC>MOL_PROPERTY
U
SciTegic.value.DoubleValue
-0.154

@<SCITEGIC>MOL_PROPERTY
W
SciTegic.value.DoubleValue
-2.978

@<SCITEGIC>MOL_PROPERTY
W(PB)
SciTegic.value.DoubleValue
-4.579

@<SCITEGIC>MOL_PROPERTY
W(SA)
SciTegic.value.DoubleValue
1.601

@<SCITEGIC>MOL_PROPERTY
Valence
SciTegic.value.DoubleValue
6.333

@<SCITEGIC>MOL_PROPERTY
Coulomb
SciTegic.value.DoubleValue
-7.439

@<SCITEGIC>MOL_PROPERTY
VdW
SciTegic.value.DoubleValue
0.952

@<SCITEGIC>MOL_PROPERTY
VdW6
SciTegic.value.DoubleValue
-2.120

@<SCITEGIC>MOL_PROPERTY
VdW12
SciTegic.value.DoubleValue
3.072

@<SCITEGIC>MOL_PROPERTY
Bond
SciTegic.value.DoubleValue
0.065

@<SCITEGIC>MOL_PROPERTY
Angle
SciTegic.value.DoubleValue
0.931

@<SCITEGIC>MOL_PROPERTY
Pdih
SciTegic.value.DoubleValue
5.338

@<SCITEGIC>MOL_PROPERTY
Idih
SciTegic.value.DoubleValue
0.000

@<SCITEGIC>MOL_PROPERTY
Tether
SciTegic.value.DoubleValue
0.000

@<TRIPOS>MOLECULE
guest-s16_confgen4.mol2 : confsearch ligand conformer 77
          13          13           1
SMALL
USER_CHARGES
 
@<TRIPOS>ATOM
       1    C1      20.521722   18.593775   23.159639 C.3        1 MOL1        -0.1693
       2    H1      21.442548   18.170307   22.737333 H          1 MOL1         0.0829
       3    H2      20.594477   18.569701   24.253469 H          1 MOL1         0.0829
       4    C2      19.199039   18.026554   22.546369 C.3        1 MOL1        -0.1768
       5    H3      18.304443   18.183774   23.161813 H          1 MOL1         0.0829
       6    H4      19.226622   16.979542   22.225157 H          1 MOL1         0.0829
       7    C3      19.407597   19.087778   21.424094 C.3        1 MOL1         0.1211
       8    H5      20.098182   18.768654   20.631431 H          1 MOL1         0.0786
       9    C4      20.079277   19.955981   22.530400 C.3        1 MOL1        -0.1768
      10    H6      19.377056   20.537697   23.140380 H          1 MOL1         0.0829
      11    H7      20.884817   20.617339   22.193248 H          1 MOL1         0.0829
      12    O1      18.226467   19.622518   20.873155 O.3        1 MOL1        -0.5515
      13    H8      17.819852   18.920759   20.320523 H          1 MOL1         0.3773
@<TRIPOS>BOND
    1     1     2    1
    2     1     3    1
    3     1     4    1
    4     4     5    1
    5     4     6    1
    6     4     7    1
    7     7     8    1
    8     1     9    1
    9     7     9    1
   10     9    10    1
   11     9    11    1
   12     7    12    1
   13    12    13    1
@<TRIPOS>SUBSTRUCTURE
       1 MOL1            1 RESIDUE      1      MOL     
@<SCITEGIC>MOL_PROPERTY
VConf Rank
SciTegic.value.IntegerValue
77

@<SCITEGIC>MOL_PROPERTY
Conf_Id
SciTegic.value.IntegerValue
19

@<SCITEGIC>MOL_PROPERTY
Delta U+W
SciTegic.value.DoubleValue
-0.011

@<SCITEGIC>MOL_PROPERTY
U+W
SciTegic.value.DoubleValue
-3.142

@<SCITEGIC>MOL_PROPERTY
Grad RMS
SciTegic.value.DoubleValue
0.000000

@<SCITEGIC>MOL_PROPERTY
U
SciTegic.value.DoubleValue
-0.154

@<SCITEGIC>MOL_PROPERTY
W
SciTegic.value.DoubleValue
-2.989

@<SCITEGIC>MOL_PROPERTY
W(PB)
SciTegic.value.DoubleValue
-4.588

@<SCITEGIC>MOL_PROPERTY
W(SA)
SciTegic.value.DoubleValue
1.599

@<SCITEGIC>MOL_PROPERTY
Valence
SciTegic.value.DoubleValue
6.334

@<SCITEGIC>MOL_PROPERTY
Coulomb
SciTegic.value.DoubleValue
-7.439

@<SCITEGIC>MOL_PROPERTY
VdW
SciTegic.value.DoubleValue
0.951

@<SCITEGIC>MOL_PROPERTY
VdW6
SciTegic.value.DoubleValue
-2.120

@<SCITEGIC>MOL_PROPERTY
VdW12
SciTegic.value.DoubleValue
3.072

@<SCITEGIC>MOL_PROPERTY
Bond
SciTegic.value.DoubleValue
0.065

@<SCITEGIC>MOL_PROPERTY
Angle
SciTegic.value.DoubleValue
0.930

@<SCITEGIC>MOL_PROPERTY
Pdih
SciTegic.value.DoubleValue
5.339

@<SCITEGIC>MOL_PROPERTY
Idih
SciTegic.value.DoubleValue
0.000

@<SCITEGIC>MOL_PROPERTY
Tether
SciTegic.value.DoubleValue
0.000

@<TRIPOS>MOLECULE
guest-s16_confgen4.mol2 : confsearch ligand conformer 78
          13          13           1
SMALL
USER_CHARGES
 
@<TRIPOS>ATOM
       1    C1      18.538748   18.646471   22.674631 C.3        1 MOL1        -0.1693
       2    H1      17.797991   17.841754   22.599226 H          1 MOL1         0.0829
       3    H2      18.212272   19.352745   23.449097 H          1 MOL1         0.0829
       4    C2      18.969500   19.314297   21.326509 C.3        1 MOL1        -0.1768
       5    H3      18.944617   18.644400   20.458531 H          1 MOL1         0.0829
       6    H4      18.455368   20.245823   21.065127 H          1 MOL1         0.0829
       7    C3      20.382657   19.476946   21.968352 C.3        1 MOL1         0.1211
       8    H5      21.219290   19.358590   21.267745 H          1 MOL1         0.0786
       9    C4      20.033316   18.197868   22.791769 C.3        1 MOL1        -0.1768
      10    H6      20.443420   18.153645   23.806762 H          1 MOL1         0.0829
      11    H7      20.266166   17.256595   22.279167 H          1 MOL1         0.0829
      12    O1      20.556096   20.651866   22.734920 O.3        1 MOL1        -0.5515
      13    H8      21.402245   20.558696   23.222266 H          1 MOL1         0.3773
@<TRIPOS>BOND
    1     1     2    1
    2     1     3    1
    3     1     4    1
    4     4     5    1
    5     4     6    1
    6     4     7    1
    7     7     8    1
    8     1     9    1
    9     7     9    1
   10     9    10    1
   11     9    11    1
   12     7    12    1
   13    12    13    1
@<TRIPOS>SUBSTRUCTURE
       1 MOL1            1 RESIDUE      1      MOL     
@<SCITEGIC>MOL_PROPERTY
VConf Rank
SciTegic.value.IntegerValue
78

@<SCITEGIC>MOL_PROPERTY
Conf_Id
SciTegic.value.IntegerValue
20

@<SCITEGIC>MOL_PROPERTY
Delta U+W
SciTegic.value.DoubleValue
1.030

@<SCITEGIC>MOL_PROPERTY
U+W
SciTegic.value.DoubleValue
-2.101

@<SCITEGIC>MOL_PROPERTY
Grad RMS
SciTegic.value.DoubleValue
0.000000

@<SCITEGIC>MOL_PROPERTY
U
SciTegic.value.DoubleValue
0.841

@<SCITEGIC>MOL_PROPERTY
W
SciTegic.value.DoubleValue
-2.942

@<SCITEGIC>MOL_PROPERTY
W(PB)
SciTegic.value.DoubleValue
-4.530

@<SCITEGIC>MOL_PROPERTY
W(SA)
SciTegic.value.DoubleValue
1.587

@<SCITEGIC>MOL_PROPERTY
Valence
SciTegic.value.DoubleValue
6.736

@<SCITEGIC>MOL_PROPERTY
Coulomb
SciTegic.value.DoubleValue
-7.246

@<SCITEGIC>MOL_PROPERTY
VdW
SciTegic.value.DoubleValue
1.352

@<SCITEGIC>MOL_PROPERTY
VdW6
SciTegic.value.DoubleValue
-2.500

@<SCITEGIC>MOL_PROPERTY
VdW12
SciTegic.value.DoubleValue
3.851

@<SCITEGIC>MOL_PROPERTY
Bond
SciTegic.value.DoubleValue
0.063

@<SCITEGIC>MOL_PROPERTY
Angle
SciTegic.value.DoubleValue
0.687

@<SCITEGIC>MOL_PROPERTY
Pdih
SciTegic.value.DoubleValue
5.986

@<SCITEGIC>MOL_PROPERTY
Idih
SciTegic.value.DoubleValue
0.000

@<SCITEGIC>MOL_PROPERTY
Tether
SciTegic.value.DoubleValue
0.000

@<TRIPOS>MOLECULE
guest-s16_confgen4.mol2 : confsearch ligand conformer 79
          13          13           1
SMALL
USER_CHARGES
 
@<TRIPOS>ATOM
       1    C1      19.838956   19.905423   21.359071 C.3        1 MOL1        -0.1693
       2    H1      20.463996   20.770359   21.617684 H          1 MOL1         0.0829
       3    H2      19.409945   20.068916   20.363259 H          1 MOL1         0.0829
       4    C2      18.835465   19.466385   22.476034 C.3        1 MOL1        -0.1768
       5    H3      18.436477   20.267614   23.107804 H          1 MOL1         0.0829
       6    H4      18.001107   18.847341   22.123871 H          1 MOL1         0.0829
       7    C3      20.036140   18.670128   23.070602 C.3        1 MOL1         0.1211
       8    H5      20.706398   19.277195   23.694235 H          1 MOL1         0.0786
       9    C4      20.515988   18.515129   21.595856 C.3        1 MOL1        -0.1768
      10    H6      20.057248   17.683468   21.046961 H          1 MOL1         0.0829
      11    H7      21.601157   18.476252   21.450295 H          1 MOL1         0.0829
      12    O1      19.700464   17.470440   23.726260 O.3        1 MOL1        -0.5515
      13    H8      19.105260   16.974190   23.126103 H          1 MOL1         0.3773
@<TRIPOS>BOND
    1     1     2    1
    2     1     3    1
    3     1     4    1
    4     4     5    1
    5     4     6    1
    6     4     7    1
    7     7     8    1
    8     1     9    1
    9     7     9    1
   10     9    10    1
   11     9    11    1
   12     7    12    1
   13    12    13    1
@<TRIPOS>SUBSTRUCTURE
       1 MOL1            1 RESIDUE      1      MOL     
@<SCITEGIC>MOL_PROPERTY
VConf Rank
SciTegic.value.IntegerValue
79

@<SCITEGIC>MOL_PROPERTY
Conf_Id
SciTegic.value.IntegerValue
24

@<SCITEGIC>MOL_PROPERTY
Delta U+W
SciTegic.value.DoubleValue
0.356

@<SCITEGIC>MOL_PROPERTY
U+W
SciTegic.value.DoubleValue
-2.775

@<SCITEGIC>MOL_PROPERTY
Grad RMS
SciTegic.value.DoubleValue
0.000000

@<SCITEGIC>MOL_PROPERTY
U
SciTegic.value.DoubleValue
-0.184

@<SCITEGIC>MOL_PROPERTY
W
SciTegic.value.DoubleValue
-2.591

@<SCITEGIC>MOL_PROPERTY
W(PB)
SciTegic.value.DoubleValue
-4.184

@<SCITEGIC>MOL_PROPERTY
W(SA)
SciTegic.value.DoubleValue
1.593

@<SCITEGIC>MOL_PROPERTY
Valence
SciTegic.value.DoubleValue
6.840

@<SCITEGIC>MOL_PROPERTY
Coulomb
SciTegic.value.DoubleValue
-7.916

@<SCITEGIC>MOL_PROPERTY
VdW
SciTegic.value.DoubleValue
0.893

@<SCITEGIC>MOL_PROPERTY
VdW6
SciTegic.value.DoubleValue
-2.167

@<SCITEGIC>MOL_PROPERTY
VdW12
SciTegic.value.DoubleValue
3.060

@<SCITEGIC>MOL_PROPERTY
Bond
SciTegic.value.DoubleValue
0.059

@<SCITEGIC>MOL_PROPERTY
Angle
SciTegic.value.DoubleValue
0.918

@<SCITEGIC>MOL_PROPERTY
Pdih
SciTegic.value.DoubleValue
5.862

@<SCITEGIC>MOL_PROPERTY
Idih
SciTegic.value.DoubleValue
0.000

@<SCITEGIC>MOL_PROPERTY
Tether
SciTegic.value.DoubleValue
0.000

@<TRIPOS>MOLECULE
guest-s16_confgen4.mol2 : confsearch ligand conformer 80
          13          13           1
SMALL
USER_CHARGES
 
@<TRIPOS>ATOM
       1    C1      20.576274   19.579949   22.548259 C.3        1 MOL1        -0.1693
       2    H1      21.583902   19.934080   22.299963 H          1 MOL1         0.0829
       3    H2      20.302519   19.976991   23.534014 H          1 MOL1         0.0829
       4    C2      20.325288   18.046013   22.363367 C.3        1 MOL1        -0.1768
       5    H3      20.918418   17.582511   21.565635 H          1 MOL1         0.0829
       6    H4      20.413003   17.429849   23.265230 H          1 MOL1         0.0829
       7    C3      18.873958   18.428128   21.937196 C.3        1 MOL1         0.1211
       8    H5      18.443878   17.796793   21.149202 H          1 MOL1         0.0786
       9    C4      19.490739   19.770966   21.436836 C.3        1 MOL1        -0.1768
      10    H6      19.879251   19.730398   20.411932 H          1 MOL1         0.0829
      11    H7      18.852053   20.656227   21.532231 H          1 MOL1         0.0829
      12    O1      17.959117   18.558465   23.003876 O.3        1 MOL1        -0.5515
      13    H8      18.393458   19.127600   23.672267 H          1 MOL1         0.3773
@<TRIPOS>BOND
    1     1     2    1
    2     1     3    1
    3     1     4    1
    4     4     5    1
    5     4     6    1
    6     4     7    1
    7     7     8    1
    8     1     9    1
    9     7     9    1
   10     9    10    1
   11     9    11    1
   12     7    12    1
   13    12    13    1
@<TRIPOS>SUBSTRUCTURE
       1 MOL1            1 RESIDUE      1      MOL     
@<SCITEGIC>MOL_PROPERTY
VConf Rank
SciTegic.value.IntegerValue
80

@<SCITEGIC>MOL_PROPERTY
Conf_Id
SciTegic.value.IntegerValue
44

@<SCITEGIC>MOL_PROPERTY
Delta U+W
SciTegic.value.DoubleValue
0.823

@<SCITEGIC>MOL_PROPERTY
U+W
SciTegic.value.DoubleValue
-2.308

@<SCITEGIC>MOL_PROPERTY
Grad RMS
SciTegic.value.DoubleValue
0.000000

@<SCITEGIC>MOL_PROPERTY
U
SciTegic.value.DoubleValue
0.039

@<SCITEGIC>MOL_PROPERTY
W
SciTegic.value.DoubleValue
-2.348

@<SCITEGIC>MOL_PROPERTY
W(PB)
SciTegic.value.DoubleValue
-3.918

@<SCITEGIC>MOL_PROPERTY
W(SA)
SciTegic.value.DoubleValue
1.571

@<SCITEGIC>MOL_PROPERTY
Valence
SciTegic.value.DoubleValue
7.320

@<SCITEGIC>MOL_PROPERTY
Coulomb
SciTegic.value.DoubleValue
-8.530

@<SCITEGIC>MOL_PROPERTY
VdW
SciTegic.value.DoubleValue
1.249

@<SCITEGIC>MOL_PROPERTY
VdW6
SciTegic.value.DoubleValue
-2.615

@<SCITEGIC>MOL_PROPERTY
VdW12
SciTegic.value.DoubleValue
3.864

@<SCITEGIC>MOL_PROPERTY
Bond
SciTegic.value.DoubleValue
0.056

@<SCITEGIC>MOL_PROPERTY
Angle
SciTegic.value.DoubleValue
0.694

@<SCITEGIC>MOL_PROPERTY
Pdih
SciTegic.value.DoubleValue
6.570

@<SCITEGIC>MOL_PROPERTY
Idih
SciTegic.value.DoubleValue
0.000

@<SCITEGIC>MOL_PROPERTY
Tether
SciTegic.value.DoubleValue
0.000

@<TRIPOS>MOLECULE
guest-s16_confgen4.mol2 : confsearch ligand conformer 81
          13          13           1
SMALL
USER_CHARGES
 
@<TRIPOS>ATOM
       1    C1      18.456629   19.168178   22.758515 C.3        1 MOL1        -0.1693
       2    H1      17.849835   18.257172   22.672168 H          1 MOL1         0.0829
       3    H2      17.879365   19.923166   23.305414 H          1 MOL1         0.0829
       4    C2      19.117382   19.643424   21.422531 C.3        1 MOL1        -0.1768
       5    H3      18.552296   19.443641   20.505621 H          1 MOL1         0.0829
       6    H4      19.440189   20.691922   21.416768 H          1 MOL1         0.0829
       7    C3      20.245712   18.622438   21.759141 C.3        1 MOL1         0.1211
       8    H5      20.014060   17.591389   21.458580 H          1 MOL1         0.0786
       9    C4      19.922648   18.933943   23.251719 C.3        1 MOL1        -0.1768
      10    H6      20.068471   18.106703   23.954984 H          1 MOL1         0.0829
      11    H7      20.420560   19.827266   23.649025 H          1 MOL1         0.0829
      12    O1      21.537125   18.989682   21.332607 O.3        1 MOL1        -0.5515
      13    H8      22.168455   18.358981   21.741070 H          1 MOL1         0.3773
@<TRIPOS>BOND
    1     1     2    1
    2     1     3    1
    3     1     4    1
    4     4     5    1
    5     4     6    1
    6     4     7    1
    7     7     8    1
    8     1     9    1
    9     7     9    1
   10     9    10    1
   11     9    11    1
   12     7    12    1
   13    12    13    1
@<TRIPOS>SUBSTRUCTURE
       1 MOL1            1 RESIDUE      1      MOL     
@<SCITEGIC>MOL_PROPERTY
VConf Rank
SciTegic.value.IntegerValue
81

@<SCITEGIC>MOL_PROPERTY
Conf_Id
SciTegic.value.IntegerValue
22

@<SCITEGIC>MOL_PROPERTY
Delta U+W
SciTegic.value.DoubleValue
0.000

@<SCITEGIC>MOL_PROPERTY
U+W
SciTegic.value.DoubleValue
-3.131

@<SCITEGIC>MOL_PROPERTY
Grad RMS
SciTegic.value.DoubleValue
0.000000

@<SCITEGIC>MOL_PROPERTY
U
SciTegic.value.DoubleValue
-0.154

@<SCITEGIC>MOL_PROPERTY
W
SciTegic.value.DoubleValue
-2.978

@<SCITEGIC>MOL_PROPERTY
W(PB)
SciTegic.value.DoubleValue
-4.579

@<SCITEGIC>MOL_PROPERTY
W(SA)
SciTegic.value.DoubleValue
1.601

@<SCITEGIC>MOL_PROPERTY
Valence
SciTegic.value.DoubleValue
6.333

@<SCITEGIC>MOL_PROPERTY
Coulomb
SciTegic.value.DoubleValue
-7.439

@<SCITEGIC>MOL_PROPERTY
VdW
SciTegic.value.DoubleValue
0.952

@<SCITEGIC>MOL_PROPERTY
VdW6
SciTegic.value.DoubleValue
-2.120

@<SCITEGIC>MOL_PROPERTY
VdW12
SciTegic.value.DoubleValue
3.072

@<SCITEGIC>MOL_PROPERTY
Bond
SciTegic.value.DoubleValue
0.065

@<SCITEGIC>MOL_PROPERTY
Angle
SciTegic.value.DoubleValue
0.931

@<SCITEGIC>MOL_PROPERTY
Pdih
SciTegic.value.DoubleValue
5.338

@<SCITEGIC>MOL_PROPERTY
Idih
SciTegic.value.DoubleValue
0.000

@<SCITEGIC>MOL_PROPERTY
Tether
SciTegic.value.DoubleValue
0.000

@<TRIPOS>MOLECULE
guest-s16_confgen4.mol2 : confsearch ligand conformer 82
          13          13           1
SMALL
USER_CHARGES
 
@<TRIPOS>ATOM
       1    C1      18.884729   18.240569   23.092894 C.3        1 MOL1        -0.1693
       2    H1      19.074553   17.159451   23.065746 H          1 MOL1         0.0829
       3    H2      18.071122   18.435792   23.801604 H          1 MOL1         0.0829
       4    C2      18.749924   18.917002   21.688760 C.3        1 MOL1        -0.1768
       5    H3      18.248049   19.892632   21.696557 H          1 MOL1         0.0829
       6    H4      18.310549   18.300671   20.896763 H          1 MOL1         0.0829
       7    C3      20.306691   18.989484   21.709210 C.3        1 MOL1         0.1211
       8    H5      20.800501   18.061378   21.390099 H          1 MOL1         0.0786
       9    C4      20.164323   19.125787   23.255171 C.3        1 MOL1        -0.1768
      10    H6      19.974863   20.147950   23.605703 H          1 MOL1         0.0829
      11    H7      20.978394   18.695075   23.848245 H          1 MOL1         0.0829
      12    O1      20.866827   20.104510   21.055363 O.3        1 MOL1        -0.5515
      13    H8      20.751576   19.964077   20.090895 H          1 MOL1         0.3773
@<TRIPOS>BOND
    1     1     2    1
    2     1     3    1
    3     1     4    1
    4     4     5    1
    5     4     6    1
    6     4     7    1
    7     7     8    1
    8     1     9    1
    9     7     9    1
   10     9    10    1
   11     9    11    1
   12     7    12    1
   13    12    13    1
@<TRIPOS>SUBSTRUCTURE
       1 MOL1            1 RESIDUE      1      MOL     
@<SCITEGIC>MOL_PROPERTY
VConf Rank
SciTegic.value.IntegerValue
82

@<SCITEGIC>MOL_PROPERTY
Conf_Id
SciTegic.value.IntegerValue
19

@<SCITEGIC>MOL_PROPERTY
Delta U+W
SciTegic.value.DoubleValue
-0.011

@<SCITEGIC>MOL_PROPERTY
U+W
SciTegic.value.DoubleValue
-3.142

@<SCITEGIC>MOL_PROPERTY
Grad RMS
SciTegic.value.DoubleValue
0.000000

@<SCITEGIC>MOL_PROPERTY
U
SciTegic.value.DoubleValue
-0.154

@<SCITEGIC>MOL_PROPERTY
W
SciTegic.value.DoubleValue
-2.989

@<SCITEGIC>MOL_PROPERTY
W(PB)
SciTegic.value.DoubleValue
-4.588

@<SCITEGIC>MOL_PROPERTY
W(SA)
SciTegic.value.DoubleValue
1.599

@<SCITEGIC>MOL_PROPERTY
Valence
SciTegic.value.DoubleValue
6.334

@<SCITEGIC>MOL_PROPERTY
Coulomb
SciTegic.value.DoubleValue
-7.439

@<SCITEGIC>MOL_PROPERTY
VdW
SciTegic.value.DoubleValue
0.951

@<SCITEGIC>MOL_PROPERTY
VdW6
SciTegic.value.DoubleValue
-2.120

@<SCITEGIC>MOL_PROPERTY
VdW12
SciTegic.value.DoubleValue
3.072

@<SCITEGIC>MOL_PROPERTY
Bond
SciTegic.value.DoubleValue
0.065

@<SCITEGIC>MOL_PROPERTY
Angle
SciTegic.value.DoubleValue
0.930

@<SCITEGIC>MOL_PROPERTY
Pdih
SciTegic.value.DoubleValue
5.339

@<SCITEGIC>MOL_PROPERTY
Idih
SciTegic.value.DoubleValue
0.000

@<SCITEGIC>MOL_PROPERTY
Tether
SciTegic.value.DoubleValue
0.000

@<TRIPOS>MOLECULE
guest-s16_confgen4.mol2 : confsearch ligand conformer 83
          13          13           1
SMALL
USER_CHARGES
 
@<TRIPOS>ATOM
       1    C1      20.241234   19.784338   21.497186 C.3        1 MOL1        -0.1693
       2    H1      21.230580   20.109004   21.154018 H          1 MOL1         0.0829
       3    H2      19.478350   20.248677   20.858748 H          1 MOL1         0.0829
       4    C2      19.968827   19.912656   23.032863 C.3        1 MOL1        -0.1768
       5    H3      20.857302   19.791389   23.664268 H          1 MOL1         0.0829
       6    H4      19.431699   20.812412   23.352745 H          1 MOL1         0.0829
       7    C3      19.104112   18.621307   22.891041 C.3        1 MOL1         0.1211
       8    H5      19.148820   17.944201   23.753793 H          1 MOL1         0.0786
       9    C4      20.058586   18.245494   21.714674 C.3        1 MOL1        -0.1768
      10    H6      19.603331   17.693782   20.884789 H          1 MOL1         0.0829
      11    H7      20.969454   17.719872   22.026144 H          1 MOL1         0.0829
      12    O1      17.758387   18.844353   22.520337 O.3        1 MOL1        -0.5515
      13    H8      17.371006   17.972211   22.293494 H          1 MOL1         0.3773
@<TRIPOS>BOND
    1     1     2    1
    2     1     3    1
    3     1     4    1
    4     4     5    1
    5     4     6    1
    6     4     7    1
    7     7     8    1
    8     1     9    1
    9     7     9    1
   10     9    10    1
   11     9    11    1
   12     7    12    1
   13    12    13    1
@<TRIPOS>SUBSTRUCTURE
       1 MOL1            1 RESIDUE      1      MOL     
@<SCITEGIC>MOL_PROPERTY
VConf Rank
SciTegic.value.IntegerValue
83

@<SCITEGIC>MOL_PROPERTY
Conf_Id
SciTegic.value.IntegerValue
20

@<SCITEGIC>MOL_PROPERTY
Delta U+W
SciTegic.value.DoubleValue
1.030

@<SCITEGIC>MOL_PROPERTY
U+W
SciTegic.value.DoubleValue
-2.101

@<SCITEGIC>MOL_PROPERTY
Grad RMS
SciTegic.value.DoubleValue
0.000000

@<SCITEGIC>MOL_PROPERTY
U
SciTegic.value.DoubleValue
0.841

@<SCITEGIC>MOL_PROPERTY
W
SciTegic.value.DoubleValue
-2.942

@<SCITEGIC>MOL_PROPERTY
W(PB)
SciTegic.value.DoubleValue
-4.530

@<SCITEGIC>MOL_PROPERTY
W(SA)
SciTegic.value.DoubleValue
1.587

@<SCITEGIC>MOL_PROPERTY
Valence
SciTegic.value.DoubleValue
6.736

@<SCITEGIC>MOL_PROPERTY
Coulomb
SciTegic.value.DoubleValue
-7.246

@<SCITEGIC>MOL_PROPERTY
VdW
SciTegic.value.DoubleValue
1.352

@<SCITEGIC>MOL_PROPERTY
VdW6
SciTegic.value.DoubleValue
-2.500

@<SCITEGIC>MOL_PROPERTY
VdW12
SciTegic.value.DoubleValue
3.851

@<SCITEGIC>MOL_PROPERTY
Bond
SciTegic.value.DoubleValue
0.063

@<SCITEGIC>MOL_PROPERTY
Angle
SciTegic.value.DoubleValue
0.687

@<SCITEGIC>MOL_PROPERTY
Pdih
SciTegic.value.DoubleValue
5.986

@<SCITEGIC>MOL_PROPERTY
Idih
SciTegic.value.DoubleValue
0.000

@<SCITEGIC>MOL_PROPERTY
Tether
SciTegic.value.DoubleValue
0.000

@<TRIPOS>MOLECULE
guest-s16_confgen4.mol2 : confsearch ligand conformer 84
          13          13           1
SMALL
USER_CHARGES
 
@<TRIPOS>ATOM
       1    C1      19.554538   20.215508   22.099722 C.3        1 MOL1        -0.1693
       2    H1      19.430942   20.801925   23.019781 H          1 MOL1         0.0829
       3    H2      19.479554   20.892588   21.240443 H          1 MOL1         0.0829
       4    C2      18.684327   18.917358   22.029730 C.3        1 MOL1        -0.1768
       5    H3      17.710811   18.961924   22.530302 H          1 MOL1         0.0829
       6    H4      18.542217   18.515803   21.018816 H          1 MOL1         0.0829
       7    C3      19.833881   18.250136   22.843669 C.3        1 MOL1         0.1211
       8    H5      19.768984   18.422089   23.926681 H          1 MOL1         0.0786
       9    C4      20.780071   19.243186   22.103580 C.3        1 MOL1        -0.1768
      10    H6      21.106385   18.914457   21.109173 H          1 MOL1         0.0829
      11    H7      21.657416   19.575504   22.669373 H          1 MOL1         0.0829
      12    O1      20.055434   16.886968   22.570715 O.3        1 MOL1        -0.5515
      13    H8      20.104042   16.795390   21.596050 H          1 MOL1         0.3773
@<TRIPOS>BOND
    1     1     2    1
    2     1     3    1
    3     1     4    1
    4     4     5    1
    5     4     6    1
    6     4     7    1
    7     7     8    1
    8     1     9    1
    9     7     9    1
   10     9    10    1
   11     9    11    1
   12     7    12    1
   13    12    13    1
@<TRIPOS>SUBSTRUCTURE
       1 MOL1            1 RESIDUE      1      MOL     
@<SCITEGIC>MOL_PROPERTY
VConf Rank
SciTegic.value.IntegerValue
84

@<SCITEGIC>MOL_PROPERTY
Conf_Id
SciTegic.value.IntegerValue
24

@<SCITEGIC>MOL_PROPERTY
Delta U+W
SciTegic.value.DoubleValue
0.356

@<SCITEGIC>MOL_PROPERTY
U+W
SciTegic.value.DoubleValue
-2.775

@<SCITEGIC>MOL_PROPERTY
Grad RMS
SciTegic.value.DoubleValue
0.000000

@<SCITEGIC>MOL_PROPERTY
U
SciTegic.value.DoubleValue
-0.184

@<SCITEGIC>MOL_PROPERTY
W
SciTegic.value.DoubleValue
-2.591

@<SCITEGIC>MOL_PROPERTY
W(PB)
SciTegic.value.DoubleValue
-4.184

@<SCITEGIC>MOL_PROPERTY
W(SA)
SciTegic.value.DoubleValue
1.593

@<SCITEGIC>MOL_PROPERTY
Valence
SciTegic.value.DoubleValue
6.840

@<SCITEGIC>MOL_PROPERTY
Coulomb
SciTegic.value.DoubleValue
-7.916

@<SCITEGIC>MOL_PROPERTY
VdW
SciTegic.value.DoubleValue
0.893

@<SCITEGIC>MOL_PROPERTY
VdW6
SciTegic.value.DoubleValue
-2.167

@<SCITEGIC>MOL_PROPERTY
VdW12
SciTegic.value.DoubleValue
3.060

@<SCITEGIC>MOL_PROPERTY
Bond
SciTegic.value.DoubleValue
0.059

@<SCITEGIC>MOL_PROPERTY
Angle
SciTegic.value.DoubleValue
0.918

@<SCITEGIC>MOL_PROPERTY
Pdih
SciTegic.value.DoubleValue
5.862

@<SCITEGIC>MOL_PROPERTY
Idih
SciTegic.value.DoubleValue
0.000

@<SCITEGIC>MOL_PROPERTY
Tether
SciTegic.value.DoubleValue
0.000

@<TRIPOS>MOLECULE
guest-s16_confgen4.mol2 : confsearch ligand conformer 85
          13          13           1
SMALL
USER_CHARGES
 
@<TRIPOS>ATOM
       1    C1      20.785944   19.142173   22.415473 C.3        1 MOL1        -0.1693
       2    H1      21.634499   19.827349   22.302060 H          1 MOL1         0.0829
       3    H2      21.131296   18.248434   22.950503 H          1 MOL1         0.0829
       4    C2      19.960652   18.854403   21.116928 C.3        1 MOL1        -0.1768
       5    H3      19.938940   19.684467   20.400312 H          1 MOL1         0.0829
       6    H4      20.213970   17.935052   20.577176 H          1 MOL1         0.0829
       7    C3      18.706089   18.778698   22.041228 C.3        1 MOL1         0.1211
       8    H5      17.783272   19.175097   21.598777 H          1 MOL1         0.0786
       9    C4      19.466217   19.773768   22.971839 C.3        1 MOL1        -0.1768
      10    H6      19.323277   20.829246   22.710021 H          1 MOL1         0.0829
      11    H7      19.289172   19.654647   24.046629 H          1 MOL1         0.0829
      12    O1      18.463239   17.508395   22.606102 O.3        1 MOL1        -0.5515
      13    H8      19.315291   17.206241   22.982962 H          1 MOL1         0.3773
@<TRIPOS>BOND
    1     1     2    1
    2     1     3    1
    3     1     4    1
    4     4     5    1
    5     4     6    1
    6     4     7    1
    7     7     8    1
    8     1     9    1
    9     7     9    1
   10     9    10    1
   11     9    11    1
   12     7    12    1
   13    12    13    1
@<TRIPOS>SUBSTRUCTURE
       1 MOL1            1 RESIDUE      1      MOL     
@<SCITEGIC>MOL_PROPERTY
VConf Rank
SciTegic.value.IntegerValue
85

@<SCITEGIC>MOL_PROPERTY
Conf_Id
SciTegic.value.IntegerValue
44

@<SCITEGIC>MOL_PROPERTY
Delta U+W
SciTegic.value.DoubleValue
0.823

@<SCITEGIC>MOL_PROPERTY
U+W
SciTegic.value.DoubleValue
-2.308

@<SCITEGIC>MOL_PROPERTY
Grad RMS
SciTegic.value.DoubleValue
0.000000

@<SCITEGIC>MOL_PROPERTY
U
SciTegic.value.DoubleValue
0.039

@<SCITEGIC>MOL_PROPERTY
W
SciTegic.value.DoubleValue
-2.348

@<SCITEGIC>MOL_PROPERTY
W(PB)
SciTegic.value.DoubleValue
-3.918

@<SCITEGIC>MOL_PROPERTY
W(SA)
SciTegic.value.DoubleValue
1.571

@<SCITEGIC>MOL_PROPERTY
Valence
SciTegic.value.DoubleValue
7.320

@<SCITEGIC>MOL_PROPERTY
Coulomb
SciTegic.value.DoubleValue
-8.530

@<SCITEGIC>MOL_PROPERTY
VdW
SciTegic.value.DoubleValue
1.249

@<SCITEGIC>MOL_PROPERTY
VdW6
SciTegic.value.DoubleValue
-2.615

@<SCITEGIC>MOL_PROPERTY
VdW12
SciTegic.value.DoubleValue
3.864

@<SCITEGIC>MOL_PROPERTY
Bond
SciTegic.value.DoubleValue
0.056

@<SCITEGIC>MOL_PROPERTY
Angle
SciTegic.value.DoubleValue
0.694

@<SCITEGIC>MOL_PROPERTY
Pdih
SciTegic.value.DoubleValue
6.570

@<SCITEGIC>MOL_PROPERTY
Idih
SciTegic.value.DoubleValue
0.000

@<SCITEGIC>MOL_PROPERTY
Tether
SciTegic.value.DoubleValue
0.000

@<TRIPOS>MOLECULE
guest-s16_confgen4.mol2 : confsearch ligand conformer 86
          13          13           1
SMALL
USER_CHARGES
 
@<TRIPOS>ATOM
       1    C1      20.381286   18.983394   23.356359 C.3        1 MOL1        -0.1693
       2    H1      20.765708   17.978354   23.574762 H          1 MOL1         0.0829
       3    H2      20.756762   19.675630   24.119357 H          1 MOL1         0.0829
       4    C2      18.845341   19.047842   23.066484 C.3        1 MOL1        -0.1768
       5    H3      18.221211   18.324550   23.602459 H          1 MOL1         0.0829
       6    H4      18.399173   20.044655   23.170814 H          1 MOL1         0.0829
       7    C3      19.228071   18.661540   21.605958 C.3        1 MOL1         0.1211
       8    H5      19.368396   17.582290   21.455662 H          1 MOL1         0.0786
       9    C4      20.551780   19.440790   21.870073 C.3        1 MOL1        -0.1768
      10    H6      21.439344   19.065635   21.348861 H          1 MOL1         0.0829
      11    H7      20.481802   20.524459   21.713360 H          1 MOL1         0.0829
      12    O1      18.399850   19.202756   20.603121 O.3        1 MOL1        -0.5515
      13    H8      18.834005   19.026012   19.740871 H          1 MOL1         0.3773
@<TRIPOS>BOND
    1     1     2    1
    2     1     3    1
    3     1     4    1
    4     4     5    1
    5     4     6    1
    6     4     7    1
    7     7     8    1
    8     1     9    1
    9     7     9    1
   10     9    10    1
   11     9    11    1
   12     7    12    1
   13    12    13    1
@<TRIPOS>SUBSTRUCTURE
       1 MOL1            1 RESIDUE      1      MOL     
@<SCITEGIC>MOL_PROPERTY
VConf Rank
SciTegic.value.IntegerValue
86

@<SCITEGIC>MOL_PROPERTY
Conf_Id
SciTegic.value.IntegerValue
22

@<SCITEGIC>MOL_PROPERTY
Delta U+W
SciTegic.value.DoubleValue
0.000

@<SCITEGIC>MOL_PROPERTY
U+W
SciTegic.value.DoubleValue
-3.131

@<SCITEGIC>MOL_PROPERTY
Grad RMS
SciTegic.value.DoubleValue
0.000000

@<SCITEGIC>MOL_PROPERTY
U
SciTegic.value.DoubleValue
-0.154

@<SCITEGIC>MOL_PROPERTY
W
SciTegic.value.DoubleValue
-2.978

@<SCITEGIC>MOL_PROPERTY
W(PB)
SciTegic.value.DoubleValue
-4.579

@<SCITEGIC>MOL_PROPERTY
W(SA)
SciTegic.value.DoubleValue
1.601

@<SCITEGIC>MOL_PROPERTY
Valence
SciTegic.value.DoubleValue
6.333

@<SCITEGIC>MOL_PROPERTY
Coulomb
SciTegic.value.DoubleValue
-7.439

@<SCITEGIC>MOL_PROPERTY
VdW
SciTegic.value.DoubleValue
0.952

@<SCITEGIC>MOL_PROPERTY
VdW6
SciTegic.value.DoubleValue
-2.120

@<SCITEGIC>MOL_PROPERTY
VdW12
SciTegic.value.DoubleValue
3.072

@<SCITEGIC>MOL_PROPERTY
Bond
SciTegic.value.DoubleValue
0.065

@<SCITEGIC>MOL_PROPERTY
Angle
SciTegic.value.DoubleValue
0.931

@<SCITEGIC>MOL_PROPERTY
Pdih
SciTegic.value.DoubleValue
5.338

@<SCITEGIC>MOL_PROPERTY
Idih
SciTegic.value.DoubleValue
0.000

@<SCITEGIC>MOL_PROPERTY
Tether
SciTegic.value.DoubleValue
0.000

@<TRIPOS>MOLECULE
guest-s16_confgen4.mol2 : confsearch ligand conformer 87
          13          13           1
SMALL
USER_CHARGES
 
@<TRIPOS>ATOM
       1    C1      19.004328   18.089215   21.439161 C.3        1 MOL1        -0.1693
       2    H1      18.032589   18.462802   21.090246 H          1 MOL1         0.0829
       3    H2      19.153403   17.077525   21.043434 H          1 MOL1         0.0829
       4    C2      19.264827   18.273216   22.970700 C.3        1 MOL1        -0.1768
       5    H3      20.054366   17.631559   23.381429 H          1 MOL1         0.0829
       6    H4      18.385119   18.209802   23.620520 H          1 MOL1         0.0829
       7    C3      19.730195   19.712445   22.594873 C.3        1 MOL1         0.1211
       8    H5      18.907915   20.433107   22.487338 H          1 MOL1         0.0786
       9    C4      20.195645   19.084679   21.246500 C.3        1 MOL1        -0.1768
      10    H6      21.190388   18.623181   21.279512 H          1 MOL1         0.0829
      11    H7      20.140641   19.741226   20.371354 H          1 MOL1         0.0829
      12    O1      20.758211   20.242750   23.398931 O.3        1 MOL1        -0.5515
      13    H8      20.364472   20.452874   24.273014 H          1 MOL1         0.3773
@<TRIPOS>BOND
    1     1     2    1
    2     1     3    1
    3     1     4    1
    4     4     5    1
    5     4     6    1
    6     4     7    1
    7     7     8    1
    8     1     9    1
    9     7     9    1
   10     9    10    1
   11     9    11    1
   12     7    12    1
   13    12    13    1
@<TRIPOS>SUBSTRUCTURE
       1 MOL1            1 RESIDUE      1      MOL     
@<SCITEGIC>MOL_PROPERTY
VConf Rank
SciTegic.value.IntegerValue
87

@<SCITEGIC>MOL_PROPERTY
Conf_Id
SciTegic.value.IntegerValue
19

@<SCITEGIC>MOL_PROPERTY
Delta U+W
SciTegic.value.DoubleValue
-0.011

@<SCITEGIC>MOL_PROPERTY
U+W
SciTegic.value.DoubleValue
-3.142

@<SCITEGIC>MOL_PROPERTY
Grad RMS
SciTegic.value.DoubleValue
0.000000

@<SCITEGIC>MOL_PROPERTY
U
SciTegic.value.DoubleValue
-0.154

@<SCITEGIC>MOL_PROPERTY
W
SciTegic.value.DoubleValue
-2.989

@<SCITEGIC>MOL_PROPERTY
W(PB)
SciTegic.value.DoubleValue
-4.588

@<SCITEGIC>MOL_PROPERTY
W(SA)
SciTegic.value.DoubleValue
1.599

@<SCITEGIC>MOL_PROPERTY
Valence
SciTegic.value.DoubleValue
6.334

@<SCITEGIC>MOL_PROPERTY
Coulomb
SciTegic.value.DoubleValue
-7.439

@<SCITEGIC>MOL_PROPERTY
VdW
SciTegic.value.DoubleValue
0.951

@<SCITEGIC>MOL_PROPERTY
VdW6
SciTegic.value.DoubleValue
-2.120

@<SCITEGIC>MOL_PROPERTY
VdW12
SciTegic.value.DoubleValue
3.072

@<SCITEGIC>MOL_PROPERTY
Bond
SciTegic.value.DoubleValue
0.065

@<SCITEGIC>MOL_PROPERTY
Angle
SciTegic.value.DoubleValue
0.930

@<SCITEGIC>MOL_PROPERTY
Pdih
SciTegic.value.DoubleValue
5.339

@<SCITEGIC>MOL_PROPERTY
Idih
SciTegic.value.DoubleValue
0.000

@<SCITEGIC>MOL_PROPERTY
Tether
SciTegic.value.DoubleValue
0.000

@<TRIPOS>MOLECULE
guest-s16_confgen4.mol2 : confsearch ligand conformer 88
          13          13           1
SMALL
USER_CHARGES
 
@<TRIPOS>ATOM
       1    C1      19.578685   19.355775   23.473426 C.3        1 MOL1        -0.1693
       2    H1      18.952589   19.358399   24.373411 H          1 MOL1         0.0829
       3    H2      20.581061   19.713971   23.742023 H          1 MOL1         0.0829
       4    C2      18.964094   20.036039   22.205163 C.3        1 MOL1        -0.1768
       5    H3      17.871507   19.969431   22.137462 H          1 MOL1         0.0829
       6    H4      19.263904   21.073956   22.022858 H          1 MOL1         0.0829
       7    C3      19.723291   18.955103   21.374123 C.3        1 MOL1         0.1211
       8    H5      19.189773   18.607933   20.479895 H          1 MOL1         0.0786
       9    C4      19.563392   18.039206   22.627782 C.3        1 MOL1        -0.1768
      10    H6      20.383024   17.337238   22.816979 H          1 MOL1         0.0829
      11    H7      18.615760   17.488095   22.663076 H          1 MOL1         0.0829
      12    O1      21.056842   19.287323   21.043343 O.3        1 MOL1        -0.5515
      13    H8      21.477765   18.477229   20.684559 H          1 MOL1         0.3773
@<TRIPOS>BOND
    1     1     2    1
    2     1     3    1
    3     1     4    1
    4     4     5    1
    5     4     6    1
    6     4     7    1
    7     7     8    1
    8     1     9    1
    9     7     9    1
   10     9    10    1
   11     9    11    1
   12     7    12    1
   13    12    13    1
@<TRIPOS>SUBSTRUCTURE
       1 MOL1            1 RESIDUE      1      MOL     
@<SCITEGIC>MOL_PROPERTY
VConf Rank
SciTegic.value.IntegerValue
88

@<SCITEGIC>MOL_PROPERTY
Conf_Id
SciTegic.value.IntegerValue
20

@<SCITEGIC>MOL_PROPERTY
Delta U+W
SciTegic.value.DoubleValue
1.030

@<SCITEGIC>MOL_PROPERTY
U+W
SciTegic.value.DoubleValue
-2.101

@<SCITEGIC>MOL_PROPERTY
Grad RMS
SciTegic.value.DoubleValue
0.000000

@<SCITEGIC>MOL_PROPERTY
U
SciTegic.value.DoubleValue
0.841

@<SCITEGIC>MOL_PROPERTY
W
SciTegic.value.DoubleValue
-2.942

@<SCITEGIC>MOL_PROPERTY
W(PB)
SciTegic.value.DoubleValue
-4.530

@<SCITEGIC>MOL_PROPERTY
W(SA)
SciTegic.value.DoubleValue
1.587

@<SCITEGIC>MOL_PROPERTY
Valence
SciTegic.value.DoubleValue
6.736

@<SCITEGIC>MOL_PROPERTY
Coulomb
SciTegic.value.DoubleValue
-7.246

@<SCITEGIC>MOL_PROPERTY
VdW
SciTegic.value.DoubleValue
1.352

@<SCITEGIC>MOL_PROPERTY
VdW6
SciTegic.value.DoubleValue
-2.500

@<SCITEGIC>MOL_PROPERTY
VdW12
SciTegic.value.DoubleValue
3.851

@<SCITEGIC>MOL_PROPERTY
Bond
SciTegic.value.DoubleValue
0.063

@<SCITEGIC>MOL_PROPERTY
Angle
SciTegic.value.DoubleValue
0.687

@<SCITEGIC>MOL_PROPERTY
Pdih
SciTegic.value.DoubleValue
5.986

@<SCITEGIC>MOL_PROPERTY
Idih
SciTegic.value.DoubleValue
0.000

@<SCITEGIC>MOL_PROPERTY
Tether
SciTegic.value.DoubleValue
0.000

@<TRIPOS>MOLECULE
guest-s16_confgen4.mol2 : confsearch ligand conformer 89
          13          13           1
SMALL
USER_CHARGES
 
@<TRIPOS>ATOM
       1    C1      20.944493   18.987786   22.667319 C.3        1 MOL1        -0.1693
       2    H1      21.258438   18.189566   23.352850 H          1 MOL1         0.0829
       3    H2      21.786216   19.675378   22.521923 H          1 MOL1         0.0829
       4    C2      19.570362   19.648173   23.018048 C.3        1 MOL1        -0.1768
       5    H3      19.320211   19.704124   24.083218 H          1 MOL1         0.0829
       6    H4      19.408213   20.634529   22.566165 H          1 MOL1         0.0829
       7    C3      18.937731   18.457678   22.235963 C.3        1 MOL1         0.1211
       8    H5      18.826970   17.542585   22.833483 H          1 MOL1         0.0786
       9    C4      20.231172   18.490114   21.366991 C.3        1 MOL1        -0.1768
      10    H6      20.216723   19.217630   20.546076 H          1 MOL1         0.0829
      11    H7      20.564615   17.523324   20.974024 H          1 MOL1         0.0829
      12    O1      17.742618   18.750703   21.552107 O.3        1 MOL1        -0.5515
      13    H8      17.900841   19.571249   21.039868 H          1 MOL1         0.3773
@<TRIPOS>BOND
    1     1     2    1
    2     1     3    1
    3     1     4    1
    4     4     5    1
    5     4     6    1
    6     4     7    1
    7     7     8    1
    8     1     9    1
    9     7     9    1
   10     9    10    1
   11     9    11    1
   12     7    12    1
   13    12    13    1
@<TRIPOS>SUBSTRUCTURE
       1 MOL1            1 RESIDUE      1      MOL     
@<SCITEGIC>MOL_PROPERTY
VConf Rank
SciTegic.value.IntegerValue
89

@<SCITEGIC>MOL_PROPERTY
Conf_Id
SciTegic.value.IntegerValue
24

@<SCITEGIC>MOL_PROPERTY
Delta U+W
SciTegic.value.DoubleValue
0.356

@<SCITEGIC>MOL_PROPERTY
U+W
SciTegic.value.DoubleValue
-2.775

@<SCITEGIC>MOL_PROPERTY
Grad RMS
SciTegic.value.DoubleValue
0.000000

@<SCITEGIC>MOL_PROPERTY
U
SciTegic.value.DoubleValue
-0.184

@<SCITEGIC>MOL_PROPERTY
W
SciTegic.value.DoubleValue
-2.591

@<SCITEGIC>MOL_PROPERTY
W(PB)
SciTegic.value.DoubleValue
-4.184

@<SCITEGIC>MOL_PROPERTY
W(SA)
SciTegic.value.DoubleValue
1.593

@<SCITEGIC>MOL_PROPERTY
Valence
SciTegic.value.DoubleValue
6.840

@<SCITEGIC>MOL_PROPERTY
Coulomb
SciTegic.value.DoubleValue
-7.916

@<SCITEGIC>MOL_PROPERTY
VdW
SciTegic.value.DoubleValue
0.893

@<SCITEGIC>MOL_PROPERTY
VdW6
SciTegic.value.DoubleValue
-2.167

@<SCITEGIC>MOL_PROPERTY
VdW12
SciTegic.value.DoubleValue
3.060

@<SCITEGIC>MOL_PROPERTY
Bond
SciTegic.value.DoubleValue
0.059

@<SCITEGIC>MOL_PROPERTY
Angle
SciTegic.value.DoubleValue
0.918

@<SCITEGIC>MOL_PROPERTY
Pdih
SciTegic.value.DoubleValue
5.862

@<SCITEGIC>MOL_PROPERTY
Idih
SciTegic.value.DoubleValue
0.000

@<SCITEGIC>MOL_PROPERTY
Tether
SciTegic.value.DoubleValue
0.000

@<TRIPOS>MOLECULE
guest-s16_confgen4.mol2 : confsearch ligand conformer 90
          13          13           1
SMALL
USER_CHARGES
 
@<TRIPOS>ATOM
       1    C1      20.492989   18.230890   22.490646 C.3        1 MOL1        -0.1693
       2    H1      21.431895   18.072070   23.034341 H          1 MOL1         0.0829
       3    H2      20.199861   17.283301   22.021128 H          1 MOL1         0.0829
       4    C2      20.453702   19.475521   21.542233 C.3        1 MOL1        -0.1768
       5    H3      21.078576   20.315202   21.870080 H          1 MOL1         0.0829
       6    H4      20.657647   19.282576   20.483041 H          1 MOL1         0.0829
       7    C3      18.949465   19.611042   21.933254 C.3        1 MOL1         0.1211
       8    H5      18.585753   20.643323   22.014477 H          1 MOL1         0.0786
       9    C4      19.354254   18.950814   23.287595 C.3        1 MOL1        -0.1768
      10    H6      19.709560   19.661843   24.043379 H          1 MOL1         0.0829
      11    H7      18.601224   18.301156   23.747594 H          1 MOL1         0.0829
      12    O1      18.062167   18.847634   21.144815 O.3        1 MOL1        -0.5515
      13    H8      18.434764   17.942600   21.107425 H          1 MOL1         0.3773
@<TRIPOS>BOND
    1     1     2    1
    2     1     3    1
    3     1     4    1
    4     4     5    1
    5     4     6    1
    6     4     7    1
    7     7     8    1
    8     1     9    1
    9     7     9    1
   10     9    10    1
   11     9    11    1
   12     7    12    1
   13    12    13    1
@<TRIPOS>SUBSTRUCTURE
       1 MOL1            1 RESIDUE      1      MOL     
@<SCITEGIC>MOL_PROPERTY
VConf Rank
SciTegic.value.IntegerValue
90

@<SCITEGIC>MOL_PROPERTY
Conf_Id
SciTegic.value.IntegerValue
44

@<SCITEGIC>MOL_PROPERTY
Delta U+W
SciTegic.value.DoubleValue
0.823

@<SCITEGIC>MOL_PROPERTY
U+W
SciTegic.value.DoubleValue
-2.308

@<SCITEGIC>MOL_PROPERTY
Grad RMS
SciTegic.value.DoubleValue
0.000000

@<SCITEGIC>MOL_PROPERTY
U
SciTegic.value.DoubleValue
0.039

@<SCITEGIC>MOL_PROPERTY
W
SciTegic.value.DoubleValue
-2.348

@<SCITEGIC>MOL_PROPERTY
W(PB)
SciTegic.value.DoubleValue
-3.918

@<SCITEGIC>MOL_PROPERTY
W(SA)
SciTegic.value.DoubleValue
1.571

@<SCITEGIC>MOL_PROPERTY
Valence
SciTegic.value.DoubleValue
7.320

@<SCITEGIC>MOL_PROPERTY
Coulomb
SciTegic.value.DoubleValue
-8.530

@<SCITEGIC>MOL_PROPERTY
VdW
SciTegic.value.DoubleValue
1.249

@<SCITEGIC>MOL_PROPERTY
VdW6
SciTegic.value.DoubleValue
-2.615

@<SCITEGIC>MOL_PROPERTY
VdW12
SciTegic.value.DoubleValue
3.864

@<SCITEGIC>MOL_PROPERTY
Bond
SciTegic.value.DoubleValue
0.056

@<SCITEGIC>MOL_PROPERTY
Angle
SciTegic.value.DoubleValue
0.694

@<SCITEGIC>MOL_PROPERTY
Pdih
SciTegic.value.DoubleValue
6.570

@<SCITEGIC>MOL_PROPERTY
Idih
SciTegic.value.DoubleValue
0.000

@<SCITEGIC>MOL_PROPERTY
Tether
SciTegic.value.DoubleValue
0.000

@<TRIPOS>MOLECULE
guest-s16_confgen4.mol2 : confsearch ligand conformer 91
          13          13           1
SMALL
USER_CHARGES
 
@<TRIPOS>ATOM
       1    C1      19.150636   18.647395   23.396407 C.3        1 MOL1        -0.1693
       2    H1      19.894112   18.546164   24.198019 H          1 MOL1         0.0829
       3    H2      18.158085   18.432370   23.809860 H          1 MOL1         0.0829
       4    C2      19.516287   17.907443   22.067468 C.3        1 MOL1        -0.1768
       5    H3      20.089446   16.979833   22.172300 H          1 MOL1         0.0829
       6    H4      18.669066   17.724713   21.394853 H          1 MOL1         0.0829
       7    C3      20.346324   19.182208   21.728562 C.3        1 MOL1         0.1211
       8    H5      21.347678   19.191734   22.180516 H          1 MOL1         0.0786
       9    C4      19.273657   19.958030   22.551167 C.3        1 MOL1        -0.1768
      10    H6      19.630815   20.844967   23.085913 H          1 MOL1         0.0829
      11    H7      18.371701   20.225355   21.986537 H          1 MOL1         0.0829
      12    O1      20.411747   19.512225   20.360587 O.3        1 MOL1        -0.5515
      13    H8      20.813172   20.405468   20.295955 H          1 MOL1         0.3773
@<TRIPOS>BOND
    1     1     2    1
    2     1     3    1
    3     1     4    1
    4     4     5    1
    5     4     6    1
    6     4     7    1
    7     7     8    1
    8     1     9    1
    9     7     9    1
   10     9    10    1
   11     9    11    1
   12     7    12    1
   13    12    13    1
@<TRIPOS>SUBSTRUCTURE
       1 MOL1            1 RESIDUE      1      MOL     
@<SCITEGIC>MOL_PROPERTY
VConf Rank
SciTegic.value.IntegerValue
91

@<SCITEGIC>MOL_PROPERTY
Conf_Id
SciTegic.value.IntegerValue
22

@<SCITEGIC>MOL_PROPERTY
Delta U+W
SciTegic.value.DoubleValue
0.000

@<SCITEGIC>MOL_PROPERTY
U+W
SciTegic.value.DoubleValue
-3.131

@<SCITEGIC>MOL_PROPERTY
Grad RMS
SciTegic.value.DoubleValue
0.000000

@<SCITEGIC>MOL_PROPERTY
U
SciTegic.value.DoubleValue
-0.154

@<SCITEGIC>MOL_PROPERTY
W
SciTegic.value.DoubleValue
-2.978

@<SCITEGIC>MOL_PROPERTY
W(PB)
SciTegic.value.DoubleValue
-4.579

@<SCITEGIC>MOL_PROPERTY
W(SA)
SciTegic.value.DoubleValue
1.601

@<SCITEGIC>MOL_PROPERTY
Valence
SciTegic.value.DoubleValue
6.333

@<SCITEGIC>MOL_PROPERTY
Coulomb
SciTegic.value.DoubleValue
-7.439

@<SCITEGIC>MOL_PROPERTY
VdW
SciTegic.value.DoubleValue
0.952

@<SCITEGIC>MOL_PROPERTY
VdW6
SciTegic.value.DoubleValue
-2.120

@<SCITEGIC>MOL_PROPERTY
VdW12
SciTegic.value.DoubleValue
3.072

@<SCITEGIC>MOL_PROPERTY
Bond
SciTegic.value.DoubleValue
0.065

@<SCITEGIC>MOL_PROPERTY
Angle
SciTegic.value.DoubleValue
0.931

@<SCITEGIC>MOL_PROPERTY
Pdih
SciTegic.value.DoubleValue
5.338

@<SCITEGIC>MOL_PROPERTY
Idih
SciTegic.value.DoubleValue
0.000

@<SCITEGIC>MOL_PROPERTY
Tether
SciTegic.value.DoubleValue
0.000

@<TRIPOS>MOLECULE
guest-s16_confgen4.mol2 : confsearch ligand conformer 92
          13          13           1
SMALL
USER_CHARGES
 
@<TRIPOS>ATOM
       1    C1      18.853353   19.574212   21.398257 C.3        1 MOL1        -0.1693
       2    H1      18.159400   18.920541   20.853529 H          1 MOL1         0.0829
       3    H2      18.729957   20.599952   21.030874 H          1 MOL1         0.0829
       4    C2      20.323499   19.045589   21.479229 C.3        1 MOL1        -0.1768
       5    H3      21.072851   19.810516   21.718292 H          1 MOL1         0.0829
       6    H4      20.674870   18.464055   20.619852 H          1 MOL1         0.0829
       7    C3      19.829517   18.217965   22.704062 C.3        1 MOL1         0.1211
       8    H5      19.337200   17.273445   22.434676 H          1 MOL1         0.0786
       9    C4      18.838156   19.394597   22.952223 C.3        1 MOL1        -0.1768
      10    H6      19.262036   20.234647   23.516339 H          1 MOL1         0.0829
      11    H7      17.875808   19.120588   23.398055 H          1 MOL1         0.0829
      12    O1      20.785879   18.012251   23.717770 O.3        1 MOL1        -0.5515
      13    H8      21.439572   17.366024   23.373852 H          1 MOL1         0.3773
@<TRIPOS>BOND
    1     1     2    1
    2     1     3    1
    3     1     4    1
    4     4     5    1
    5     4     6    1
    6     4     7    1
    7     7     8    1
    8     1     9    1
    9     7     9    1
   10     9    10    1
   11     9    11    1
   12     7    12    1
   13    12    13    1
@<TRIPOS>SUBSTRUCTURE
       1 MOL1            1 RESIDUE      1      MOL     
@<SCITEGIC>MOL_PROPERTY
VConf Rank
SciTegic.value.IntegerValue
92

@<SCITEGIC>MOL_PROPERTY
Conf_Id
SciTegic.value.IntegerValue
19

@<SCITEGIC>MOL_PROPERTY
Delta U+W
SciTegic.value.DoubleValue
-0.011

@<SCITEGIC>MOL_PROPERTY
U+W
SciTegic.value.DoubleValue
-3.142

@<SCITEGIC>MOL_PROPERTY
Grad RMS
SciTegic.value.DoubleValue
0.000000

@<SCITEGIC>MOL_PROPERTY
U
SciTegic.value.DoubleValue
-0.154

@<SCITEGIC>MOL_PROPERTY
W
SciTegic.value.DoubleValue
-2.989

@<SCITEGIC>MOL_PROPERTY
W(PB)
SciTegic.value.DoubleValue
-4.588

@<SCITEGIC>MOL_PROPERTY
W(SA)
SciTegic.value.DoubleValue
1.599

@<SCITEGIC>MOL_PROPERTY
Valence
SciTegic.value.DoubleValue
6.334

@<SCITEGIC>MOL_PROPERTY
Coulomb
SciTegic.value.DoubleValue
-7.439

@<SCITEGIC>MOL_PROPERTY
VdW
SciTegic.value.DoubleValue
0.951

@<SCITEGIC>MOL_PROPERTY
VdW6
SciTegic.value.DoubleValue
-2.120

@<SCITEGIC>MOL_PROPERTY
VdW12
SciTegic.value.DoubleValue
3.072

@<SCITEGIC>MOL_PROPERTY
Bond
SciTegic.value.DoubleValue
0.065

@<SCITEGIC>MOL_PROPERTY
Angle
SciTegic.value.DoubleValue
0.930

@<SCITEGIC>MOL_PROPERTY
Pdih
SciTegic.value.DoubleValue
5.339

@<SCITEGIC>MOL_PROPERTY
Idih
SciTegic.value.DoubleValue
0.000

@<SCITEGIC>MOL_PROPERTY
Tether
SciTegic.value.DoubleValue
0.000

@<TRIPOS>MOLECULE
guest-s16_confgen4.mol2 : confsearch ligand conformer 93
          13          13           1
SMALL
USER_CHARGES
 
@<TRIPOS>ATOM
       1    C1      18.522933   19.006756   22.813571 C.3        1 MOL1        -0.1693
       2    H1      17.962738   18.679550   23.697366 H          1 MOL1         0.0829
       3    H2      17.845175   19.566066   22.155526 H          1 MOL1         0.0829
       4    C2      19.370774   17.908198   22.090171 C.3        1 MOL1        -0.1768
       5    H3      19.759938   17.124784   22.751669 H          1 MOL1         0.0829
       6    H4      18.901681   17.432545   21.221782 H          1 MOL1         0.0829
       7    C3      20.394093   19.042512   21.771457 C.3        1 MOL1         0.1211
       8    H5      21.445424   18.727462   21.787518 H          1 MOL1         0.0786
       9    C4      19.892096   19.712770   23.088594 C.3        1 MOL1        -0.1768
      10    H6      19.875239   20.808235   23.093417 H          1 MOL1         0.0829
      11    H7      20.407509   19.366942   23.992876 H          1 MOL1         0.0829
      12    O1      20.125450   19.771335   20.590443 O.3        1 MOL1        -0.5515
      13    H8      20.718637   20.552541   20.589710 H          1 MOL1         0.3773
@<TRIPOS>BOND
    1     1     2    1
    2     1     3    1
    3     1     4    1
    4     4     5    1
    5     4     6    1
    6     4     7    1
    7     7     8    1
    8     1     9    1
    9     7     9    1
   10     9    10    1
   11     9    11    1
   12     7    12    1
   13    12    13    1
@<TRIPOS>SUBSTRUCTURE
       1 MOL1            1 RESIDUE      1      MOL     
@<SCITEGIC>MOL_PROPERTY
VConf Rank
SciTegic.value.IntegerValue
93

@<SCITEGIC>MOL_PROPERTY
Conf_Id
SciTegic.value.IntegerValue
20

@<SCITEGIC>MOL_PROPERTY
Delta U+W
SciTegic.value.DoubleValue
1.030

@<SCITEGIC>MOL_PROPERTY
U+W
SciTegic.value.DoubleValue
-2.101

@<SCITEGIC>MOL_PROPERTY
Grad RMS
SciTegic.value.DoubleValue
0.000000

@<SCITEGIC>MOL_PROPERTY
U
SciTegic.value.DoubleValue
0.841

@<SCITEGIC>MOL_PROPERTY
W
SciTegic.value.DoubleValue
-2.942

@<SCITEGIC>MOL_PROPERTY
W(PB)
SciTegic.value.DoubleValue
-4.530

@<SCITEGIC>MOL_PROPERTY
W(SA)
SciTegic.value.DoubleValue
1.587

@<SCITEGIC>MOL_PROPERTY
Valence
SciTegic.value.DoubleValue
6.736

@<SCITEGIC>MOL_PROPERTY
Coulomb
SciTegic.value.DoubleValue
-7.246

@<SCITEGIC>MOL_PROPERTY
VdW
SciTegic.value.DoubleValue
1.352

@<SCITEGIC>MOL_PROPERTY
VdW6
SciTegic.value.DoubleValue
-2.500

@<SCITEGIC>MOL_PROPERTY
VdW12
SciTegic.value.DoubleValue
3.851

@<SCITEGIC>MOL_PROPERTY
Bond
SciTegic.value.DoubleValue
0.063

@<SCITEGIC>MOL_PROPERTY
Angle
SciTegic.value.DoubleValue
0.687

@<SCITEGIC>MOL_PROPERTY
Pdih
SciTegic.value.DoubleValue
5.986

@<SCITEGIC>MOL_PROPERTY
Idih
SciTegic.value.DoubleValue
0.000

@<SCITEGIC>MOL_PROPERTY
Tether
SciTegic.value.DoubleValue
0.000

@<TRIPOS>MOLECULE
guest-s16_confgen4.mol2 : confsearch ligand conformer 94
          13          13           1
SMALL
USER_CHARGES
 
@<TRIPOS>ATOM
       1    C1      20.585495   18.778289   23.165458 C.3        1 MOL1        -0.1693
       2    H1      20.609388   17.796771   23.657109 H          1 MOL1         0.0829
       3    H2      21.335934   19.424144   23.636767 H          1 MOL1         0.0829
       4    C2      19.156205   19.392553   23.000626 C.3        1 MOL1        -0.1768
       5    H3      18.433844   19.150983   23.788110 H          1 MOL1         0.0829
       6    H4      19.140847   20.475964   22.829246 H          1 MOL1         0.0829
       7    C3      19.065602   18.524087   21.709613 C.3        1 MOL1         0.1211
       8    H5      18.766695   17.483344   21.894552 H          1 MOL1         0.0786
       9    C4      20.607121   18.727313   21.602035 C.3        1 MOL1        -0.1768
      10    H6      20.916061   19.662035   21.118052 H          1 MOL1         0.0829
      11    H7      21.166138   17.898237   21.154347 H          1 MOL1         0.0829
      12    O1      18.308198   19.078234   20.660291 O.3        1 MOL1        -0.5515
      13    H8      18.617075   20.000883   20.541828 H          1 MOL1         0.3773
@<TRIPOS>BOND
    1     1     2    1
    2     1     3    1
    3     1     4    1
    4     4     5    1
    5     4     6    1
    6     4     7    1
    7     7     8    1
    8     1     9    1
    9     7     9    1
   10     9    10    1
   11     9    11    1
   12     7    12    1
   13    12    13    1
@<TRIPOS>SUBSTRUCTURE
       1 MOL1            1 RESIDUE      1      MOL     
@<SCITEGIC>MOL_PROPERTY
VConf Rank
SciTegic.value.IntegerValue
94

@<SCITEGIC>MOL_PROPERTY
Conf_Id
SciTegic.value.IntegerValue
24

@<SCITEGIC>MOL_PROPERTY
Delta U+W
SciTegic.value.DoubleValue
0.356

@<SCITEGIC>MOL_PROPERTY
U+W
SciTegic.value.DoubleValue
-2.775

@<SCITEGIC>MOL_PROPERTY
Grad RMS
SciTegic.value.DoubleValue
0.000000

@<SCITEGIC>MOL_PROPERTY
U
SciTegic.value.DoubleValue
-0.184

@<SCITEGIC>MOL_PROPERTY
W
SciTegic.value.DoubleValue
-2.591

@<SCITEGIC>MOL_PROPERTY
W(PB)
SciTegic.value.DoubleValue
-4.184

@<SCITEGIC>MOL_PROPERTY
W(SA)
SciTegic.value.DoubleValue
1.593

@<SCITEGIC>MOL_PROPERTY
Valence
SciTegic.value.DoubleValue
6.840

@<SCITEGIC>MOL_PROPERTY
Coulomb
SciTegic.value.DoubleValue
-7.916

@<SCITEGIC>MOL_PROPERTY
VdW
SciTegic.value.DoubleValue
0.893

@<SCITEGIC>MOL_PROPERTY
VdW6
SciTegic.value.DoubleValue
-2.167

@<SCITEGIC>MOL_PROPERTY
VdW12
SciTegic.value.DoubleValue
3.060

@<SCITEGIC>MOL_PROPERTY
Bond
SciTegic.value.DoubleValue
0.059

@<SCITEGIC>MOL_PROPERTY
Angle
SciTegic.value.DoubleValue
0.918

@<SCITEGIC>MOL_PROPERTY
Pdih
SciTegic.value.DoubleValue
5.862

@<SCITEGIC>MOL_PROPERTY
Idih
SciTegic.value.DoubleValue
0.000

@<SCITEGIC>MOL_PROPERTY
Tether
SciTegic.value.DoubleValue
0.000

@<TRIPOS>MOLECULE
guest-s16_confgen4.mol2 : confsearch ligand conformer 95
          13          13           1
SMALL
USER_CHARGES
 
@<TRIPOS>ATOM
       1    C1      19.502087   19.058134   21.103870 C.3        1 MOL1        -0.1693
       2    H1      19.362913   18.515968   20.160970 H          1 MOL1         0.0829
       3    H2      19.425794   20.133677   20.899706 H          1 MOL1         0.0829
       4    C2      20.743832   18.636629   21.958588 C.3        1 MOL1        -0.1768
       5    H3      21.031308   17.583550   21.851838 H          1 MOL1         0.0829
       6    H4      21.640944   19.255578   21.845448 H          1 MOL1         0.0829
       7    C3      19.865262   18.932377   23.213434 C.3        1 MOL1         0.1211
       8    H5      20.035743   18.260129   24.064025 H          1 MOL1         0.0786
       9    C4      18.646937   18.555500   22.314744 C.3        1 MOL1        -0.1768
      10    H6      18.420286   17.482529   22.295317 H          1 MOL1         0.0829
      11    H7      17.718882   19.103831   22.511606 H          1 MOL1         0.0829
      12    O1      19.887097   20.274978   23.647802 O.3        1 MOL1        -0.5515
      13    H8      19.730774   20.825091   22.852659 H          1 MOL1         0.3773
@<TRIPOS>BOND
    1     1     2    1
    2     1     3    1
    3     1     4    1
    4     4     5    1
    5     4     6    1
    6     4     7    1
    7     7     8    1
    8     1     9    1
    9     7     9    1
   10     9    10    1
   11     9    11    1
   12     7    12    1
   13    12    13    1
@<TRIPOS>SUBSTRUCTURE
       1 MOL1            1 RESIDUE      1      MOL     
@<SCITEGIC>MOL_PROPERTY
VConf Rank
SciTegic.value.IntegerValue
95

@<SCITEGIC>MOL_PROPERTY
Conf_Id
SciTegic.value.IntegerValue
44

@<SCITEGIC>MOL_PROPERTY
Delta U+W
SciTegic.value.DoubleValue
0.823

@<SCITEGIC>MOL_PROPERTY
U+W
SciTegic.value.DoubleValue
-2.308

@<SCITEGIC>MOL_PROPERTY
Grad RMS
SciTegic.value.DoubleValue
0.000000

@<SCITEGIC>MOL_PROPERTY
U
SciTegic.value.DoubleValue
0.039

@<SCITEGIC>MOL_PROPERTY
W
SciTegic.value.DoubleValue
-2.348

@<SCITEGIC>MOL_PROPERTY
W(PB)
SciTegic.value.DoubleValue
-3.918

@<SCITEGIC>MOL_PROPERTY
W(SA)
SciTegic.value.DoubleValue
1.571

@<SCITEGIC>MOL_PROPERTY
Valence
SciTegic.value.DoubleValue
7.320

@<SCITEGIC>MOL_PROPERTY
Coulomb
SciTegic.value.DoubleValue
-8.530

@<SCITEGIC>MOL_PROPERTY
VdW
SciTegic.value.DoubleValue
1.249

@<SCITEGIC>MOL_PROPERTY
VdW6
SciTegic.value.DoubleValue
-2.615

@<SCITEGIC>MOL_PROPERTY
VdW12
SciTegic.value.DoubleValue
3.864

@<SCITEGIC>MOL_PROPERTY
Bond
SciTegic.value.DoubleValue
0.056

@<SCITEGIC>MOL_PROPERTY
Angle
SciTegic.value.DoubleValue
0.694

@<SCITEGIC>MOL_PROPERTY
Pdih
SciTegic.value.DoubleValue
6.570

@<SCITEGIC>MOL_PROPERTY
Idih
SciTegic.value.DoubleValue
0.000

@<SCITEGIC>MOL_PROPERTY
Tether
SciTegic.value.DoubleValue
0.000

@<TRIPOS>MOLECULE
guest-s16_confgen4.mol2 : confsearch ligand conformer 96
          13          13           1
SMALL
USER_CHARGES
 
@<TRIPOS>ATOM
       1    C1      18.363236   19.054062   22.450905 C.3        1 MOL1        -0.1693
       2    H1      17.782657   19.279841   21.546727 H          1 MOL1         0.0829
       3    H2      17.666635   18.847713   23.272188 H          1 MOL1         0.0829
       4    C2      19.510861   20.070512   22.762503 C.3        1 MOL1        -0.1768
       5    H3      19.327914   21.110645   22.471618 H          1 MOL1         0.0829
       6    H4      19.872802   20.052076   23.797995 H          1 MOL1         0.0829
       7    C3      20.362690   19.227978   21.765823 C.3        1 MOL1         0.1211
       8    H5      20.202812   19.493961   20.711900 H          1 MOL1         0.0786
       9    C4      19.513268   18.013207   22.247495 C.3        1 MOL1        -0.1768
      10    H6      19.330348   17.232109   21.501441 H          1 MOL1         0.0829
      11    H7      19.873652   17.542449   23.170699 H          1 MOL1         0.0829
      12    O1      21.738393   19.156224   22.060508 O.3        1 MOL1        -0.5515
      13    H8      22.127458   18.477128   21.468341 H          1 MOL1         0.3773
@<TRIPOS>BOND
    1     1     2    1
    2     1     3    1
    3     1     4    1
    4     4     5    1
    5     4     6    1
    6     4     7    1
    7     7     8    1
    8     1     9    1
    9     7     9    1
   10     9    10    1
   11     9    11    1
   12     7    12    1
   13    12    13    1
@<TRIPOS>SUBSTRUCTURE
       1 MOL1            1 RESIDUE      1      MOL     
@<SCITEGIC>MOL_PROPERTY
VConf Rank
SciTegic.value.IntegerValue
96

@<SCITEGIC>MOL_PROPERTY
Conf_Id
SciTegic.value.IntegerValue
22

@<SCITEGIC>MOL_PROPERTY
Delta U+W
SciTegic.value.DoubleValue
0.000

@<SCITEGIC>MOL_PROPERTY
U+W
SciTegic.value.DoubleValue
-3.131

@<SCITEGIC>MOL_PROPERTY
Grad RMS
SciTegic.value.DoubleValue
0.000000

@<SCITEGIC>MOL_PROPERTY
U
SciTegic.value.DoubleValue
-0.154

@<SCITEGIC>MOL_PROPERTY
W
SciTegic.value.DoubleValue
-2.978

@<SCITEGIC>MOL_PROPERTY
W(PB)
SciTegic.value.DoubleValue
-4.579

@<SCITEGIC>MOL_PROPERTY
W(SA)
SciTegic.value.DoubleValue
1.601

@<SCITEGIC>MOL_PROPERTY
Valence
SciTegic.value.DoubleValue
6.333

@<SCITEGIC>MOL_PROPERTY
Coulomb
SciTegic.value.DoubleValue
-7.439

@<SCITEGIC>MOL_PROPERTY
VdW
SciTegic.value.DoubleValue
0.952

@<SCITEGIC>MOL_PROPERTY
VdW6
SciTegic.value.DoubleValue
-2.120

@<SCITEGIC>MOL_PROPERTY
VdW12
SciTegic.value.DoubleValue
3.072

@<SCITEGIC>MOL_PROPERTY
Bond
SciTegic.value.DoubleValue
0.065

@<SCITEGIC>MOL_PROPERTY
Angle
SciTegic.value.DoubleValue
0.931

@<SCITEGIC>MOL_PROPERTY
Pdih
SciTegic.value.DoubleValue
5.338

@<SCITEGIC>MOL_PROPERTY
Idih
SciTegic.value.DoubleValue
0.000

@<SCITEGIC>MOL_PROPERTY
Tether
SciTegic.value.DoubleValue
0.000

@<TRIPOS>MOLECULE
guest-s16_confgen4.mol2 : confsearch ligand conformer 97
          13          13           1
SMALL
USER_CHARGES
 
@<TRIPOS>ATOM
       1    C1      19.946004   20.196082   22.080828 C.3        1 MOL1        -0.1693
       2    H1      19.929877   20.775045   23.013635 H          1 MOL1         0.0829
       3    H2      20.178429   20.874493   21.251325 H          1 MOL1         0.0829
       4    C2      18.714261   19.254172   21.873596 C.3        1 MOL1        -0.1768
       5    H3      18.552441   18.932988   20.837040 H          1 MOL1         0.0829
       6    H4      17.762667   19.606885   22.286190 H          1 MOL1         0.0829
       7    C3      19.500050   18.234513   22.752246 C.3        1 MOL1         0.1211
       8    H5      19.391361   18.400381   23.832864 H          1 MOL1         0.0786
       9    C4      20.783498   18.876274   22.144176 C.3        1 MOL1        -0.1768
      10    H6      21.075938   18.469993   21.167960 H          1 MOL1         0.0829
      11    H7      21.663033   18.892419   22.796954 H          1 MOL1         0.0829
      12    O1      19.294772   16.878300   22.431161 O.3        1 MOL1        -0.5515
      13    H8      18.389769   16.642836   22.729035 H          1 MOL1         0.3773
@<TRIPOS>BOND
    1     1     2    1
    2     1     3    1
    3     1     4    1
    4     4     5    1
    5     4     6    1
    6     4     7    1
    7     7     8    1
    8     1     9    1
    9     7     9    1
   10     9    10    1
   11     9    11    1
   12     7    12    1
   13    12    13    1
@<TRIPOS>SUBSTRUCTURE
       1 MOL1            1 RESIDUE      1      MOL     
@<SCITEGIC>MOL_PROPERTY
VConf Rank
SciTegic.value.IntegerValue
97

@<SCITEGIC>MOL_PROPERTY
Conf_Id
SciTegic.value.IntegerValue
19

@<SCITEGIC>MOL_PROPERTY
Delta U+W
SciTegic.value.DoubleValue
-0.011

@<SCITEGIC>MOL_PROPERTY
U+W
SciTegic.value.DoubleValue
-3.142

@<SCITEGIC>MOL_PROPERTY
Grad RMS
SciTegic.value.DoubleValue
0.000000

@<SCITEGIC>MOL_PROPERTY
U
SciTegic.value.DoubleValue
-0.154

@<SCITEGIC>MOL_PROPERTY
W
SciTegic.value.DoubleValue
-2.989

@<SCITEGIC>MOL_PROPERTY
W(PB)
SciTegic.value.DoubleValue
-4.588

@<SCITEGIC>MOL_PROPERTY
W(SA)
SciTegic.value.DoubleValue
1.599

@<SCITEGIC>MOL_PROPERTY
Valence
SciTegic.value.DoubleValue
6.334

@<SCITEGIC>MOL_PROPERTY
Coulomb
SciTegic.value.DoubleValue
-7.439

@<SCITEGIC>MOL_PROPERTY
VdW
SciTegic.value.DoubleValue
0.951

@<SCITEGIC>MOL_PROPERTY
VdW6
SciTegic.value.DoubleValue
-2.120

@<SCITEGIC>MOL_PROPERTY
VdW12
SciTegic.value.DoubleValue
3.072

@<SCITEGIC>MOL_PROPERTY
Bond
SciTegic.value.DoubleValue
0.065

@<SCITEGIC>MOL_PROPERTY
Angle
SciTegic.value.DoubleValue
0.930

@<SCITEGIC>MOL_PROPERTY
Pdih
SciTegic.value.DoubleValue
5.339

@<SCITEGIC>MOL_PROPERTY
Idih
SciTegic.value.DoubleValue
0.000

@<SCITEGIC>MOL_PROPERTY
Tether
SciTegic.value.DoubleValue
0.000

@<TRIPOS>MOLECULE
guest-s16_confgen4.mol2 : confsearch ligand conformer 98
          13          13           1
SMALL
USER_CHARGES
 
@<TRIPOS>ATOM
       1    C1      19.963847   18.029703   21.681213 C.3        1 MOL1        -0.1693
       2    H1      19.790800   16.952046   21.577845 H          1 MOL1         0.0829
       3    H2      20.678614   18.346042   20.910340 H          1 MOL1         0.0829
       4    C2      20.296395   18.538426   23.123290 C.3        1 MOL1        -0.1768
       5    H3      19.831447   17.957723   23.929128 H          1 MOL1         0.0829
       6    H4      21.359382   18.669500   23.354091 H          1 MOL1         0.0829
       7    C3      19.520347   19.837407   22.741418 C.3        1 MOL1         0.1211
       8    H5      18.950094   20.287746   23.564108 H          1 MOL1         0.0786
       9    C4      18.685144   18.925206   21.789356 C.3        1 MOL1        -0.1768
      10    H6      18.343545   19.389330   20.857557 H          1 MOL1         0.0829
      11    H7      17.829110   18.437725   22.271583 H          1 MOL1         0.0829
      12    O1      20.296515   20.825141   22.093276 O.3        1 MOL1        -0.5515
      13    H8      19.676446   21.503702   21.750895 H          1 MOL1         0.3773
@<TRIPOS>BOND
    1     1     2    1
    2     1     3    1
    3     1     4    1
    4     4     5    1
    5     4     6    1
    6     4     7    1
    7     7     8    1
    8     1     9    1
    9     7     9    1
   10     9    10    1
   11     9    11    1
   12     7    12    1
   13    12    13    1
@<TRIPOS>SUBSTRUCTURE
       1 MOL1            1 RESIDUE      1      MOL     
@<SCITEGIC>MOL_PROPERTY
VConf Rank
SciTegic.value.IntegerValue
98

@<SCITEGIC>MOL_PROPERTY
Conf_Id
SciTegic.value.IntegerValue
20

@<SCITEGIC>MOL_PROPERTY
Delta U+W
SciTegic.value.DoubleValue
1.030

@<SCITEGIC>MOL_PROPERTY
U+W
SciTegic.value.DoubleValue
-2.101

@<SCITEGIC>MOL_PROPERTY
Grad RMS
SciTegic.value.DoubleValue
0.000000

@<SCITEGIC>MOL_PROPERTY
U
SciTegic.value.DoubleValue
0.841

@<SCITEGIC>MOL_PROPERTY
W
SciTegic.value.DoubleValue
-2.942

@<SCITEGIC>MOL_PROPERTY
W(PB)
SciTegic.value.DoubleValue
-4.530

@<SCITEGIC>MOL_PROPERTY
W(SA)
SciTegic.value.DoubleValue
1.587

@<SCITEGIC>MOL_PROPERTY
Valence
SciTegic.value.DoubleValue
6.736

@<SCITEGIC>MOL_PROPERTY
Coulomb
SciTegic.value.DoubleValue
-7.246

@<SCITEGIC>MOL_PROPERTY
VdW
SciTegic.value.DoubleValue
1.352

@<SCITEGIC>MOL_PROPERTY
VdW6
SciTegic.value.DoubleValue
-2.500

@<SCITEGIC>MOL_PROPERTY
VdW12
SciTegic.value.DoubleValue
3.851

@<SCITEGIC>MOL_PROPERTY
Bond
SciTegic.value.DoubleValue
0.063

@<SCITEGIC>MOL_PROPERTY
Angle
SciTegic.value.DoubleValue
0.687

@<SCITEGIC>MOL_PROPERTY
Pdih
SciTegic.value.DoubleValue
5.986

@<SCITEGIC>MOL_PROPERTY
Idih
SciTegic.value.DoubleValue
0.000

@<SCITEGIC>MOL_PROPERTY
Tether
SciTegic.value.DoubleValue
0.000

@<TRIPOS>MOLECULE
guest-s16_confgen4.mol2 : confsearch ligand conformer 99
          13          13           1
SMALL
USER_CHARGES
 
@<TRIPOS>ATOM
       1    C1      18.516629   18.645514   22.025864 C.3        1 MOL1        -0.1693
       2    H1      17.988109   18.122811   22.834020 H          1 MOL1         0.0829
       3    H2      17.821378   18.792435   21.190721 H          1 MOL1         0.0829
       4    C2      19.912646   18.041790   21.659788 C.3        1 MOL1        -0.1768
       5    H3      20.014309   16.957129   21.775838 H          1 MOL1         0.0829
       6    H4      20.288776   18.326571   20.669427 H          1 MOL1         0.0829
       7    C3      20.457303   18.902590   22.839419 C.3        1 MOL1         0.1211
       8    H5      20.338308   18.431734   23.824725 H          1 MOL1         0.0786
       9    C4      19.321601   19.907682   22.480076 C.3        1 MOL1        -0.1768
      10    H6      19.565624   20.609512   21.673060 H          1 MOL1         0.0829
      11    H7      18.901283   20.470889   23.320566 H          1 MOL1         0.0829
      12    O1      21.768434   19.389004   22.677701 O.3        1 MOL1        -0.5515
      13    H8      21.814202   19.795176   21.786831 H          1 MOL1         0.3773
@<TRIPOS>BOND
    1     1     2    1
    2     1     3    1
    3     1     4    1
    4     4     5    1
    5     4     6    1
    6     4     7    1
    7     7     8    1
    8     1     9    1
    9     7     9    1
   10     9    10    1
   11     9    11    1
   12     7    12    1
   13    12    13    1
@<TRIPOS>SUBSTRUCTURE
       1 MOL1            1 RESIDUE      1      MOL     
@<SCITEGIC>MOL_PROPERTY
VConf Rank
SciTegic.value.IntegerValue
99

@<SCITEGIC>MOL_PROPERTY
Conf_Id
SciTegic.value.IntegerValue
24

@<SCITEGIC>MOL_PROPERTY
Delta U+W
SciTegic.value.DoubleValue
0.356

@<SCITEGIC>MOL_PROPERTY
U+W
SciTegic.value.DoubleValue
-2.775

@<SCITEGIC>MOL_PROPERTY
Grad RMS
SciTegic.value.DoubleValue
0.000000

@<SCITEGIC>MOL_PROPERTY
U
SciTegic.value.DoubleValue
-0.184

@<SCITEGIC>MOL_PROPERTY
W
SciTegic.value.DoubleValue
-2.591

@<SCITEGIC>MOL_PROPERTY
W(PB)
SciTegic.value.DoubleValue
-4.184

@<SCITEGIC>MOL_PROPERTY
W(SA)
SciTegic.value.DoubleValue
1.593

@<SCITEGIC>MOL_PROPERTY
Valence
SciTegic.value.DoubleValue
6.840

@<SCITEGIC>MOL_PROPERTY
Coulomb
SciTegic.value.DoubleValue
-7.916

@<SCITEGIC>MOL_PROPERTY
VdW
SciTegic.value.DoubleValue
0.893

@<SCITEGIC>MOL_PROPERTY
VdW6
SciTegic.value.DoubleValue
-2.167

@<SCITEGIC>MOL_PROPERTY
VdW12
SciTegic.value.DoubleValue
3.060

@<SCITEGIC>MOL_PROPERTY
Bond
SciTegic.value.DoubleValue
0.059

@<SCITEGIC>MOL_PROPERTY
Angle
SciTegic.value.DoubleValue
0.918

@<SCITEGIC>MOL_PROPERTY
Pdih
SciTegic.value.DoubleValue
5.862

@<SCITEGIC>MOL_PROPERTY
Idih
SciTegic.value.DoubleValue
0.000

@<SCITEGIC>MOL_PROPERTY
Tether
SciTegic.value.DoubleValue
0.000

@<TRIPOS>MOLECULE
guest-s16_confgen4.mol2 : confsearch ligand conformer 100
          13          13           1
SMALL
USER_CHARGES
 
@<TRIPOS>ATOM
       1    C1      19.892426   19.527693   21.252155 C.3        1 MOL1        -0.1693
       2    H1      19.665635   19.603787   20.182039 H          1 MOL1         0.0829
       3    H2      20.610573   20.316045   21.511116 H          1 MOL1         0.0829
       4    C2      20.266418   18.099540   21.772393 C.3        1 MOL1        -0.1768
       5    H3      19.788176   17.278076   21.225129 H          1 MOL1         0.0829
       6    H4      21.336817   17.882373   21.860670 H          1 MOL1         0.0829
       7    C3      19.538789   18.491224   23.095697 C.3        1 MOL1         0.1211
       8    H5      18.996445   17.671152   23.583377 H          1 MOL1         0.0786
       9    C4      18.656991   19.422703   22.207568 C.3        1 MOL1        -0.1768
      10    H6      17.784142   18.925661   21.767002 H          1 MOL1         0.0829
      11    H7      18.326521   20.357238   22.674626 H          1 MOL1         0.0829
      12    O1      20.346145   19.163274   24.038168 O.3        1 MOL1        -0.5515
      13    H8      20.802778   19.879205   23.550067 H          1 MOL1         0.3773
@<TRIPOS>BOND
    1     1     2    1
    2     1     3    1
    3     1     4    1
    4     4     5    1
    5     4     6    1
    6     4     7    1
    7     7     8    1
    8     1     9    1
    9     7     9    1
   10     9    10    1
   11     9    11    1
   12     7    12    1
   13    12    13    1
@<TRIPOS>SUBSTRUCTURE
       1 MOL1            1 RESIDUE      1      MOL     
@<SCITEGIC>MOL_PROPERTY
VConf Rank
SciTegic.value.IntegerValue
100

@<SCITEGIC>MOL_PROPERTY
Conf_Id
SciTegic.value.IntegerValue
44

@<SCITEGIC>MOL_PROPERTY
Delta U+W
SciTegic.value.DoubleValue
0.823

@<SCITEGIC>MOL_PROPERTY
U+W
SciTegic.value.DoubleValue
-2.308

@<SCITEGIC>MOL_PROPERTY
Grad RMS
SciTegic.value.DoubleValue
0.000000

@<SCITEGIC>MOL_PROPERTY
U
SciTegic.value.DoubleValue
0.039

@<SCITEGIC>MOL_PROPERTY
W
SciTegic.value.DoubleValue
-2.348

@<SCITEGIC>MOL_PROPERTY
W(PB)
SciTegic.value.DoubleValue
-3.918

@<SCITEGIC>MOL_PROPERTY
W(SA)
SciTegic.value.DoubleValue
1.571

@<SCITEGIC>MOL_PROPERTY
Valence
SciTegic.value.DoubleValue
7.320

@<SCITEGIC>MOL_PROPERTY
Coulomb
SciTegic.value.DoubleValue
-8.530

@<SCITEGIC>MOL_PROPERTY
VdW
SciTegic.value.DoubleValue
1.249

@<SCITEGIC>MOL_PROPERTY
VdW6
SciTegic.value.DoubleValue
-2.615

@<SCITEGIC>MOL_PROPERTY
VdW12
SciTegic.value.DoubleValue
3.864

@<SCITEGIC>MOL_PROPERTY
Bond
SciTegic.value.DoubleValue
0.056

@<SCITEGIC>MOL_PROPERTY
Angle
SciTegic.value.DoubleValue
0.694

@<SCITEGIC>MOL_PROPERTY
Pdih
SciTegic.value.DoubleValue
6.570

@<SCITEGIC>MOL_PROPERTY
Idih
SciTegic.value.DoubleValue
0.000

@<SCITEGIC>MOL_PROPERTY
Tether
SciTegic.value.DoubleValue
0.000

@<TRIPOS>MOLECULE
guest-s16_confgen4.mol2 : confsearch ligand conformer 101
          13          13           1
SMALL
USER_CHARGES
 
@<TRIPOS>ATOM
       1    C1      20.586714   19.681153   21.549509 C.3        1 MOL1        -0.1693
       2    H1      20.368897   19.720518   20.474060 H          1 MOL1         0.0829
       3    H2      21.507564   20.244677   21.741380 H          1 MOL1         0.0829
       4    C2      20.512080   18.251579   22.180423 C.3        1 MOL1        -0.1768
       5    H3      20.802597   17.419836   21.529451 H          1 MOL1         0.0829
       6    H4      21.030669   18.145442   23.141353 H          1 MOL1         0.0829
       7    C3      18.980844   18.516336   22.299031 C.3        1 MOL1         0.1211
       8    H5      18.422496   18.307173   21.376231 H          1 MOL1         0.0786
       9    C4      19.371307   20.014780   22.476227 C.3        1 MOL1        -0.1768
      10    H6      18.653725   20.744979   22.086283 H          1 MOL1         0.0829
      11    H7      19.640990   20.297373   23.501510 H          1 MOL1         0.0829
      12    O1      18.351190   17.922052   23.410295 O.3        1 MOL1        -0.5515
      13    H8      17.443655   18.292010   23.462389 H          1 MOL1         0.3773
@<TRIPOS>BOND
    1     1     2    1
    2     1     3    1
    3     1     4    1
    4     4     5    1
    5     4     6    1
    6     4     7    1
    7     7     8    1
    8     1     9    1
    9     7     9    1
   10     9    10    1
   11     9    11    1
   12     7    12    1
   13    12    13    1
@<TRIPOS>SUBSTRUCTURE
       1 MOL1            1 RESIDUE      1      MOL     
@<SCITEGIC>MOL_PROPERTY
VConf Rank
SciTegic.value.IntegerValue
101

@<SCITEGIC>MOL_PROPERTY
Conf_Id
SciTegic.value.IntegerValue
22

@<SCITEGIC>MOL_PROPERTY
Delta U+W
SciTegic.value.DoubleValue
0.000

@<SCITEGIC>MOL_PROPERTY
U+W
SciTegic.value.DoubleValue
-3.131

@<SCITEGIC>MOL_PROPERTY
Grad RMS
SciTegic.value.DoubleValue
0.000000

@<SCITEGIC>MOL_PROPERTY
U
SciTegic.value.DoubleValue
-0.154

@<SCITEGIC>MOL_PROPERTY
W
SciTegic.value.DoubleValue
-2.978

@<SCITEGIC>MOL_PROPERTY
W(PB)
SciTegic.value.DoubleValue
-4.579

@<SCITEGIC>MOL_PROPERTY
W(SA)
SciTegic.value.DoubleValue
1.601

@<SCITEGIC>MOL_PROPERTY
Valence
SciTegic.value.DoubleValue
6.333

@<SCITEGIC>MOL_PROPERTY
Coulomb
SciTegic.value.DoubleValue
-7.439

@<SCITEGIC>MOL_PROPERTY
VdW
SciTegic.value.DoubleValue
0.952

@<SCITEGIC>MOL_PROPERTY
VdW6
SciTegic.value.DoubleValue
-2.120

@<SCITEGIC>MOL_PROPERTY
VdW12
SciTegic.value.DoubleValue
3.072

@<SCITEGIC>MOL_PROPERTY
Bond
SciTegic.value.DoubleValue
0.065

@<SCITEGIC>MOL_PROPERTY
Angle
SciTegic.value.DoubleValue
0.931

@<SCITEGIC>MOL_PROPERTY
Pdih
SciTegic.value.DoubleValue
5.338

@<SCITEGIC>MOL_PROPERTY
Idih
SciTegic.value.DoubleValue
0.000

@<SCITEGIC>MOL_PROPERTY
Tether
SciTegic.value.DoubleValue
0.000

@<TRIPOS>MOLECULE
guest-s16_confgen4.mol2 : confsearch ligand conformer 102
          13          13           1
SMALL
USER_CHARGES
 
@<TRIPOS>ATOM
       1    C1      19.182079   18.087823   23.161977 C.3        1 MOL1        -0.1693
       2    H1      18.152278   17.752379   22.981497 H          1 MOL1         0.0829
       3    H2      19.531163   17.654708   24.106905 H          1 MOL1         0.0829
       4    C2      19.410213   19.625358   22.985141 C.3        1 MOL1        -0.1768
       5    H3      20.316600   20.012428   23.467254 H          1 MOL1         0.0829
       6    H4      18.566299   20.271703   23.250134 H          1 MOL1         0.0829
       7    C3      19.570405   19.303877   21.468506 C.3        1 MOL1         0.1211
       8    H5      18.617972   19.222715   20.926892 H          1 MOL1         0.0786
       9    C4      20.144571   17.933351   21.938436 C.3        1 MOL1        -0.1768
      10    H6      21.212610   17.949847   22.188645 H          1 MOL1         0.0829
      11    H7      19.951113   17.083289   21.275165 H          1 MOL1         0.0829
      12    O1      20.474516   20.127939   20.769895 O.3        1 MOL1        -0.5515
      13    H8      20.052278   21.008965   20.676563 H          1 MOL1         0.3773
@<TRIPOS>BOND
    1     1     2    1
    2     1     3    1
    3     1     4    1
    4     4     5    1
    5     4     6    1
    6     4     7    1
    7     7     8    1
    8     1     9    1
    9     7     9    1
   10     9    10    1
   11     9    11    1
   12     7    12    1
   13    12    13    1
@<TRIPOS>SUBSTRUCTURE
       1 MOL1            1 RESIDUE      1      MOL     
@<SCITEGIC>MOL_PROPERTY
VConf Rank
SciTegic.value.IntegerValue
102

@<SCITEGIC>MOL_PROPERTY
Conf_Id
SciTegic.value.IntegerValue
19

@<SCITEGIC>MOL_PROPERTY
Delta U+W
SciTegic.value.DoubleValue
-0.011

@<SCITEGIC>MOL_PROPERTY
U+W
SciTegic.value.DoubleValue
-3.142

@<SCITEGIC>MOL_PROPERTY
Grad RMS
SciTegic.value.DoubleValue
0.000000

@<SCITEGIC>MOL_PROPERTY
U
SciTegic.value.DoubleValue
-0.154

@<SCITEGIC>MOL_PROPERTY
W
SciTegic.value.DoubleValue
-2.989

@<SCITEGIC>MOL_PROPERTY
W(PB)
SciTegic.value.DoubleValue
-4.588

@<SCITEGIC>MOL_PROPERTY
W(SA)
SciTegic.value.DoubleValue
1.599

@<SCITEGIC>MOL_PROPERTY
Valence
SciTegic.value.DoubleValue
6.334

@<SCITEGIC>MOL_PROPERTY
Coulomb
SciTegic.value.DoubleValue
-7.439

@<SCITEGIC>MOL_PROPERTY
VdW
SciTegic.value.DoubleValue
0.951

@<SCITEGIC>MOL_PROPERTY
VdW6
SciTegic.value.DoubleValue
-2.120

@<SCITEGIC>MOL_PROPERTY
VdW12
SciTegic.value.DoubleValue
3.072

@<SCITEGIC>MOL_PROPERTY
Bond
SciTegic.value.DoubleValue
0.065

@<SCITEGIC>MOL_PROPERTY
Angle
SciTegic.value.DoubleValue
0.930

@<SCITEGIC>MOL_PROPERTY
Pdih
SciTegic.value.DoubleValue
5.339

@<SCITEGIC>MOL_PROPERTY
Idih
SciTegic.value.DoubleValue
0.000

@<SCITEGIC>MOL_PROPERTY
Tether
SciTegic.value.DoubleValue
0.000

@<TRIPOS>MOLECULE
guest-s16_confgen4.mol2 : confsearch ligand conformer 103
          13          13           1
SMALL
USER_CHARGES
 
@<TRIPOS>ATOM
       1    C1      20.789266   18.778277   21.958758 C.3        1 MOL1        -0.1693
       2    H1      21.822229   18.679962   22.312733 H          1 MOL1         0.0829
       3    H2      20.744218   18.450836   20.911877 H          1 MOL1         0.0829
       4    C2      20.092619   20.150967   22.240495 C.3        1 MOL1        -0.1768
       5    H3      20.430056   20.653207   23.155184 H          1 MOL1         0.0829
       6    H4      20.105401   20.874804   21.418126 H          1 MOL1         0.0829
       7    C3      18.770976   19.338125   22.407749 C.3        1 MOL1         0.1211
       8    H5      18.088723   19.727561   23.174354 H          1 MOL1         0.0786
       9    C4      19.684051   18.163887   22.880564 C.3        1 MOL1        -0.1768
      10    H6      19.344616   17.156014   22.617261 H          1 MOL1         0.0829
      11    H7      19.922927   18.184007   23.950847 H          1 MOL1         0.0829
      12    O1      18.063910   19.098847   21.207353 O.3        1 MOL1        -0.5515
      13    H8      17.362694   18.443202   21.408799 H          1 MOL1         0.3773
@<TRIPOS>BOND
    1     1     2    1
    2     1     3    1
    3     1     4    1
    4     4     5    1
    5     4     6    1
    6     4     7    1
    7     7     8    1
    8     1     9    1
    9     7     9    1
   10     9    10    1
   11     9    11    1
   12     7    12    1
   13    12    13    1
@<TRIPOS>SUBSTRUCTURE
       1 MOL1            1 RESIDUE      1      MOL     
@<SCITEGIC>MOL_PROPERTY
VConf Rank
SciTegic.value.IntegerValue
103

@<SCITEGIC>MOL_PROPERTY
Conf_Id
SciTegic.value.IntegerValue
20

@<SCITEGIC>MOL_PROPERTY
Delta U+W
SciTegic.value.DoubleValue
1.030

@<SCITEGIC>MOL_PROPERTY
U+W
SciTegic.value.DoubleValue
-2.101

@<SCITEGIC>MOL_PROPERTY
Grad RMS
SciTegic.value.DoubleValue
0.000000

@<SCITEGIC>MOL_PROPERTY
U
SciTegic.value.DoubleValue
0.841

@<SCITEGIC>MOL_PROPERTY
W
SciTegic.value.DoubleValue
-2.942

@<SCITEGIC>MOL_PROPERTY
W(PB)
SciTegic.value.DoubleValue
-4.530

@<SCITEGIC>MOL_PROPERTY
W(SA)
SciTegic.value.DoubleValue
1.587

@<SCITEGIC>MOL_PROPERTY
Valence
SciTegic.value.DoubleValue
6.736

@<SCITEGIC>MOL_PROPERTY
Coulomb
SciTegic.value.DoubleValue
-7.246

@<SCITEGIC>MOL_PROPERTY
VdW
SciTegic.value.DoubleValue
1.352

@<SCITEGIC>MOL_PROPERTY
VdW6
SciTegic.value.DoubleValue
-2.500

@<SCITEGIC>MOL_PROPERTY
VdW12
SciTegic.value.DoubleValue
3.851

@<SCITEGIC>MOL_PROPERTY
Bond
SciTegic.value.DoubleValue
0.063

@<SCITEGIC>MOL_PROPERTY
Angle
SciTegic.value.DoubleValue
0.687

@<SCITEGIC>MOL_PROPERTY
Pdih
SciTegic.value.DoubleValue
5.986

@<SCITEGIC>MOL_PROPERTY
Idih
SciTegic.value.DoubleValue
0.000

@<SCITEGIC>MOL_PROPERTY
Tether
SciTegic.value.DoubleValue
0.000

@<TRIPOS>MOLECULE
guest-s16_confgen4.mol2 : confsearch ligand conformer 104
          13          13           1
SMALL
USER_CHARGES
 
@<TRIPOS>ATOM
       1    C1      19.646580   18.365626   23.346789 C.3        1 MOL1        -0.1693
       2    H1      19.569033   18.991015   24.245980 H          1 MOL1         0.0829
       3    H2      19.618265   17.312127   23.649709 H          1 MOL1         0.0829
       4    C2      20.798077   18.768353   22.367390 C.3        1 MOL1        -0.1768
       5    H3      21.699140   19.187182   22.828867 H          1 MOL1         0.0829
       6    H4      21.096326   17.981420   21.663705 H          1 MOL1         0.0829
       7    C3      19.784532   19.806329   21.797751 C.3        1 MOL1         0.1211
       8    H5      19.735880   20.741144   22.372595 H          1 MOL1         0.0786
       9    C4      18.683942   18.772010   22.182513 C.3        1 MOL1        -0.1768
      10    H6      18.509656   17.985894   21.437507 H          1 MOL1         0.0829
      11    H7      17.717902   19.194069   22.480714 H          1 MOL1         0.0829
      12    O1      19.905352   20.076586   20.421458 O.3        1 MOL1        -0.5515
      13    H8      19.943916   19.211080   19.963057 H          1 MOL1         0.3773
@<TRIPOS>BOND
    1     1     2    1
    2     1     3    1
    3     1     4    1
    4     4     5    1
    5     4     6    1
    6     4     7    1
    7     7     8    1
    8     1     9    1
    9     7     9    1
   10     9    10    1
   11     9    11    1
   12     7    12    1
   13    12    13    1
@<TRIPOS>SUBSTRUCTURE
       1 MOL1            1 RESIDUE      1      MOL     
@<SCITEGIC>MOL_PROPERTY
VConf Rank
SciTegic.value.IntegerValue
104

@<SCITEGIC>MOL_PROPERTY
Conf_Id
SciTegic.value.IntegerValue
24

@<SCITEGIC>MOL_PROPERTY
Delta U+W
SciTegic.value.DoubleValue
0.356

@<SCITEGIC>MOL_PROPERTY
U+W
SciTegic.value.DoubleValue
-2.775

@<SCITEGIC>MOL_PROPERTY
Grad RMS
SciTegic.value.DoubleValue
0.000000

@<SCITEGIC>MOL_PROPERTY
U
SciTegic.value.DoubleValue
-0.184

@<SCITEGIC>MOL_PROPERTY
W
SciTegic.value.DoubleValue
-2.591

@<SCITEGIC>MOL_PROPERTY
W(PB)
SciTegic.value.DoubleValue
-4.184

@<SCITEGIC>MOL_PROPERTY
W(SA)
SciTegic.value.DoubleValue
1.593

@<SCITEGIC>MOL_PROPERTY
Valence
SciTegic.value.DoubleValue
6.840

@<SCITEGIC>MOL_PROPERTY
Coulomb
SciTegic.value.DoubleValue
-7.916

@<SCITEGIC>MOL_PROPERTY
VdW
SciTegic.value.DoubleValue
0.893

@<SCITEGIC>MOL_PROPERTY
VdW6
SciTegic.value.DoubleValue
-2.167

@<SCITEGIC>MOL_PROPERTY
VdW12
SciTegic.value.DoubleValue
3.060

@<SCITEGIC>MOL_PROPERTY
Bond
SciTegic.value.DoubleValue
0.059

@<SCITEGIC>MOL_PROPERTY
Angle
SciTegic.value.DoubleValue
0.918

@<SCITEGIC>MOL_PROPERTY
Pdih
SciTegic.value.DoubleValue
5.862

@<SCITEGIC>MOL_PROPERTY
Idih
SciTegic.value.DoubleValue
0.000

@<SCITEGIC>MOL_PROPERTY
Tether
SciTegic.value.DoubleValue
0.000

@<TRIPOS>MOLECULE
guest-s16_confgen4.mol2 : confsearch ligand conformer 105
          13          13           1
SMALL
USER_CHARGES
 
@<TRIPOS>ATOM
       1    C1      20.179606   19.943161   21.920104 C.3        1 MOL1        -0.1693
       2    H1      21.031234   20.418482   21.418933 H          1 MOL1         0.0829
       3    H2      19.519372   20.731270   22.303863 H          1 MOL1         0.0829
       4    C2      20.532593   18.819821   22.951435 C.3        1 MOL1        -0.1768
       5    H3      21.448497   18.262817   22.719310 H          1 MOL1         0.0829
       6    H4      20.567035   19.123417   24.003743 H          1 MOL1         0.0829
       7    C3      19.222121   18.110777   22.488930 C.3        1 MOL1         0.1211
       8    H5      19.276126   17.014951   22.461796 H          1 MOL1         0.0786
       9    C4      19.456225   18.812240   21.115198 C.3        1 MOL1        -0.1768
      10    H6      20.108219   18.253379   20.432854 H          1 MOL1         0.0829
      11    H7      18.553782   19.109239   20.569216 H          1 MOL1         0.0829
      12    O1      18.056039   18.519504   23.170782 O.3        1 MOL1        -0.5515
      13    H8      18.061009   19.498913   23.163844 H          1 MOL1         0.3773
@<TRIPOS>BOND
    1     1     2    1
    2     1     3    1
    3     1     4    1
    4     4     5    1
    5     4     6    1
    6     4     7    1
    7     7     8    1
    8     1     9    1
    9     7     9    1
   10     9    10    1
   11     9    11    1
   12     7    12    1
   13    12    13    1
@<TRIPOS>SUBSTRUCTURE
       1 MOL1            1 RESIDUE      1      MOL     
@<SCITEGIC>MOL_PROPERTY
VConf Rank
SciTegic.value.IntegerValue
105

@<SCITEGIC>MOL_PROPERTY
Conf_Id
SciTegic.value.IntegerValue
44

@<SCITEGIC>MOL_PROPERTY
Delta U+W
SciTegic.value.DoubleValue
0.823

@<SCITEGIC>MOL_PROPERTY
U+W
SciTegic.value.DoubleValue
-2.308

@<SCITEGIC>MOL_PROPERTY
Grad RMS
SciTegic.value.DoubleValue
0.000000

@<SCITEGIC>MOL_PROPERTY
U
SciTegic.value.DoubleValue
0.039

@<SCITEGIC>MOL_PROPERTY
W
SciTegic.value.DoubleValue
-2.348

@<SCITEGIC>MOL_PROPERTY
W(PB)
SciTegic.value.DoubleValue
-3.918

@<SCITEGIC>MOL_PROPERTY
W(SA)
SciTegic.value.DoubleValue
1.571

@<SCITEGIC>MOL_PROPERTY
Valence
SciTegic.value.DoubleValue
7.320

@<SCITEGIC>MOL_PROPERTY
Coulomb
SciTegic.value.DoubleValue
-8.530

@<SCITEGIC>MOL_PROPERTY
VdW
SciTegic.value.DoubleValue
1.249

@<SCITEGIC>MOL_PROPERTY
VdW6
SciTegic.value.DoubleValue
-2.615

@<SCITEGIC>MOL_PROPERTY
VdW12
SciTegic.value.DoubleValue
3.864

@<SCITEGIC>MOL_PROPERTY
Bond
SciTegic.value.DoubleValue
0.056

@<SCITEGIC>MOL_PROPERTY
Angle
SciTegic.value.DoubleValue
0.694

@<SCITEGIC>MOL_PROPERTY
Pdih
SciTegic.value.DoubleValue
6.570

@<SCITEGIC>MOL_PROPERTY
Idih
SciTegic.value.DoubleValue
0.000

@<SCITEGIC>MOL_PROPERTY
Tether
SciTegic.value.DoubleValue
0.000

@<TRIPOS>MOLECULE
guest-s16_confgen4.mol2 : confsearch ligand conformer 106
          13          13           1
SMALL
USER_CHARGES
 
@<TRIPOS>ATOM
       1    C1      20.461477   19.822950   21.539887 C.3        1 MOL1        -0.1693
       2    H1      20.986278   19.294612   20.733024 H          1 MOL1         0.0829
       3    H2      20.720050   20.887273   21.487981 H          1 MOL1         0.0829
       4    C2      20.584729   19.153964   22.948637 C.3        1 MOL1        -0.1768
       5    H3      21.524110   18.629404   23.154454 H          1 MOL1         0.0829
       6    H4      20.357777   19.816023   23.793478 H          1 MOL1         0.0829
       7    C3      19.393984   18.257760   22.492797 C.3        1 MOL1         0.1211
       8    H5      19.697031   17.394299   21.884800 H          1 MOL1         0.0786
       9    C4      18.937140   19.491110   21.656536 C.3        1 MOL1        -0.1768
      10    H6      18.419260   19.266604   20.717616 H          1 MOL1         0.0829
      11    H7      18.349207   20.229043   22.216522 H          1 MOL1         0.0829
      12    O1      18.510672   17.863203   23.516824 O.3        1 MOL1        -0.5515
      13    H8      17.731010   17.451661   23.085587 H          1 MOL1         0.3773
@<TRIPOS>BOND
    1     1     2    1
    2     1     3    1
    3     1     4    1
    4     4     5    1
    5     4     6    1
    6     4     7    1
    7     7     8    1
    8     1     9    1
    9     7     9    1
   10     9    10    1
   11     9    11    1
   12     7    12    1
   13    12    13    1
@<TRIPOS>SUBSTRUCTURE
       1 MOL1            1 RESIDUE      1      MOL     
@<SCITEGIC>MOL_PROPERTY
VConf Rank
SciTegic.value.IntegerValue
106

@<SCITEGIC>MOL_PROPERTY
Conf_Id
SciTegic.value.IntegerValue
22

@<SCITEGIC>MOL_PROPERTY
Delta U+W
SciTegic.value.DoubleValue
0.000

@<SCITEGIC>MOL_PROPERTY
U+W
SciTegic.value.DoubleValue
-3.131

@<SCITEGIC>MOL_PROPERTY
Grad RMS
SciTegic.value.DoubleValue
0.000000

@<SCITEGIC>MOL_PROPERTY
U
SciTegic.value.DoubleValue
-0.154

@<SCITEGIC>MOL_PROPERTY
W
SciTegic.value.DoubleValue
-2.978

@<SCITEGIC>MOL_PROPERTY
W(PB)
SciTegic.value.DoubleValue
-4.579

@<SCITEGIC>MOL_PROPERTY
W(SA)
SciTegic.value.DoubleValue
1.601

@<SCITEGIC>MOL_PROPERTY
Valence
SciTegic.value.DoubleValue
6.333

@<SCITEGIC>MOL_PROPERTY
Coulomb
SciTegic.value.DoubleValue
-7.439

@<SCITEGIC>MOL_PROPERTY
VdW
SciTegic.value.DoubleValue
0.952

@<SCITEGIC>MOL_PROPERTY
VdW6
SciTegic.value.DoubleValue
-2.120

@<SCITEGIC>MOL_PROPERTY
VdW12
SciTegic.value.DoubleValue
3.072

@<SCITEGIC>MOL_PROPERTY
Bond
SciTegic.value.DoubleValue
0.065

@<SCITEGIC>MOL_PROPERTY
Angle
SciTegic.value.DoubleValue
0.931

@<SCITEGIC>MOL_PROPERTY
Pdih
SciTegic.value.DoubleValue
5.338

@<SCITEGIC>MOL_PROPERTY
Idih
SciTegic.value.DoubleValue
0.000

@<SCITEGIC>MOL_PROPERTY
Tether
SciTegic.value.DoubleValue
0.000

@<TRIPOS>MOLECULE
guest-s16_confgen4.mol2 : confsearch ligand conformer 107
          13          13           1
SMALL
USER_CHARGES
 
@<TRIPOS>ATOM
       1    C1      18.862009   18.535655   23.246067 C.3        1 MOL1        -0.1693
       2    H1      18.305644   17.612765   23.035547 H          1 MOL1         0.0829
       3    H2      18.570025   18.902456   24.237299 H          1 MOL1         0.0829
       4    C2      18.842743   19.589747   22.090278 C.3        1 MOL1        -0.1768
       5    H3      19.099456   20.611250   22.397562 H          1 MOL1         0.0829
       6    H4      17.931703   19.622626   21.482743 H          1 MOL1         0.0829
       7    C3      20.029801   18.775861   21.492216 C.3        1 MOL1         0.1211
       8    H5      19.719534   17.897636   20.909535 H          1 MOL1         0.0786
       9    C4      20.399594   18.450100   22.970721 C.3        1 MOL1        -0.1768
      10    H6      20.999638   19.221266   23.469554 H          1 MOL1         0.0829
      11    H7      20.867847   17.474491   23.140685 H          1 MOL1         0.0829
      12    O1      20.984476   19.533292   20.785504 O.3        1 MOL1        -0.5515
      13    H8      20.569630   19.807235   19.939299 H          1 MOL1         0.3773
@<TRIPOS>BOND
    1     1     2    1
    2     1     3    1
    3     1     4    1
    4     4     5    1
    5     4     6    1
    6     4     7    1
    7     7     8    1
    8     1     9    1
    9     7     9    1
   10     9    10    1
   11     9    11    1
   12     7    12    1
   13    12    13    1
@<TRIPOS>SUBSTRUCTURE
       1 MOL1            1 RESIDUE      1      MOL     
@<SCITEGIC>MOL_PROPERTY
VConf Rank
SciTegic.value.IntegerValue
107

@<SCITEGIC>MOL_PROPERTY
Conf_Id
SciTegic.value.IntegerValue
19

@<SCITEGIC>MOL_PROPERTY
Delta U+W
SciTegic.value.DoubleValue
-0.011

@<SCITEGIC>MOL_PROPERTY
U+W
SciTegic.value.DoubleValue
-3.142

@<SCITEGIC>MOL_PROPERTY
Grad RMS
SciTegic.value.DoubleValue
0.000000

@<SCITEGIC>MOL_PROPERTY
U
SciTegic.value.DoubleValue
-0.154

@<SCITEGIC>MOL_PROPERTY
W
SciTegic.value.DoubleValue
-2.989

@<SCITEGIC>MOL_PROPERTY
W(PB)
SciTegic.value.DoubleValue
-4.588

@<SCITEGIC>MOL_PROPERTY
W(SA)
SciTegic.value.DoubleValue
1.599

@<SCITEGIC>MOL_PROPERTY
Valence
SciTegic.value.DoubleValue
6.334

@<SCITEGIC>MOL_PROPERTY
Coulomb
SciTegic.value.DoubleValue
-7.439

@<SCITEGIC>MOL_PROPERTY
VdW
SciTegic.value.DoubleValue
0.951

@<SCITEGIC>MOL_PROPERTY
VdW6
SciTegic.value.DoubleValue
-2.120

@<SCITEGIC>MOL_PROPERTY
VdW12
SciTegic.value.DoubleValue
3.072

@<SCITEGIC>MOL_PROPERTY
Bond
SciTegic.value.DoubleValue
0.065

@<SCITEGIC>MOL_PROPERTY
Angle
SciTegic.value.DoubleValue
0.930

@<SCITEGIC>MOL_PROPERTY
Pdih
SciTegic.value.DoubleValue
5.339

@<SCITEGIC>MOL_PROPERTY
Idih
SciTegic.value.DoubleValue
0.000

@<SCITEGIC>MOL_PROPERTY
Tether
SciTegic.value.DoubleValue
0.000

@<TRIPOS>MOLECULE
guest-s16_confgen4.mol2 : confsearch ligand conformer 108
          13          13           1
SMALL
USER_CHARGES
 
@<TRIPOS>ATOM
       1    C1      19.131880   18.200571   21.546162 C.3        1 MOL1        -0.1693
       2    H1      18.325909   17.987105   20.834250 H          1 MOL1         0.0829
       3    H2      19.799692   17.330422   21.591702 H          1 MOL1         0.0829
       4    C2      18.689347   18.753418   22.941690 C.3        1 MOL1        -0.1768
       5    H3      17.773547   19.356503   22.922601 H          1 MOL1         0.0829
       6    H4      18.606308   18.015496   23.747276 H          1 MOL1         0.0829
       7    C3      20.006492   19.590176   22.921870 C.3        1 MOL1         0.1211
       8    H5      19.923585   20.584070   23.380252 H          1 MOL1         0.0786
       9    C4      19.862689   19.572726   21.367807 C.3        1 MOL1        -0.1768
      10    H6      20.799012   19.547959   20.799443 H          1 MOL1         0.0829
      11    H7      19.231056   20.374565   20.966476 H          1 MOL1         0.0829
      12    O1      21.144941   18.919325   23.423905 O.3        1 MOL1        -0.5515
      13    H8      21.927230   19.467362   23.200667 H          1 MOL1         0.3773
@<TRIPOS>BOND
    1     1     2    1
    2     1     3    1
    3     1     4    1
    4     4     5    1
    5     4     6    1
    6     4     7    1
    7     7     8    1
    8     1     9    1
    9     7     9    1
   10     9    10    1
   11     9    11    1
   12     7    12    1
   13    12    13    1
@<TRIPOS>SUBSTRUCTURE
       1 MOL1            1 RESIDUE      1      MOL     
@<SCITEGIC>MOL_PROPERTY
VConf Rank
SciTegic.value.IntegerValue
108

@<SCITEGIC>MOL_PROPERTY
Conf_Id
SciTegic.value.IntegerValue
20

@<SCITEGIC>MOL_PROPERTY
Delta U+W
SciTegic.value.DoubleValue
1.030

@<SCITEGIC>MOL_PROPERTY
U+W
SciTegic.value.DoubleValue
-2.101

@<SCITEGIC>MOL_PROPERTY
Grad RMS
SciTegic.value.DoubleValue
0.000000

@<SCITEGIC>MOL_PROPERTY
U
SciTegic.value.DoubleValue
0.841

@<SCITEGIC>MOL_PROPERTY
W
SciTegic.value.DoubleValue
-2.942

@<SCITEGIC>MOL_PROPERTY
W(PB)
SciTegic.value.DoubleValue
-4.530

@<SCITEGIC>MOL_PROPERTY
W(SA)
SciTegic.value.DoubleValue
1.587

@<SCITEGIC>MOL_PROPERTY
Valence
SciTegic.value.DoubleValue
6.736

@<SCITEGIC>MOL_PROPERTY
Coulomb
SciTegic.value.DoubleValue
-7.246

@<SCITEGIC>MOL_PROPERTY
VdW
SciTegic.value.DoubleValue
1.352

@<SCITEGIC>MOL_PROPERTY
VdW6
SciTegic.value.DoubleValue
-2.500

@<SCITEGIC>MOL_PROPERTY
VdW12
SciTegic.value.DoubleValue
3.851

@<SCITEGIC>MOL_PROPERTY
Bond
SciTegic.value.DoubleValue
0.063

@<SCITEGIC>MOL_PROPERTY
Angle
SciTegic.value.DoubleValue
0.687

@<SCITEGIC>MOL_PROPERTY
Pdih
SciTegic.value.DoubleValue
5.986

@<SCITEGIC>MOL_PROPERTY
Idih
SciTegic.value.DoubleValue
0.000

@<SCITEGIC>MOL_PROPERTY
Tether
SciTegic.value.DoubleValue
0.000

@<TRIPOS>MOLECULE
guest-s16_confgen4.mol2 : confsearch ligand conformer 109
          13          13           1
SMALL
USER_CHARGES
 
@<TRIPOS>ATOM
       1    C1      19.098226   18.189317   23.011195 C.3        1 MOL1        -0.1693
       2    H1      18.063287   17.930983   22.750744 H          1 MOL1         0.0829
       3    H2      19.353138   17.700116   23.958889 H          1 MOL1         0.0829
       4    C2      19.436667   19.713433   22.911764 C.3        1 MOL1        -0.1768
       5    H3      18.619177   20.404983   23.143628 H          1 MOL1         0.0829
       6    H4      20.327985   20.021647   23.472071 H          1 MOL1         0.0829
       7    C3      19.678910   19.435419   21.397438 C.3        1 MOL1         0.1211
       8    H5      18.761852   19.440468   20.792729 H          1 MOL1         0.0786
       9    C4      20.128964   18.012785   21.847678 C.3        1 MOL1        -0.1768
      10    H6      21.175019   17.940883   22.170149 H          1 MOL1         0.0829
      11    H7      19.922880   17.202404   21.139791 H          1 MOL1         0.0829
      12    O1      20.676940   20.221319   20.790713 O.3        1 MOL1        -0.5515
      13    H8      21.465557   20.179080   21.371246 H          1 MOL1         0.3773
@<TRIPOS>BOND
    1     1     2    1
    2     1     3    1
    3     1     4    1
    4     4     5    1
    5     4     6    1
    6     4     7    1
    7     7     8    1
    8     1     9    1
    9     7     9    1
   10     9    10    1
   11     9    11    1
   12     7    12    1
   13    12    13    1
@<TRIPOS>SUBSTRUCTURE
       1 MOL1            1 RESIDUE      1      MOL     
@<SCITEGIC>MOL_PROPERTY
VConf Rank
SciTegic.value.IntegerValue
109

@<SCITEGIC>MOL_PROPERTY
Conf_Id
SciTegic.value.IntegerValue
24

@<SCITEGIC>MOL_PROPERTY
Delta U+W
SciTegic.value.DoubleValue
0.356

@<SCITEGIC>MOL_PROPERTY
U+W
SciTegic.value.DoubleValue
-2.775

@<SCITEGIC>MOL_PROPERTY
Grad RMS
SciTegic.value.DoubleValue
0.000000

@<SCITEGIC>MOL_PROPERTY
U
SciTegic.value.DoubleValue
-0.184

@<SCITEGIC>MOL_PROPERTY
W
SciTegic.value.DoubleValue
-2.591

@<SCITEGIC>MOL_PROPERTY
W(PB)
SciTegic.value.DoubleValue
-4.184

@<SCITEGIC>MOL_PROPERTY
W(SA)
SciTegic.value.DoubleValue
1.593

@<SCITEGIC>MOL_PROPERTY
Valence
SciTegic.value.DoubleValue
6.840

@<SCITEGIC>MOL_PROPERTY
Coulomb
SciTegic.value.DoubleValue
-7.916

@<SCITEGIC>MOL_PROPERTY
VdW
SciTegic.value.DoubleValue
0.893

@<SCITEGIC>MOL_PROPERTY
VdW6
SciTegic.value.DoubleValue
-2.167

@<SCITEGIC>MOL_PROPERTY
VdW12
SciTegic.value.DoubleValue
3.060

@<SCITEGIC>MOL_PROPERTY
Bond
SciTegic.value.DoubleValue
0.059

@<SCITEGIC>MOL_PROPERTY
Angle
SciTegic.value.DoubleValue
0.918

@<SCITEGIC>MOL_PROPERTY
Pdih
SciTegic.value.DoubleValue
5.862

@<SCITEGIC>MOL_PROPERTY
Idih
SciTegic.value.DoubleValue
0.000

@<SCITEGIC>MOL_PROPERTY
Tether
SciTegic.value.DoubleValue
0.000

@<TRIPOS>MOLECULE
guest-s16_confgen4.mol2 : confsearch ligand conformer 110
          13          13           1
SMALL
USER_CHARGES
 
@<TRIPOS>ATOM
       1    C1      19.611456   17.848784   22.180429 C.3        1 MOL1        -0.1693
       2    H1      19.856110   16.934705   21.626374 H          1 MOL1         0.0829
       3    H2      19.056379   17.567954   23.084486 H          1 MOL1         0.0829
       4    C2      18.966393   19.003895   21.343917 C.3        1 MOL1        -0.1768
       5    H3      19.281692   19.033830   20.293819 H          1 MOL1         0.0829
       6    H4      17.873622   19.075657   21.381461 H          1 MOL1         0.0829
       7    C3      19.746464   19.986908   22.270831 C.3        1 MOL1         0.1211
       8    H5      20.117709   20.892209   21.773745 H          1 MOL1         0.0786
       9    C4      20.796993   18.842896   22.417872 C.3        1 MOL1        -0.1768
      10    H6      21.561128   18.833354   21.631092 H          1 MOL1         0.0829
      11    H7      21.297604   18.774520   23.390200 H          1 MOL1         0.0829
      12    O1      19.076723   20.332050   23.464166 O.3        1 MOL1        -0.5515
      13    H8      18.769583   19.491209   23.861616 H          1 MOL1         0.3773
@<TRIPOS>BOND
    1     1     2    1
    2     1     3    1
    3     1     4    1
    4     4     5    1
    5     4     6    1
    6     4     7    1
    7     7     8    1
    8     1     9    1
    9     7     9    1
   10     9    10    1
   11     9    11    1
   12     7    12    1
   13    12    13    1
@<TRIPOS>SUBSTRUCTURE
       1 MOL1            1 RESIDUE      1      MOL     
@<SCITEGIC>MOL_PROPERTY
VConf Rank
SciTegic.value.IntegerValue
110

@<SCITEGIC>MOL_PROPERTY
Conf_Id
SciTegic.value.IntegerValue
44

@<SCITEGIC>MOL_PROPERTY
Delta U+W
SciTegic.value.DoubleValue
0.823

@<SCITEGIC>MOL_PROPERTY
U+W
SciTegic.value.DoubleValue
-2.308

@<SCITEGIC>MOL_PROPERTY
Grad RMS
SciTegic.value.DoubleValue
0.000000

@<SCITEGIC>MOL_PROPERTY
U
SciTegic.value.DoubleValue
0.039

@<SCITEGIC>MOL_PROPERTY
W
SciTegic.value.DoubleValue
-2.348

@<SCITEGIC>MOL_PROPERTY
W(PB)
SciTegic.value.DoubleValue
-3.918

@<SCITEGIC>MOL_PROPERTY
W(SA)
SciTegic.value.DoubleValue
1.571

@<SCITEGIC>MOL_PROPERTY
Valence
SciTegic.value.DoubleValue
7.320

@<SCITEGIC>MOL_PROPERTY
Coulomb
SciTegic.value.DoubleValue
-8.530

@<SCITEGIC>MOL_PROPERTY
VdW
SciTegic.value.DoubleValue
1.249

@<SCITEGIC>MOL_PROPERTY
VdW6
SciTegic.value.DoubleValue
-2.615

@<SCITEGIC>MOL_PROPERTY
VdW12
SciTegic.value.DoubleValue
3.864

@<SCITEGIC>MOL_PROPERTY
Bond
SciTegic.value.DoubleValue
0.056

@<SCITEGIC>MOL_PROPERTY
Angle
SciTegic.value.DoubleValue
0.694

@<SCITEGIC>MOL_PROPERTY
Pdih
SciTegic.value.DoubleValue
6.570

@<SCITEGIC>MOL_PROPERTY
Idih
SciTegic.value.DoubleValue
0.000

@<SCITEGIC>MOL_PROPERTY
Tether
SciTegic.value.DoubleValue
0.000

@<TRIPOS>MOLECULE
guest-s16_confgen4.mol2 : confsearch ligand conformer 111
          13          13           1
SMALL
USER_CHARGES
 
@<TRIPOS>ATOM
       1    C1      18.903751   19.138190   21.176180 C.3        1 MOL1        -0.1693
       2    H1      19.006535   20.096722   20.650597 H          1 MOL1         0.0829
       3    H2      18.213244   18.500937   20.610982 H          1 MOL1         0.0829
       4    C2      18.626128   19.259870   22.710920 C.3        1 MOL1        -0.1768
       5    H3      18.037623   20.127419   23.028695 H          1 MOL1         0.0829
       6    H4      18.205668   18.359053   23.174954 H          1 MOL1         0.0829
       7    C3      20.171543   19.399468   22.856012 C.3        1 MOL1         0.1211
       8    H5      20.542047   20.419504   22.684792 H          1 MOL1         0.0786
       9    C4      20.255978   18.477089   21.602505 C.3        1 MOL1        -0.1768
      10    H6      21.108837   18.651495   20.937383 H          1 MOL1         0.0829
      11    H7      20.192286   17.403821   21.821215 H          1 MOL1         0.0829
      12    O1      20.716523   18.861160   24.038284 O.3        1 MOL1        -0.5515
      13    H8      21.692566   18.863180   23.935623 H          1 MOL1         0.3773
@<TRIPOS>BOND
    1     1     2    1
    2     1     3    1
    3     1     4    1
    4     4     5    1
    5     4     6    1
    6     4     7    1
    7     7     8    1
    8     1     9    1
    9     7     9    1
   10     9    10    1
   11     9    11    1
   12     7    12    1
   13    12    13    1
@<TRIPOS>SUBSTRUCTURE
       1 MOL1            1 RESIDUE      1      MOL     
@<SCITEGIC>MOL_PROPERTY
VConf Rank
SciTegic.value.IntegerValue
111

@<SCITEGIC>MOL_PROPERTY
Conf_Id
SciTegic.value.IntegerValue
22

@<SCITEGIC>MOL_PROPERTY
Delta U+W
SciTegic.value.DoubleValue
0.000

@<SCITEGIC>MOL_PROPERTY
U+W
SciTegic.value.DoubleValue
-3.131

@<SCITEGIC>MOL_PROPERTY
Grad RMS
SciTegic.value.DoubleValue
0.000000

@<SCITEGIC>MOL_PROPERTY
U
SciTegic.value.DoubleValue
-0.154

@<SCITEGIC>MOL_PROPERTY
W
SciTegic.value.DoubleValue
-2.978

@<SCITEGIC>MOL_PROPERTY
W(PB)
SciTegic.value.DoubleValue
-4.579

@<SCITEGIC>MOL_PROPERTY
W(SA)
SciTegic.value.DoubleValue
1.601

@<SCITEGIC>MOL_PROPERTY
Valence
SciTegic.value.DoubleValue
6.333

@<SCITEGIC>MOL_PROPERTY
Coulomb
SciTegic.value.DoubleValue
-7.439

@<SCITEGIC>MOL_PROPERTY
VdW
SciTegic.value.DoubleValue
0.952

@<SCITEGIC>MOL_PROPERTY
VdW6
SciTegic.value.DoubleValue
-2.120

@<SCITEGIC>MOL_PROPERTY
VdW12
SciTegic.value.DoubleValue
3.072

@<SCITEGIC>MOL_PROPERTY
Bond
SciTegic.value.DoubleValue
0.065

@<SCITEGIC>MOL_PROPERTY
Angle
SciTegic.value.DoubleValue
0.931

@<SCITEGIC>MOL_PROPERTY
Pdih
SciTegic.value.DoubleValue
5.338

@<SCITEGIC>MOL_PROPERTY
Idih
SciTegic.value.DoubleValue
0.000

@<SCITEGIC>MOL_PROPERTY
Tether
SciTegic.value.DoubleValue
0.000

@<TRIPOS>MOLECULE
guest-s16_confgen4.mol2 : confsearch ligand conformer 112
          13          13           1
SMALL
USER_CHARGES
 
@<TRIPOS>ATOM
       1    C1      20.842586   19.159970   21.782669 C.3        1 MOL1        -0.1693
       2    H1      21.306118   20.060087   22.207538 H          1 MOL1         0.0829
       3    H2      21.524099   18.733551   21.036985 H          1 MOL1         0.0829
       4    C2      19.355727   19.340339   21.330952 C.3        1 MOL1        -0.1768
       5    H3      18.995743   18.580585   20.625986 H          1 MOL1         0.0829
       6    H4      19.084067   20.331200   20.950733 H          1 MOL1         0.0829
       7    C3      18.996522   19.062215   22.821863 C.3        1 MOL1         0.1211
       8    H5      19.072111   19.945406   23.470955 H          1 MOL1         0.0786
       9    C4      20.266935   18.159658   22.838750 C.3        1 MOL1        -0.1768
      10    H6      20.105264   17.140462   22.466344 H          1 MOL1         0.0829
      11    H7      20.799891   18.105307   23.794242 H          1 MOL1         0.0829
      12    O1      17.776916   18.389395   23.032629 O.3        1 MOL1        -0.5515
      13    H8      17.056120   19.026206   22.837363 H          1 MOL1         0.3773
@<TRIPOS>BOND
    1     1     2    1
    2     1     3    1
    3     1     4    1
    4     4     5    1
    5     4     6    1
    6     4     7    1
    7     7     8    1
    8     1     9    1
    9     7     9    1
   10     9    10    1
   11     9    11    1
   12     7    12    1
   13    12    13    1
@<TRIPOS>SUBSTRUCTURE
       1 MOL1            1 RESIDUE      1      MOL     
@<SCITEGIC>MOL_PROPERTY
VConf Rank
SciTegic.value.IntegerValue
112

@<SCITEGIC>MOL_PROPERTY
Conf_Id
SciTegic.value.IntegerValue
19

@<SCITEGIC>MOL_PROPERTY
Delta U+W
SciTegic.value.DoubleValue
-0.011

@<SCITEGIC>MOL_PROPERTY
U+W
SciTegic.value.DoubleValue
-3.142

@<SCITEGIC>MOL_PROPERTY
Grad RMS
SciTegic.value.DoubleValue
0.000000

@<SCITEGIC>MOL_PROPERTY
U
SciTegic.value.DoubleValue
-0.154

@<SCITEGIC>MOL_PROPERTY
W
SciTegic.value.DoubleValue
-2.989

@<SCITEGIC>MOL_PROPERTY
W(PB)
SciTegic.value.DoubleValue
-4.588

@<SCITEGIC>MOL_PROPERTY
W(SA)
SciTegic.value.DoubleValue
1.599

@<SCITEGIC>MOL_PROPERTY
Valence
SciTegic.value.DoubleValue
6.334

@<SCITEGIC>MOL_PROPERTY
Coulomb
SciTegic.value.DoubleValue
-7.439

@<SCITEGIC>MOL_PROPERTY
VdW
SciTegic.value.DoubleValue
0.951

@<SCITEGIC>MOL_PROPERTY
VdW6
SciTegic.value.DoubleValue
-2.120

@<SCITEGIC>MOL_PROPERTY
VdW12
SciTegic.value.DoubleValue
3.072

@<SCITEGIC>MOL_PROPERTY
Bond
SciTegic.value.DoubleValue
0.065

@<SCITEGIC>MOL_PROPERTY
Angle
SciTegic.value.DoubleValue
0.930

@<SCITEGIC>MOL_PROPERTY
Pdih
SciTegic.value.DoubleValue
5.339

@<SCITEGIC>MOL_PROPERTY
Idih
SciTegic.value.DoubleValue
0.000

@<SCITEGIC>MOL_PROPERTY
Tether
SciTegic.value.DoubleValue
0.000

@<TRIPOS>MOLECULE
guest-s16_confgen4.mol2 : confsearch ligand conformer 113
          13          13           1
SMALL
USER_CHARGES
 
@<TRIPOS>ATOM
       1    C1      18.954967   19.590366   23.158229 C.3        1 MOL1        -0.1693
       2    H1      18.000994   20.080954   23.384581 H          1 MOL1         0.0829
       3    H2      19.521680   19.477122   24.091620 H          1 MOL1         0.0829
       4    C2      19.774764   20.194181   21.969822 C.3        1 MOL1        -0.1768
       5    H3      19.163817   20.641921   21.176703 H          1 MOL1         0.0829
       6    H4      20.567878   20.899492   22.241667 H          1 MOL1         0.0829
       7    C3      20.238583   18.734095   21.672413 C.3        1 MOL1         0.1211
       8    H5      20.360428   18.501306   20.606685 H          1 MOL1         0.0786
       9    C4      18.872611   18.293836   22.285916 C.3        1 MOL1        -0.1768
      10    H6      18.876141   17.345149   22.833941 H          1 MOL1         0.0829
      11    H7      18.042207   18.280797   21.569512 H          1 MOL1         0.0829
      12    O1      21.379956   18.314189   22.392894 O.3        1 MOL1        -0.5515
      13    H8      21.467662   17.346287   22.260120 H          1 MOL1         0.3773
@<TRIPOS>BOND
    1     1     2    1
    2     1     3    1
    3     1     4    1
    4     4     5    1
    5     4     6    1
    6     4     7    1
    7     7     8    1
    8     1     9    1
    9     7     9    1
   10     9    10    1
   11     9    11    1
   12     7    12    1
   13    12    13    1
@<TRIPOS>SUBSTRUCTURE
       1 MOL1            1 RESIDUE      1      MOL     
@<SCITEGIC>MOL_PROPERTY
VConf Rank
SciTegic.value.IntegerValue
113

@<SCITEGIC>MOL_PROPERTY
Conf_Id
SciTegic.value.IntegerValue
20

@<SCITEGIC>MOL_PROPERTY
Delta U+W
SciTegic.value.DoubleValue
1.030

@<SCITEGIC>MOL_PROPERTY
U+W
SciTegic.value.DoubleValue
-2.101

@<SCITEGIC>MOL_PROPERTY
Grad RMS
SciTegic.value.DoubleValue
0.000000

@<SCITEGIC>MOL_PROPERTY
U
SciTegic.value.DoubleValue
0.841

@<SCITEGIC>MOL_PROPERTY
W
SciTegic.value.DoubleValue
-2.942

@<SCITEGIC>MOL_PROPERTY
W(PB)
SciTegic.value.DoubleValue
-4.530

@<SCITEGIC>MOL_PROPERTY
W(SA)
SciTegic.value.DoubleValue
1.587

@<SCITEGIC>MOL_PROPERTY
Valence
SciTegic.value.DoubleValue
6.736

@<SCITEGIC>MOL_PROPERTY
Coulomb
SciTegic.value.DoubleValue
-7.246

@<SCITEGIC>MOL_PROPERTY
VdW
SciTegic.value.DoubleValue
1.352

@<SCITEGIC>MOL_PROPERTY
VdW6
SciTegic.value.DoubleValue
-2.500

@<SCITEGIC>MOL_PROPERTY
VdW12
SciTegic.value.DoubleValue
3.851

@<SCITEGIC>MOL_PROPERTY
Bond
SciTegic.value.DoubleValue
0.063

@<SCITEGIC>MOL_PROPERTY
Angle
SciTegic.value.DoubleValue
0.687

@<SCITEGIC>MOL_PROPERTY
Pdih
SciTegic.value.DoubleValue
5.986

@<SCITEGIC>MOL_PROPERTY
Idih
SciTegic.value.DoubleValue
0.000

@<SCITEGIC>MOL_PROPERTY
Tether
SciTegic.value.DoubleValue
0.000

@<TRIPOS>MOLECULE
guest-s16_confgen4.mol2 : confsearch ligand conformer 114
          13          13           1
SMALL
USER_CHARGES
 
@<TRIPOS>ATOM
       1    C1      18.728685   19.616058   22.620749 C.3        1 MOL1        -0.1693
       2    H1      17.871215   19.053511   23.013122 H          1 MOL1         0.0829
       3    H2      18.498453   20.686867   22.673493 H          1 MOL1         0.0829
       4    C2      19.279150   19.098153   21.251034 C.3        1 MOL1        -0.1768
       5    H3      18.540263   18.667683   20.566174 H          1 MOL1         0.0829
       6    H4      19.889503   19.823814   20.699425 H          1 MOL1         0.0829
       7    C3      20.089062   18.074784   22.103040 C.3        1 MOL1         0.1211
       8    H5      19.516077   17.181776   22.387503 H          1 MOL1         0.0786
       9    C4      20.115754   19.182056   23.199575 C.3        1 MOL1        -0.1768
      10    H6      20.913098   19.926472   23.083490 H          1 MOL1         0.0829
      11    H7      20.115718   18.825685   24.235573 H          1 MOL1         0.0829
      12    O1      21.344566   17.712088   21.579610 O.3        1 MOL1        -0.5515
      13    H8      21.807060   18.543889   21.345248 H          1 MOL1         0.3773
@<TRIPOS>BOND
    1     1     2    1
    2     1     3    1
    3     1     4    1
    4     4     5    1
    5     4     6    1
    6     4     7    1
    7     7     8    1
    8     1     9    1
    9     7     9    1
   10     9    10    1
   11     9    11    1
   12     7    12    1
   13    12    13    1
@<TRIPOS>SUBSTRUCTURE
       1 MOL1            1 RESIDUE      1      MOL     
@<SCITEGIC>MOL_PROPERTY
VConf Rank
SciTegic.value.IntegerValue
114

@<SCITEGIC>MOL_PROPERTY
Conf_Id
SciTegic.value.IntegerValue
24

@<SCITEGIC>MOL_PROPERTY
Delta U+W
SciTegic.value.DoubleValue
0.356

@<SCITEGIC>MOL_PROPERTY
U+W
SciTegic.value.DoubleValue
-2.775

@<SCITEGIC>MOL_PROPERTY
Grad RMS
SciTegic.value.DoubleValue
0.000000

@<SCITEGIC>MOL_PROPERTY
U
SciTegic.value.DoubleValue
-0.184

@<SCITEGIC>MOL_PROPERTY
W
SciTegic.value.DoubleValue
-2.591

@<SCITEGIC>MOL_PROPERTY
W(PB)
SciTegic.value.DoubleValue
-4.184

@<SCITEGIC>MOL_PROPERTY
W(SA)
SciTegic.value.DoubleValue
1.593

@<SCITEGIC>MOL_PROPERTY
Valence
SciTegic.value.DoubleValue
6.840

@<SCITEGIC>MOL_PROPERTY
Coulomb
SciTegic.value.DoubleValue
-7.916

@<SCITEGIC>MOL_PROPERTY
VdW
SciTegic.value.DoubleValue
0.893

@<SCITEGIC>MOL_PROPERTY
VdW6
SciTegic.value.DoubleValue
-2.167

@<SCITEGIC>MOL_PROPERTY
VdW12
SciTegic.value.DoubleValue
3.060

@<SCITEGIC>MOL_PROPERTY
Bond
SciTegic.value.DoubleValue
0.059

@<SCITEGIC>MOL_PROPERTY
Angle
SciTegic.value.DoubleValue
0.918

@<SCITEGIC>MOL_PROPERTY
Pdih
SciTegic.value.DoubleValue
5.862

@<SCITEGIC>MOL_PROPERTY
Idih
SciTegic.value.DoubleValue
0.000

@<SCITEGIC>MOL_PROPERTY
Tether
SciTegic.value.DoubleValue
0.000

@<TRIPOS>MOLECULE
guest-s16_confgen4.mol2 : confsearch ligand conformer 115
          13          13           1
SMALL
USER_CHARGES
 
@<TRIPOS>ATOM
       1    C1      19.361199   19.629572   21.359790 C.3        1 MOL1        -0.1693
       2    H1      19.628471   20.463402   20.699738 H          1 MOL1         0.0829
       3    H2      18.354418   19.284609   21.092044 H          1 MOL1         0.0829
       4    C2      19.590497   19.867508   22.889805 C.3        1 MOL1        -0.1768
       5    H3      20.421661   20.543821   23.123860 H          1 MOL1         0.0829
       6    H4      18.713377   20.181188   23.466845 H          1 MOL1         0.0829
       7    C3      19.958019   18.353776   22.976615 C.3        1 MOL1         0.1211
       8    H5      20.753366   18.113165   23.693564 H          1 MOL1         0.0786
       9    C4      20.431148   18.495289   21.496710 C.3        1 MOL1        -0.1768
      10    H6      21.468427   18.835155   21.389197 H          1 MOL1         0.0829
      11    H7      20.285745   17.614571   20.861177 H          1 MOL1         0.0829
      12    O1      18.859572   17.488242   23.166335 O.3        1 MOL1        -0.5515
      13    H8      18.185959   17.747674   22.504328 H          1 MOL1         0.3773
@<TRIPOS>BOND
    1     1     2    1
    2     1     3    1
    3     1     4    1
    4     4     5    1
    5     4     6    1
    6     4     7    1
    7     7     8    1
    8     1     9    1
    9     7     9    1
   10     9    10    1
   11     9    11    1
   12     7    12    1
   13    12    13    1
@<TRIPOS>SUBSTRUCTURE
       1 MOL1            1 RESIDUE      1      MOL     
@<SCITEGIC>MOL_PROPERTY
VConf Rank
SciTegic.value.IntegerValue
115

@<SCITEGIC>MOL_PROPERTY
Conf_Id
SciTegic.value.IntegerValue
44

@<SCITEGIC>MOL_PROPERTY
Delta U+W
SciTegic.value.DoubleValue
0.823

@<SCITEGIC>MOL_PROPERTY
U+W
SciTegic.value.DoubleValue
-2.308

@<SCITEGIC>MOL_PROPERTY
Grad RMS
SciTegic.value.DoubleValue
0.000000

@<SCITEGIC>MOL_PROPERTY
U
SciTegic.value.DoubleValue
0.039

@<SCITEGIC>MOL_PROPERTY
W
SciTegic.value.DoubleValue
-2.348

@<SCITEGIC>MOL_PROPERTY
W(PB)
SciTegic.value.DoubleValue
-3.918

@<SCITEGIC>MOL_PROPERTY
W(SA)
SciTegic.value.DoubleValue
1.571

@<SCITEGIC>MOL_PROPERTY
Valence
SciTegic.value.DoubleValue
7.320

@<SCITEGIC>MOL_PROPERTY
Coulomb
SciTegic.value.DoubleValue
-8.530

@<SCITEGIC>MOL_PROPERTY
VdW
SciTegic.value.DoubleValue
1.249

@<SCITEGIC>MOL_PROPERTY
VdW6
SciTegic.value.DoubleValue
-2.615

@<SCITEGIC>MOL_PROPERTY
VdW12
SciTegic.value.DoubleValue
3.864

@<SCITEGIC>MOL_PROPERTY
Bond
SciTegic.value.DoubleValue
0.056

@<SCITEGIC>MOL_PROPERTY
Angle
SciTegic.value.DoubleValue
0.694

@<SCITEGIC>MOL_PROPERTY
Pdih
SciTegic.value.DoubleValue
6.570

@<SCITEGIC>MOL_PROPERTY
Idih
SciTegic.value.DoubleValue
0.000

@<SCITEGIC>MOL_PROPERTY
Tether
SciTegic.value.DoubleValue
0.000

@<TRIPOS>MOLECULE
guest-s16_confgen4.mol2 : confsearch ligand conformer 116
          13          13           1
SMALL
USER_CHARGES
 
@<TRIPOS>ATOM
       1    C1      19.859774   18.060457   23.107955 C.3        1 MOL1        -0.1693
       2    H1      20.714364   18.226770   23.776986 H          1 MOL1         0.0829
       3    H2      19.370301   17.121152   23.391612 H          1 MOL1         0.0829
       4    C2      20.175760   18.238181   21.586156 C.3        1 MOL1        -0.1768
       5    H3      21.186516   17.962126   21.266583 H          1 MOL1         0.0829
       6    H4      19.451133   17.770090   20.908371 H          1 MOL1         0.0829
       7    C3      19.935994   19.757331   21.838228 C.3        1 MOL1         0.1211
       8    H5      20.812753   20.283266   22.240407 H          1 MOL1         0.0786
       9    C4      18.919705   19.297711   22.926850 C.3        1 MOL1        -0.1768
      10    H6      18.818583   19.957745   23.795355 H          1 MOL1         0.0829
      11    H7      17.918841   19.060582   22.544965 H          1 MOL1         0.0829
      12    O1      19.379938   20.467031   20.755789 O.3        1 MOL1        -0.5515
      13    H8      19.129065   21.355464   21.088886 H          1 MOL1         0.3773
@<TRIPOS>BOND
    1     1     2    1
    2     1     3    1
    3     1     4    1
    4     4     5    1
    5     4     6    1
    6     4     7    1
    7     7     8    1
    8     1     9    1
    9     7     9    1
   10     9    10    1
   11     9    11    1
   12     7    12    1
   13    12    13    1
@<TRIPOS>SUBSTRUCTURE
       1 MOL1            1 RESIDUE      1      MOL     
@<SCITEGIC>MOL_PROPERTY
VConf Rank
SciTegic.value.IntegerValue
116

@<SCITEGIC>MOL_PROPERTY
Conf_Id
SciTegic.value.IntegerValue
22

@<SCITEGIC>MOL_PROPERTY
Delta U+W
SciTegic.value.DoubleValue
0.000

@<SCITEGIC>MOL_PROPERTY
U+W
SciTegic.value.DoubleValue
-3.131

@<SCITEGIC>MOL_PROPERTY
Grad RMS
SciTegic.value.DoubleValue
0.000000

@<SCITEGIC>MOL_PROPERTY
U
SciTegic.value.DoubleValue
-0.154

@<SCITEGIC>MOL_PROPERTY
W
SciTegic.value.DoubleValue
-2.978

@<SCITEGIC>MOL_PROPERTY
W(PB)
SciTegic.value.DoubleValue
-4.579

@<SCITEGIC>MOL_PROPERTY
W(SA)
SciTegic.value.DoubleValue
1.601

@<SCITEGIC>MOL_PROPERTY
Valence
SciTegic.value.DoubleValue
6.333

@<SCITEGIC>MOL_PROPERTY
Coulomb
SciTegic.value.DoubleValue
-7.439

@<SCITEGIC>MOL_PROPERTY
VdW
SciTegic.value.DoubleValue
0.952

@<SCITEGIC>MOL_PROPERTY
VdW6
SciTegic.value.DoubleValue
-2.120

@<SCITEGIC>MOL_PROPERTY
VdW12
SciTegic.value.DoubleValue
3.072

@<SCITEGIC>MOL_PROPERTY
Bond
SciTegic.value.DoubleValue
0.065

@<SCITEGIC>MOL_PROPERTY
Angle
SciTegic.value.DoubleValue
0.931

@<SCITEGIC>MOL_PROPERTY
Pdih
SciTegic.value.DoubleValue
5.338

@<SCITEGIC>MOL_PROPERTY
Idih
SciTegic.value.DoubleValue
0.000

@<SCITEGIC>MOL_PROPERTY
Tether
SciTegic.value.DoubleValue
0.000

@<TRIPOS>MOLECULE
guest-s16_confgen4.mol2 : confsearch ligand conformer 117
          13          13           1
SMALL
USER_CHARGES
 
@<TRIPOS>ATOM
       1    C1      19.685831   20.228938   22.445320 C.3        1 MOL1        -0.1693
       2    H1      19.565572   20.817086   21.525969 H          1 MOL1         0.0829
       3    H2      19.873939   20.916120   23.278827 H          1 MOL1         0.0829
       4    C2      20.663958   19.014269   22.322124 C.3        1 MOL1        -0.1768
       5    H3      21.040572   18.630540   23.278527 H          1 MOL1         0.0829
       6    H4      21.508672   19.142954   21.636506 H          1 MOL1         0.0829
       7    C3      19.437196   18.240291   21.751853 C.3        1 MOL1         0.1211
       8    H5      19.261448   18.410172   20.680725 H          1 MOL1         0.0786
       9    C4      18.578200   19.149700   22.681339 C.3        1 MOL1        -0.1768
      10    H6      18.496146   18.793659   23.715789 H          1 MOL1         0.0829
      11    H7      17.576438   19.396166   22.312981 H          1 MOL1         0.0829
      12    O1      19.399324   16.864637   22.053002 O.3        1 MOL1        -0.5515
      13    H8      20.094804   16.429849   21.514048 H          1 MOL1         0.3773
@<TRIPOS>BOND
    1     1     2    1
    2     1     3    1
    3     1     4    1
    4     4     5    1
    5     4     6    1
    6     4     7    1
    7     7     8    1
    8     1     9    1
    9     7     9    1
   10     9    10    1
   11     9    11    1
   12     7    12    1
   13    12    13    1
@<TRIPOS>SUBSTRUCTURE
       1 MOL1            1 RESIDUE      1      MOL     
@<SCITEGIC>MOL_PROPERTY
VConf Rank
SciTegic.value.IntegerValue
117

@<SCITEGIC>MOL_PROPERTY
Conf_Id
SciTegic.value.IntegerValue
19

@<SCITEGIC>MOL_PROPERTY
Delta U+W
SciTegic.value.DoubleValue
-0.011

@<SCITEGIC>MOL_PROPERTY
U+W
SciTegic.value.DoubleValue
-3.142

@<SCITEGIC>MOL_PROPERTY
Grad RMS
SciTegic.value.DoubleValue
0.000000

@<SCITEGIC>MOL_PROPERTY
U
SciTegic.value.DoubleValue
-0.154

@<SCITEGIC>MOL_PROPERTY
W
SciTegic.value.DoubleValue
-2.989

@<SCITEGIC>MOL_PROPERTY
W(PB)
SciTegic.value.DoubleValue
-4.588

@<SCITEGIC>MOL_PROPERTY
W(SA)
SciTegic.value.DoubleValue
1.599

@<SCITEGIC>MOL_PROPERTY
Valence
SciTegic.value.DoubleValue
6.334

@<SCITEGIC>MOL_PROPERTY
Coulomb
SciTegic.value.DoubleValue
-7.439

@<SCITEGIC>MOL_PROPERTY
VdW
SciTegic.value.DoubleValue
0.951

@<SCITEGIC>MOL_PROPERTY
VdW6
SciTegic.value.DoubleValue
-2.120

@<SCITEGIC>MOL_PROPERTY
VdW12
SciTegic.value.DoubleValue
3.072

@<SCITEGIC>MOL_PROPERTY
Bond
SciTegic.value.DoubleValue
0.065

@<SCITEGIC>MOL_PROPERTY
Angle
SciTegic.value.DoubleValue
0.930

@<SCITEGIC>MOL_PROPERTY
Pdih
SciTegic.value.DoubleValue
5.339

@<SCITEGIC>MOL_PROPERTY
Idih
SciTegic.value.DoubleValue
0.000

@<SCITEGIC>MOL_PROPERTY
Tether
SciTegic.value.DoubleValue
0.000

@<TRIPOS>MOLECULE
guest-s16_confgen4.mol2 : confsearch ligand conformer 118
          13          13           1
SMALL
USER_CHARGES
 
@<TRIPOS>ATOM
       1    C1      19.274707   19.233541   21.115280 C.3        1 MOL1        -0.1693
       2    H1      18.664851   19.852550   20.446788 H          1 MOL1         0.0829
       3    H2      19.841398   18.515053   20.508781 H          1 MOL1         0.0829
       4    C2      18.531431   18.605255   22.340748 C.3        1 MOL1        -0.1768
       5    H3      17.699006   19.206856   22.725338 H          1 MOL1         0.0829
       6    H4      18.189403   17.571666   22.217853 H          1 MOL1         0.0829
       7    C3      19.868326   18.788307   23.124733 C.3        1 MOL1         0.1211
       8    H5      19.745150   19.048789   24.183879 H          1 MOL1         0.0786
       9    C4      20.127375   20.002315   22.178598 C.3        1 MOL1        -0.1768
      10    H6      21.173651   20.188315   21.912021 H          1 MOL1         0.0829
      11    H7      19.681764   20.943279   22.523549 H          1 MOL1         0.0829
      12    O1      20.786252   17.721503   22.992488 O.3        1 MOL1        -0.5515
      13    H8      21.638374   18.022266   23.374044 H          1 MOL1         0.3773
@<TRIPOS>BOND
    1     1     2    1
    2     1     3    1
    3     1     4    1
    4     4     5    1
    5     4     6    1
    6     4     7    1
    7     7     8    1
    8     1     9    1
    9     7     9    1
   10     9    10    1
   11     9    11    1
   12     7    12    1
   13    12    13    1
@<TRIPOS>SUBSTRUCTURE
       1 MOL1            1 RESIDUE      1      MOL     
@<SCITEGIC>MOL_PROPERTY
VConf Rank
SciTegic.value.IntegerValue
118

@<SCITEGIC>MOL_PROPERTY
Conf_Id
SciTegic.value.IntegerValue
20

@<SCITEGIC>MOL_PROPERTY
Delta U+W
SciTegic.value.DoubleValue
1.030

@<SCITEGIC>MOL_PROPERTY
U+W
SciTegic.value.DoubleValue
-2.101

@<SCITEGIC>MOL_PROPERTY
Grad RMS
SciTegic.value.DoubleValue
0.000000

@<SCITEGIC>MOL_PROPERTY
U
SciTegic.value.DoubleValue
0.841

@<SCITEGIC>MOL_PROPERTY
W
SciTegic.value.DoubleValue
-2.942

@<SCITEGIC>MOL_PROPERTY
W(PB)
SciTegic.value.DoubleValue
-4.530

@<SCITEGIC>MOL_PROPERTY
W(SA)
SciTegic.value.DoubleValue
1.587

@<SCITEGIC>MOL_PROPERTY
Valence
SciTegic.value.DoubleValue
6.736

@<SCITEGIC>MOL_PROPERTY
Coulomb
SciTegic.value.DoubleValue
-7.246

@<SCITEGIC>MOL_PROPERTY
VdW
SciTegic.value.DoubleValue
1.352

@<SCITEGIC>MOL_PROPERTY
VdW6
SciTegic.value.DoubleValue
-2.500

@<SCITEGIC>MOL_PROPERTY
VdW12
SciTegic.value.DoubleValue
3.851

@<SCITEGIC>MOL_PROPERTY
Bond
SciTegic.value.DoubleValue
0.063

@<SCITEGIC>MOL_PROPERTY
Angle
SciTegic.value.DoubleValue
0.687

@<SCITEGIC>MOL_PROPERTY
Pdih
SciTegic.value.DoubleValue
5.986

@<SCITEGIC>MOL_PROPERTY
Idih
SciTegic.value.DoubleValue
0.000

@<SCITEGIC>MOL_PROPERTY
Tether
SciTegic.value.DoubleValue
0.000

@<TRIPOS>MOLECULE
guest-s16_confgen4.mol2 : confsearch ligand conformer 119
          13          13           1
SMALL
USER_CHARGES
 
@<TRIPOS>ATOM
       1    C1      20.678468   19.810475   22.412305 C.3        1 MOL1        -0.1693
       2    H1      20.949130   20.044455   23.450412 H          1 MOL1         0.0829
       3    H2      21.311496   20.405264   21.743035 H          1 MOL1         0.0829
       4    C2      19.143121   19.841741   22.113824 C.3        1 MOL1        -0.1768
       5    H3      18.554788   20.565255   22.688875 H          1 MOL1         0.0829
       6    H4      18.885389   19.942896   21.052349 H          1 MOL1         0.0829
       7    C3      19.132917   18.379668   22.653633 C.3        1 MOL1         0.1211
       8    H5      19.076638   18.310886   23.748528 H          1 MOL1         0.0786
       9    C4      20.582719   18.282656   22.089879 C.3        1 MOL1        -0.1768
      10    H6      20.646755   18.035337   21.023051 H          1 MOL1         0.0829
      11    H7      21.265767   17.629259   22.643781 H          1 MOL1         0.0829
      12    O1      18.192530   17.520558   22.054118 O.3        1 MOL1        -0.5515
      13    H8      18.288882   17.624387   21.084244 H          1 MOL1         0.3773
@<TRIPOS>BOND
    1     1     2    1
    2     1     3    1
    3     1     4    1
    4     4     5    1
    5     4     6    1
    6     4     7    1
    7     7     8    1
    8     1     9    1
    9     7     9    1
   10     9    10    1
   11     9    11    1
   12     7    12    1
   13    12    13    1
@<TRIPOS>SUBSTRUCTURE
       1 MOL1            1 RESIDUE      1      MOL     
@<SCITEGIC>MOL_PROPERTY
VConf Rank
SciTegic.value.IntegerValue
119

@<SCITEGIC>MOL_PROPERTY
Conf_Id
SciTegic.value.IntegerValue
24

@<SCITEGIC>MOL_PROPERTY
Delta U+W
SciTegic.value.DoubleValue
0.356

@<SCITEGIC>MOL_PROPERTY
U+W
SciTegic.value.DoubleValue
-2.775

@<SCITEGIC>MOL_PROPERTY
Grad RMS
SciTegic.value.DoubleValue
0.000000

@<SCITEGIC>MOL_PROPERTY
U
SciTegic.value.DoubleValue
-0.184

@<SCITEGIC>MOL_PROPERTY
W
SciTegic.value.DoubleValue
-2.591

@<SCITEGIC>MOL_PROPERTY
W(PB)
SciTegic.value.DoubleValue
-4.184

@<SCITEGIC>MOL_PROPERTY
W(SA)
SciTegic.value.DoubleValue
1.593

@<SCITEGIC>MOL_PROPERTY
Valence
SciTegic.value.DoubleValue
6.840

@<SCITEGIC>MOL_PROPERTY
Coulomb
SciTegic.value.DoubleValue
-7.916

@<SCITEGIC>MOL_PROPERTY
VdW
SciTegic.value.DoubleValue
0.893

@<SCITEGIC>MOL_PROPERTY
VdW6
SciTegic.value.DoubleValue
-2.167

@<SCITEGIC>MOL_PROPERTY
VdW12
SciTegic.value.DoubleValue
3.060

@<SCITEGIC>MOL_PROPERTY
Bond
SciTegic.value.DoubleValue
0.059

@<SCITEGIC>MOL_PROPERTY
Angle
SciTegic.value.DoubleValue
0.918

@<SCITEGIC>MOL_PROPERTY
Pdih
SciTegic.value.DoubleValue
5.862

@<SCITEGIC>MOL_PROPERTY
Idih
SciTegic.value.DoubleValue
0.000

@<SCITEGIC>MOL_PROPERTY
Tether
SciTegic.value.DoubleValue
0.000

@<TRIPOS>MOLECULE
guest-s16_confgen4.mol2 : confsearch ligand conformer 120
          13          13           1
SMALL
USER_CHARGES
 
@<TRIPOS>ATOM
       1    C1      19.869833   20.055917   21.970611 C.3        1 MOL1        -0.1693
       2    H1      20.019056   21.062545   22.379030 H          1 MOL1         0.0829
       3    H2      19.904915   20.117539   20.875501 H          1 MOL1         0.0829
       4    C2      18.652954   19.257376   22.546524 C.3        1 MOL1        -0.1768
       5    H3      18.402872   19.499910   23.586549 H          1 MOL1         0.0829
       6    H4      17.732839   19.283554   21.952039 H          1 MOL1         0.0829
       7    C3      19.532868   17.979223   22.385063 C.3        1 MOL1         0.1211
       8    H5      19.395560   17.223343   23.168822 H          1 MOL1         0.0786
       9    C4      20.754913   18.926028   22.595208 C.3        1 MOL1        -0.1768
      10    H6      21.020201   19.087321   23.647169 H          1 MOL1         0.0829
      11    H7      21.664375   18.663798   22.043101 H          1 MOL1         0.0829
      12    O1      19.466656   17.372275   21.112681 O.3        1 MOL1        -0.5515
      13    H8      19.594816   18.089144   20.457710 H          1 MOL1         0.3773
@<TRIPOS>BOND
    1     1     2    1
    2     1     3    1
    3     1     4    1
    4     4     5    1
    5     4     6    1
    6     4     7    1
    7     7     8    1
    8     1     9    1
    9     7     9    1
   10     9    10    1
   11     9    11    1
   12     7    12    1
   13    12    13    1
@<TRIPOS>SUBSTRUCTURE
       1 MOL1            1 RESIDUE      1      MOL     
@<SCITEGIC>MOL_PROPERTY
VConf Rank
SciTegic.value.IntegerValue
120

@<SCITEGIC>MOL_PROPERTY
Conf_Id
SciTegic.value.IntegerValue
44

@<SCITEGIC>MOL_PROPERTY
Delta U+W
SciTegic.value.DoubleValue
0.823

@<SCITEGIC>MOL_PROPERTY
U+W
SciTegic.value.DoubleValue
-2.308

@<SCITEGIC>MOL_PROPERTY
Grad RMS
SciTegic.value.DoubleValue
0.000000

@<SCITEGIC>MOL_PROPERTY
U
SciTegic.value.DoubleValue
0.039

@<SCITEGIC>MOL_PROPERTY
W
SciTegic.value.DoubleValue
-2.348

@<SCITEGIC>MOL_PROPERTY
W(PB)
SciTegic.value.DoubleValue
-3.918

@<SCITEGIC>MOL_PROPERTY
W(SA)
SciTegic.value.DoubleValue
1.571

@<SCITEGIC>MOL_PROPERTY
Valence
SciTegic.value.DoubleValue
7.320

@<SCITEGIC>MOL_PROPERTY
Coulomb
SciTegic.value.DoubleValue
-8.530

@<SCITEGIC>MOL_PROPERTY
VdW
SciTegic.value.DoubleValue
1.249

@<SCITEGIC>MOL_PROPERTY
VdW6
SciTegic.value.DoubleValue
-2.615

@<SCITEGIC>MOL_PROPERTY
VdW12
SciTegic.value.DoubleValue
3.864

@<SCITEGIC>MOL_PROPERTY
Bond
SciTegic.value.DoubleValue
0.056

@<SCITEGIC>MOL_PROPERTY
Angle
SciTegic.value.DoubleValue
0.694

@<SCITEGIC>MOL_PROPERTY
Pdih
SciTegic.value.DoubleValue
6.570

@<SCITEGIC>MOL_PROPERTY
Idih
SciTegic.value.DoubleValue
0.000

@<SCITEGIC>MOL_PROPERTY
Tether
SciTegic.value.DoubleValue
0.000

@<TRIPOS>MOLECULE
guest-s16_confgen4.mol2 : confsearch ligand conformer 121
          13          13           1
SMALL
USER_CHARGES
 
@<TRIPOS>ATOM
       1    C1      18.843196   18.987797   21.219047 C.3        1 MOL1        -0.1693
       2    H1      19.356928   18.902673   20.252394 H          1 MOL1         0.0829
       3    H2      17.761186   18.950131   21.045339 H          1 MOL1         0.0829
       4    C2      19.352499   20.152814   22.130449 C.3        1 MOL1        -0.1768
       5    H3      19.705487   21.052032   21.613954 H          1 MOL1         0.0829
       6    H4      18.658010   20.452033   22.925268 H          1 MOL1         0.0829
       7    C3      20.458955   19.152770   22.582684 C.3        1 MOL1         0.1211
       8    H5      21.318069   19.104284   21.899577 H          1 MOL1         0.0786
       9    C4      19.392763   18.042582   22.337917 C.3        1 MOL1        -0.1768
      10    H6      19.779713   17.073723   22.003620 H          1 MOL1         0.0829
      11    H7      18.705284   17.877907   23.176993 H          1 MOL1         0.0829
      12    O1      20.888175   19.292553   23.917141 O.3        1 MOL1        -0.5515
      13    H8      21.452462   18.516607   24.123760 H          1 MOL1         0.3773
@<TRIPOS>BOND
    1     1     2    1
    2     1     3    1
    3     1     4    1
    4     4     5    1
    5     4     6    1
    6     4     7    1
    7     7     8    1
    8     1     9    1
    9     7     9    1
   10     9    10    1
   11     9    11    1
   12     7    12    1
   13    12    13    1
@<TRIPOS>SUBSTRUCTURE
       1 MOL1            1 RESIDUE      1      MOL     
@<SCITEGIC>MOL_PROPERTY
VConf Rank
SciTegic.value.IntegerValue
121

@<SCITEGIC>MOL_PROPERTY
Conf_Id
SciTegic.value.IntegerValue
22

@<SCITEGIC>MOL_PROPERTY
Delta U+W
SciTegic.value.DoubleValue
0.000

@<SCITEGIC>MOL_PROPERTY
U+W
SciTegic.value.DoubleValue
-3.131

@<SCITEGIC>MOL_PROPERTY
Grad RMS
SciTegic.value.DoubleValue
0.000000

@<SCITEGIC>MOL_PROPERTY
U
SciTegic.value.DoubleValue
-0.154

@<SCITEGIC>MOL_PROPERTY
W
SciTegic.value.DoubleValue
-2.978

@<SCITEGIC>MOL_PROPERTY
W(PB)
SciTegic.value.DoubleValue
-4.579

@<SCITEGIC>MOL_PROPERTY
W(SA)
SciTegic.value.DoubleValue
1.601

@<SCITEGIC>MOL_PROPERTY
Valence
SciTegic.value.DoubleValue
6.333

@<SCITEGIC>MOL_PROPERTY
Coulomb
SciTegic.value.DoubleValue
-7.439

@<SCITEGIC>MOL_PROPERTY
VdW
SciTegic.value.DoubleValue
0.952

@<SCITEGIC>MOL_PROPERTY
VdW6
SciTegic.value.DoubleValue
-2.120

@<SCITEGIC>MOL_PROPERTY
VdW12
SciTegic.value.DoubleValue
3.072

@<SCITEGIC>MOL_PROPERTY
Bond
SciTegic.value.DoubleValue
0.065

@<SCITEGIC>MOL_PROPERTY
Angle
SciTegic.value.DoubleValue
0.931

@<SCITEGIC>MOL_PROPERTY
Pdih
SciTegic.value.DoubleValue
5.338

@<SCITEGIC>MOL_PROPERTY
Idih
SciTegic.value.DoubleValue
0.000

@<SCITEGIC>MOL_PROPERTY
Tether
SciTegic.value.DoubleValue
0.000

@<TRIPOS>MOLECULE
guest-s16_confgen4.mol2 : confsearch ligand conformer 122
          13          13           1
SMALL
USER_CHARGES
 
@<TRIPOS>ATOM
       1    C1      20.364589   19.674589   23.045923 C.3        1 MOL1        -0.1693
       2    H1      20.734995   19.137310   23.928939 H          1 MOL1         0.0829
       3    H2      20.681542   20.722045   23.114589 H          1 MOL1         0.0829
       4    C2      18.853728   19.433924   22.719262 C.3        1 MOL1        -0.1768
       5    H3      18.399670   20.190972   22.067723 H          1 MOL1         0.0829
       6    H4      18.195114   19.267420   23.578725 H          1 MOL1         0.0829
       7    C3      19.343266   18.152424   21.979461 C.3        1 MOL1         0.1211
       8    H5      19.500971   17.288934   22.640200 H          1 MOL1         0.0786
       9    C4      20.641883   18.960978   21.681675 C.3        1 MOL1        -0.1768
      10    H6      20.579746   19.612349   20.801084 H          1 MOL1         0.0829
      11    H7      21.564985   18.374266   21.621573 H          1 MOL1         0.0829
      12    O1      18.589667   17.785012   20.847363 O.3        1 MOL1        -0.5515
      13    H8      17.731942   17.434158   21.170493 H          1 MOL1         0.3773
@<TRIPOS>BOND
    1     1     2    1
    2     1     3    1
    3     1     4    1
    4     4     5    1
    5     4     6    1
    6     4     7    1
    7     7     8    1
    8     1     9    1
    9     7     9    1
   10     9    10    1
   11     9    11    1
   12     7    12    1
   13    12    13    1
@<TRIPOS>SUBSTRUCTURE
       1 MOL1            1 RESIDUE      1      MOL     
@<SCITEGIC>MOL_PROPERTY
VConf Rank
SciTegic.value.IntegerValue
122

@<SCITEGIC>MOL_PROPERTY
Conf_Id
SciTegic.value.IntegerValue
19

@<SCITEGIC>MOL_PROPERTY
Delta U+W
SciTegic.value.DoubleValue
-0.011

@<SCITEGIC>MOL_PROPERTY
U+W
SciTegic.value.DoubleValue
-3.142

@<SCITEGIC>MOL_PROPERTY
Grad RMS
SciTegic.value.DoubleValue
0.000000

@<SCITEGIC>MOL_PROPERTY
U
SciTegic.value.DoubleValue
-0.154

@<SCITEGIC>MOL_PROPERTY
W
SciTegic.value.DoubleValue
-2.989

@<SCITEGIC>MOL_PROPERTY
W(PB)
SciTegic.value.DoubleValue
-4.588

@<SCITEGIC>MOL_PROPERTY
W(SA)
SciTegic.value.DoubleValue
1.599

@<SCITEGIC>MOL_PROPERTY
Valence
SciTegic.value.DoubleValue
6.334

@<SCITEGIC>MOL_PROPERTY
Coulomb
SciTegic.value.DoubleValue
-7.439

@<SCITEGIC>MOL_PROPERTY
VdW
SciTegic.value.DoubleValue
0.951

@<SCITEGIC>MOL_PROPERTY
VdW6
SciTegic.value.DoubleValue
-2.120

@<SCITEGIC>MOL_PROPERTY
VdW12
SciTegic.value.DoubleValue
3.072

@<SCITEGIC>MOL_PROPERTY
Bond
SciTegic.value.DoubleValue
0.065

@<SCITEGIC>MOL_PROPERTY
Angle
SciTegic.value.DoubleValue
0.930

@<SCITEGIC>MOL_PROPERTY
Pdih
SciTegic.value.DoubleValue
5.339

@<SCITEGIC>MOL_PROPERTY
Idih
SciTegic.value.DoubleValue
0.000

@<SCITEGIC>MOL_PROPERTY
Tether
SciTegic.value.DoubleValue
0.000

@<TRIPOS>MOLECULE
guest-s16_confgen4.mol2 : confsearch ligand conformer 123
          13          13           1
SMALL
USER_CHARGES
 
@<TRIPOS>ATOM
       1    C1      18.696228   18.784200   23.034234 C.3        1 MOL1        -0.1693
       2    H1      17.815251   19.181182   23.552174 H          1 MOL1         0.0829
       3    H2      18.744559   17.700633   23.203799 H          1 MOL1         0.0829
       4    C2      20.042302   19.541661   23.285852 C.3        1 MOL1        -0.1768
       5    H3      19.931163   20.616000   23.476135 H          1 MOL1         0.0829
       6    H4      20.697887   19.115762   24.053453 H          1 MOL1         0.0829
       7    C3      20.407202   19.188047   21.810307 C.3        1 MOL1         0.1211
       8    H5      20.981290   19.961189   21.283538 H          1 MOL1         0.0786
       9    C4      18.870159   19.217210   21.540597 C.3        1 MOL1        -0.1768
      10    H6      18.501219   18.510136   20.789410 H          1 MOL1         0.0829
      11    H7      18.474154   20.213161   21.307713 H          1 MOL1         0.0829
      12    O1      21.020478   17.926546   21.635224 O.3        1 MOL1        -0.5515
      13    H8      21.039795   17.743969   20.671664 H          1 MOL1         0.3773
@<TRIPOS>BOND
    1     1     2    1
    2     1     3    1
    3     1     4    1
    4     4     5    1
    5     4     6    1
    6     4     7    1
    7     7     8    1
    8     1     9    1
    9     7     9    1
   10     9    10    1
   11     9    11    1
   12     7    12    1
   13    12    13    1
@<TRIPOS>SUBSTRUCTURE
       1 MOL1            1 RESIDUE      1      MOL     
@<SCITEGIC>MOL_PROPERTY
VConf Rank
SciTegic.value.IntegerValue
123

@<SCITEGIC>MOL_PROPERTY
Conf_Id
SciTegic.value.IntegerValue
20

@<SCITEGIC>MOL_PROPERTY
Delta U+W
SciTegic.value.DoubleValue
1.030

@<SCITEGIC>MOL_PROPERTY
U+W
SciTegic.value.DoubleValue
-2.101

@<SCITEGIC>MOL_PROPERTY
Grad RMS
SciTegic.value.DoubleValue
0.000000

@<SCITEGIC>MOL_PROPERTY
U
SciTegic.value.DoubleValue
0.841

@<SCITEGIC>MOL_PROPERTY
W
SciTegic.value.DoubleValue
-2.942

@<SCITEGIC>MOL_PROPERTY
W(PB)
SciTegic.value.DoubleValue
-4.530

@<SCITEGIC>MOL_PROPERTY
W(SA)
SciTegic.value.DoubleValue
1.587

@<SCITEGIC>MOL_PROPERTY
Valence
SciTegic.value.DoubleValue
6.736

@<SCITEGIC>MOL_PROPERTY
Coulomb
SciTegic.value.DoubleValue
-7.246

@<SCITEGIC>MOL_PROPERTY
VdW
SciTegic.value.DoubleValue
1.352

@<SCITEGIC>MOL_PROPERTY
VdW6
SciTegic.value.DoubleValue
-2.500

@<SCITEGIC>MOL_PROPERTY
VdW12
SciTegic.value.DoubleValue
3.851

@<SCITEGIC>MOL_PROPERTY
Bond
SciTegic.value.DoubleValue
0.063

@<SCITEGIC>MOL_PROPERTY
Angle
SciTegic.value.DoubleValue
0.687

@<SCITEGIC>MOL_PROPERTY
Pdih
SciTegic.value.DoubleValue
5.986

@<SCITEGIC>MOL_PROPERTY
Idih
SciTegic.value.DoubleValue
0.000

@<SCITEGIC>MOL_PROPERTY
Tether
SciTegic.value.DoubleValue
0.000

@<TRIPOS>MOLECULE
guest-s16_confgen4.mol2 : confsearch ligand conformer 124
          13          13           1
SMALL
USER_CHARGES
 
@<TRIPOS>ATOM
       1    C1      20.518524   19.885006   21.788868 C.3        1 MOL1        -0.1693
       2    H1      20.419945   20.880870   22.240760 H          1 MOL1         0.0829
       3    H2      21.308111   19.922165   21.028873 H          1 MOL1         0.0829
       4    C2      19.168113   19.231457   21.345450 C.3        1 MOL1        -0.1768
       5    H3      18.389407   19.920514   21.000325 H          1 MOL1         0.0829
       6    H4      19.270745   18.421104   20.613204 H          1 MOL1         0.0829
       7    C3      19.049458   18.763656   22.827421 C.3        1 MOL1         0.1211
       8    H5      18.638226   19.526556   23.502376 H          1 MOL1         0.0786
       9    C4      20.606957   18.707189   22.814677 C.3        1 MOL1        -0.1768
      10    H6      21.031189   17.779657   22.410822 H          1 MOL1         0.0829
      11    H7      21.098969   18.933236   23.767105 H          1 MOL1         0.0829
      12    O1      18.401438   17.529062   23.021499 O.3        1 MOL1        -0.5515
      13    H8      18.807521   16.892364   22.396655 H          1 MOL1         0.3773
@<TRIPOS>BOND
    1     1     2    1
    2     1     3    1
    3     1     4    1
    4     4     5    1
    5     4     6    1
    6     4     7    1
    7     7     8    1
    8     1     9    1
    9     7     9    1
   10     9    10    1
   11     9    11    1
   12     7    12    1
   13    12    13    1
@<TRIPOS>SUBSTRUCTURE
       1 MOL1            1 RESIDUE      1      MOL     
@<SCITEGIC>MOL_PROPERTY
VConf Rank
SciTegic.value.IntegerValue
124

@<SCITEGIC>MOL_PROPERTY
Conf_Id
SciTegic.value.IntegerValue
24

@<SCITEGIC>MOL_PROPERTY
Delta U+W
SciTegic.value.DoubleValue
0.356

@<SCITEGIC>MOL_PROPERTY
U+W
SciTegic.value.DoubleValue
-2.775

@<SCITEGIC>MOL_PROPERTY
Grad RMS
SciTegic.value.DoubleValue
0.000000

@<SCITEGIC>MOL_PROPERTY
U
SciTegic.value.DoubleValue
-0.184

@<SCITEGIC>MOL_PROPERTY
W
SciTegic.value.DoubleValue
-2.591

@<SCITEGIC>MOL_PROPERTY
W(PB)
SciTegic.value.DoubleValue
-4.184

@<SCITEGIC>MOL_PROPERTY
W(SA)
SciTegic.value.DoubleValue
1.593

@<SCITEGIC>MOL_PROPERTY
Valence
SciTegic.value.DoubleValue
6.840

@<SCITEGIC>MOL_PROPERTY
Coulomb
SciTegic.value.DoubleValue
-7.916

@<SCITEGIC>MOL_PROPERTY
VdW
SciTegic.value.DoubleValue
0.893

@<SCITEGIC>MOL_PROPERTY
VdW6
SciTegic.value.DoubleValue
-2.167

@<SCITEGIC>MOL_PROPERTY
VdW12
SciTegic.value.DoubleValue
3.060

@<SCITEGIC>MOL_PROPERTY
Bond
SciTegic.value.DoubleValue
0.059

@<SCITEGIC>MOL_PROPERTY
Angle
SciTegic.value.DoubleValue
0.918

@<SCITEGIC>MOL_PROPERTY
Pdih
SciTegic.value.DoubleValue
5.862

@<SCITEGIC>MOL_PROPERTY
Idih
SciTegic.value.DoubleValue
0.000

@<SCITEGIC>MOL_PROPERTY
Tether
SciTegic.value.DoubleValue
0.000

@<TRIPOS>MOLECULE
guest-s16_confgen4.mol2 : confsearch ligand conformer 125
          13          13           1
SMALL
USER_CHARGES
 
@<TRIPOS>ATOM
       1    C1      18.898498   18.194852   22.028602 C.3        1 MOL1        -0.1693
       2    H1      17.885091   17.858347   22.277889 H          1 MOL1         0.0829
       3    H2      19.327907   17.492976   21.302465 H          1 MOL1         0.0829
       4    C2      19.825049   18.534080   23.243742 C.3        1 MOL1        -0.1768
       5    H3      19.294622   18.909242   24.127436 H          1 MOL1         0.0829
       6    H4      20.514591   17.743794   23.561060 H          1 MOL1         0.0829
       7    C3      20.437660   19.653617   22.346337 C.3        1 MOL1         0.1211
       8    H5      20.720202   20.569530   22.880902 H          1 MOL1         0.0786
       9    C4      19.043359   19.706336   21.648384 C.3        1 MOL1        -0.1768
      10    H6      18.321271   20.368918   22.140918 H          1 MOL1         0.0829
      11    H7      19.052503   19.936400   20.577078 H          1 MOL1         0.0829
      12    O1      21.498908   19.232399   21.516846 O.3        1 MOL1        -0.5515
      13    H8      21.192197   18.417479   21.068351 H          1 MOL1         0.3773
@<TRIPOS>BOND
    1     1     2    1
    2     1     3    1
    3     1     4    1
    4     4     5    1
    5     4     6    1
    6     4     7    1
    7     7     8    1
    8     1     9    1
    9     7     9    1
   10     9    10    1
   11     9    11    1
   12     7    12    1
   13    12    13    1
@<TRIPOS>SUBSTRUCTURE
       1 MOL1            1 RESIDUE      1      MOL     
@<SCITEGIC>MOL_PROPERTY
VConf Rank
SciTegic.value.IntegerValue
125

@<SCITEGIC>MOL_PROPERTY
Conf_Id
SciTegic.value.IntegerValue
44

@<SCITEGIC>MOL_PROPERTY
Delta U+W
SciTegic.value.DoubleValue
0.823

@<SCITEGIC>MOL_PROPERTY
U+W
SciTegic.value.DoubleValue
-2.308

@<SCITEGIC>MOL_PROPERTY
Grad RMS
SciTegic.value.DoubleValue
0.000000

@<SCITEGIC>MOL_PROPERTY
U
SciTegic.value.DoubleValue
0.039

@<SCITEGIC>MOL_PROPERTY
W
SciTegic.value.DoubleValue
-2.348

@<SCITEGIC>MOL_PROPERTY
W(PB)
SciTegic.value.DoubleValue
-3.918

@<SCITEGIC>MOL_PROPERTY
W(SA)
SciTegic.value.DoubleValue
1.571

@<SCITEGIC>MOL_PROPERTY
Valence
SciTegic.value.DoubleValue
7.320

@<SCITEGIC>MOL_PROPERTY
Coulomb
SciTegic.value.DoubleValue
-8.530

@<SCITEGIC>MOL_PROPERTY
VdW
SciTegic.value.DoubleValue
1.249

@<SCITEGIC>MOL_PROPERTY
VdW6
SciTegic.value.DoubleValue
-2.615

@<SCITEGIC>MOL_PROPERTY
VdW12
SciTegic.value.DoubleValue
3.864

@<SCITEGIC>MOL_PROPERTY
Bond
SciTegic.value.DoubleValue
0.056

@<SCITEGIC>MOL_PROPERTY
Angle
SciTegic.value.DoubleValue
0.694

@<SCITEGIC>MOL_PROPERTY
Pdih
SciTegic.value.DoubleValue
6.570

@<SCITEGIC>MOL_PROPERTY
Idih
SciTegic.value.DoubleValue
0.000

@<SCITEGIC>MOL_PROPERTY
Tether
SciTegic.value.DoubleValue
0.000

@<TRIPOS>MOLECULE
guest-s16_confgen4.mol2 : confsearch ligand conformer 126
          13          13           1
SMALL
USER_CHARGES
 
@<TRIPOS>ATOM
       1    C1      20.508563   18.967737   21.234585 C.3        1 MOL1        -0.1693
       2    H1      21.038620   18.007877   21.177183 H          1 MOL1         0.0829
       3    H2      20.805045   19.583569   20.377155 H          1 MOL1         0.0829
       4    C2      20.566785   19.664789   22.633884 C.3        1 MOL1        -0.1768
       5    H3      21.481020   19.505515   23.215920 H          1 MOL1         0.0829
       6    H4      20.337742   20.737639   22.623016 H          1 MOL1         0.0829
       7    C3      19.359974   18.750777   23.004069 C.3        1 MOL1         0.1211
       8    H5      19.651060   17.740416   23.322661 H          1 MOL1         0.0786
       9    C4      18.970914   18.851673   21.498199 C.3        1 MOL1        -0.1768
      10    H6      18.473752   17.972864   21.073116 H          1 MOL1         0.0829
      11    H7      18.392343   19.746223   21.235844 H          1 MOL1         0.0829
      12    O1      18.433556   19.311891   23.904872 O.3        1 MOL1        -0.5515
      13    H8      17.653354   18.716936   23.927638 H          1 MOL1         0.3773
@<TRIPOS>BOND
    1     1     2    1
    2     1     3    1
    3     1     4    1
    4     4     5    1
    5     4     6    1
    6     4     7    1
    7     7     8    1
    8     1     9    1
    9     7     9    1
   10     9    10    1
   11     9    11    1
   12     7    12    1
   13    12    13    1
@<TRIPOS>SUBSTRUCTURE
       1 MOL1            1 RESIDUE      1      MOL     
@<SCITEGIC>MOL_PROPERTY
VConf Rank
SciTegic.value.IntegerValue
126

@<SCITEGIC>MOL_PROPERTY
Conf_Id
SciTegic.value.IntegerValue
22

@<SCITEGIC>MOL_PROPERTY
Delta U+W
SciTegic.value.DoubleValue
0.000

@<SCITEGIC>MOL_PROPERTY
U+W
SciTegic.value.DoubleValue
-3.131

@<SCITEGIC>MOL_PROPERTY
Grad RMS
SciTegic.value.DoubleValue
0.000000

@<SCITEGIC>MOL_PROPERTY
U
SciTegic.value.DoubleValue
-0.154

@<SCITEGIC>MOL_PROPERTY
W
SciTegic.value.DoubleValue
-2.978

@<SCITEGIC>MOL_PROPERTY
W(PB)
SciTegic.value.DoubleValue
-4.579

@<SCITEGIC>MOL_PROPERTY
W(SA)
SciTegic.value.DoubleValue
1.601

@<SCITEGIC>MOL_PROPERTY
Valence
SciTegic.value.DoubleValue
6.333

@<SCITEGIC>MOL_PROPERTY
Coulomb
SciTegic.value.DoubleValue
-7.439

@<SCITEGIC>MOL_PROPERTY
VdW
SciTegic.value.DoubleValue
0.952

@<SCITEGIC>MOL_PROPERTY
VdW6
SciTegic.value.DoubleValue
-2.120

@<SCITEGIC>MOL_PROPERTY
VdW12
SciTegic.value.DoubleValue
3.072

@<SCITEGIC>MOL_PROPERTY
Bond
SciTegic.value.DoubleValue
0.065

@<SCITEGIC>MOL_PROPERTY
Angle
SciTegic.value.DoubleValue
0.931

@<SCITEGIC>MOL_PROPERTY
Pdih
SciTegic.value.DoubleValue
5.338

@<SCITEGIC>MOL_PROPERTY
Idih
SciTegic.value.DoubleValue
0.000

@<SCITEGIC>MOL_PROPERTY
Tether
SciTegic.value.DoubleValue
0.000

@<TRIPOS>MOLECULE
guest-s16_confgen4.mol2 : confsearch ligand conformer 127
          13          13           1
SMALL
USER_CHARGES
 
@<TRIPOS>ATOM
       1    C1      20.275230   19.147546   23.375085 C.3        1 MOL1        -0.1693
       2    H1      21.271079   18.686160   23.406588 H          1 MOL1         0.0829
       3    H2      20.081994   19.630268   24.340475 H          1 MOL1         0.0829
       4    C2      19.140008   18.218089   22.832211 C.3        1 MOL1        -0.1768
       5    H3      18.123240   18.534583   23.096422 H          1 MOL1         0.0829
       6    H4      19.245118   17.149918   23.051606 H          1 MOL1         0.0829
       7    C3      19.612262   18.671374   21.417748 C.3        1 MOL1         0.1211
       8    H5      20.473925   18.108277   21.033666 H          1 MOL1         0.0786
       9    C4      19.996526   20.016578   22.104489 C.3        1 MOL1        -0.1768
      10    H6      19.167423   20.727730   22.206645 H          1 MOL1         0.0829
      11    H7      20.859066   20.539862   21.677688 H          1 MOL1         0.0829
      12    O1      18.598476   18.760519   20.443664 O.3        1 MOL1        -0.5515
      13    H8      18.337752   17.843478   20.210723 H          1 MOL1         0.3773
@<TRIPOS>BOND
    1     1     2    1
    2     1     3    1
    3     1     4    1
    4     4     5    1
    5     4     6    1
    6     4     7    1
    7     7     8    1
    8     1     9    1
    9     7     9    1
   10     9    10    1
   11     9    11    1
   12     7    12    1
   13    12    13    1
@<TRIPOS>SUBSTRUCTURE
       1 MOL1            1 RESIDUE      1      MOL     
@<SCITEGIC>MOL_PROPERTY
VConf Rank
SciTegic.value.IntegerValue
127

@<SCITEGIC>MOL_PROPERTY
Conf_Id
SciTegic.value.IntegerValue
19

@<SCITEGIC>MOL_PROPERTY
Delta U+W
SciTegic.value.DoubleValue
-0.011

@<SCITEGIC>MOL_PROPERTY
U+W
SciTegic.value.DoubleValue
-3.142

@<SCITEGIC>MOL_PROPERTY
Grad RMS
SciTegic.value.DoubleValue
0.000000

@<SCITEGIC>MOL_PROPERTY
U
SciTegic.value.DoubleValue
-0.154

@<SCITEGIC>MOL_PROPERTY
W
SciTegic.value.DoubleValue
-2.989

@<SCITEGIC>MOL_PROPERTY
W(PB)
SciTegic.value.DoubleValue
-4.588

@<SCITEGIC>MOL_PROPERTY
W(SA)
SciTegic.value.DoubleValue
1.599

@<SCITEGIC>MOL_PROPERTY
Valence
SciTegic.value.DoubleValue
6.334

@<SCITEGIC>MOL_PROPERTY
Coulomb
SciTegic.value.DoubleValue
-7.439

@<SCITEGIC>MOL_PROPERTY
VdW
SciTegic.value.DoubleValue
0.951

@<SCITEGIC>MOL_PROPERTY
VdW6
SciTegic.value.DoubleValue
-2.120

@<SCITEGIC>MOL_PROPERTY
VdW12
SciTegic.value.DoubleValue
3.072

@<SCITEGIC>MOL_PROPERTY
Bond
SciTegic.value.DoubleValue
0.065

@<SCITEGIC>MOL_PROPERTY
Angle
SciTegic.value.DoubleValue
0.930

@<SCITEGIC>MOL_PROPERTY
Pdih
SciTegic.value.DoubleValue
5.339

@<SCITEGIC>MOL_PROPERTY
Idih
SciTegic.value.DoubleValue
0.000

@<SCITEGIC>MOL_PROPERTY
Tether
SciTegic.value.DoubleValue
0.000

@<TRIPOS>MOLECULE
guest-s16_confgen4.mol2 : confsearch ligand conformer 128
          13          13           1
SMALL
USER_CHARGES
 
@<TRIPOS>ATOM
       1    C1      20.428050   19.856130   22.771112 C.3        1 MOL1        -0.1693
       2    H1      20.947461   20.162189   23.686818 H          1 MOL1         0.0829
       3    H2      20.796231   20.468126   21.937379 H          1 MOL1         0.0829
       4    C2      18.869125   19.756091   22.864484 C.3        1 MOL1        -0.1768
       5    H3      18.489726   19.474364   23.854156 H          1 MOL1         0.0829
       6    H4      18.308875   20.628196   22.509595 H          1 MOL1         0.0829
       7    C3      18.980171   18.566932   21.859995 C.3        1 MOL1         0.1211
       8    H5      18.255592   17.759286   22.025847 H          1 MOL1         0.0786
       9    C4      20.389909   18.318678   22.482171 C.3        1 MOL1        -0.1768
      10    H6      21.156612   17.939418   21.797568 H          1 MOL1         0.0829
      11    H7      20.379722   17.688311   23.379672 H          1 MOL1         0.0829
      12    O1      18.986285   18.938889   20.496267 O.3        1 MOL1        -0.5515
      13    H8      19.233929   18.143088   19.979036 H          1 MOL1         0.3773
@<TRIPOS>BOND
    1     1     2    1
    2     1     3    1
    3     1     4    1
    4     4     5    1
    5     4     6    1
    6     4     7    1
    7     7     8    1
    8     1     9    1
    9     7     9    1
   10     9    10    1
   11     9    11    1
   12     7    12    1
   13    12    13    1
@<TRIPOS>SUBSTRUCTURE
       1 MOL1            1 RESIDUE      1      MOL     
@<SCITEGIC>MOL_PROPERTY
VConf Rank
SciTegic.value.IntegerValue
128

@<SCITEGIC>MOL_PROPERTY
Conf_Id
SciTegic.value.IntegerValue
20

@<SCITEGIC>MOL_PROPERTY
Delta U+W
SciTegic.value.DoubleValue
1.030

@<SCITEGIC>MOL_PROPERTY
U+W
SciTegic.value.DoubleValue
-2.101

@<SCITEGIC>MOL_PROPERTY
Grad RMS
SciTegic.value.DoubleValue
0.000000

@<SCITEGIC>MOL_PROPERTY
U
SciTegic.value.DoubleValue
0.841

@<SCITEGIC>MOL_PROPERTY
W
SciTegic.value.DoubleValue
-2.942

@<SCITEGIC>MOL_PROPERTY
W(PB)
SciTegic.value.DoubleValue
-4.530

@<SCITEGIC>MOL_PROPERTY
W(SA)
SciTegic.value.DoubleValue
1.587

@<SCITEGIC>MOL_PROPERTY
Valence
SciTegic.value.DoubleValue
6.736

@<SCITEGIC>MOL_PROPERTY
Coulomb
SciTegic.value.DoubleValue
-7.246

@<SCITEGIC>MOL_PROPERTY
VdW
SciTegic.value.DoubleValue
1.352

@<SCITEGIC>MOL_PROPERTY
VdW6
SciTegic.value.DoubleValue
-2.500

@<SCITEGIC>MOL_PROPERTY
VdW12
SciTegic.value.DoubleValue
3.851

@<SCITEGIC>MOL_PROPERTY
Bond
SciTegic.value.DoubleValue
0.063

@<SCITEGIC>MOL_PROPERTY
Angle
SciTegic.value.DoubleValue
0.687

@<SCITEGIC>MOL_PROPERTY
Pdih
SciTegic.value.DoubleValue
5.986

@<SCITEGIC>MOL_PROPERTY
Idih
SciTegic.value.DoubleValue
0.000

@<SCITEGIC>MOL_PROPERTY
Tether
SciTegic.value.DoubleValue
0.000

@<TRIPOS>MOLECULE
guest-s16_confgen4.mol2 : confsearch ligand conformer 129
          13          13           1
SMALL
USER_CHARGES
 
@<TRIPOS>ATOM
       1    C1      18.656204   18.435242   21.782064 C.3        1 MOL1        -0.1693
       2    H1      17.708585   18.879885   22.113696 H          1 MOL1         0.0829
       3    H2      18.433499   17.594189   21.114639 H          1 MOL1         0.0829
       4    C2      19.681358   18.149780   22.928767 C.3        1 MOL1        -0.1768
       5    H3      19.254472   17.880020   23.901027 H          1 MOL1         0.0829
       6    H4      20.462595   17.423180   22.673597 H          1 MOL1         0.0829
       7    C3      20.096398   19.642870   22.762701 C.3        1 MOL1         0.1211
       8    H5      19.449741   20.346462   23.304447 H          1 MOL1         0.0786
       9    C4      19.714553   19.463406   21.262321 C.3        1 MOL1        -0.1768
      10    H6      20.503208   19.030419   20.634680 H          1 MOL1         0.0829
      11    H7      19.316984   20.353780   20.762856 H          1 MOL1         0.0829
      12    O1      21.453087   19.924376   23.011629 O.3        1 MOL1        -0.5515
      13    H8      21.977919   19.269229   22.505612 H          1 MOL1         0.3773
@<TRIPOS>BOND
    1     1     2    1
    2     1     3    1
    3     1     4    1
    4     4     5    1
    5     4     6    1
    6     4     7    1
    7     7     8    1
    8     1     9    1
    9     7     9    1
   10     9    10    1
   11     9    11    1
   12     7    12    1
   13    12    13    1
@<TRIPOS>SUBSTRUCTURE
       1 MOL1            1 RESIDUE      1      MOL     
@<SCITEGIC>MOL_PROPERTY
VConf Rank
SciTegic.value.IntegerValue
129

@<SCITEGIC>MOL_PROPERTY
Conf_Id
SciTegic.value.IntegerValue
24

@<SCITEGIC>MOL_PROPERTY
Delta U+W
SciTegic.value.DoubleValue
0.356

@<SCITEGIC>MOL_PROPERTY
U+W
SciTegic.value.DoubleValue
-2.775

@<SCITEGIC>MOL_PROPERTY
Grad RMS
SciTegic.value.DoubleValue
0.000000

@<SCITEGIC>MOL_PROPERTY
U
SciTegic.value.DoubleValue
-0.184

@<SCITEGIC>MOL_PROPERTY
W
SciTegic.value.DoubleValue
-2.591

@<SCITEGIC>MOL_PROPERTY
W(PB)
SciTegic.value.DoubleValue
-4.184

@<SCITEGIC>MOL_PROPERTY
W(SA)
SciTegic.value.DoubleValue
1.593

@<SCITEGIC>MOL_PROPERTY
Valence
SciTegic.value.DoubleValue
6.840

@<SCITEGIC>MOL_PROPERTY
Coulomb
SciTegic.value.DoubleValue
-7.916

@<SCITEGIC>MOL_PROPERTY
VdW
SciTegic.value.DoubleValue
0.893

@<SCITEGIC>MOL_PROPERTY
VdW6
SciTegic.value.DoubleValue
-2.167

@<SCITEGIC>MOL_PROPERTY
VdW12
SciTegic.value.DoubleValue
3.060

@<SCITEGIC>MOL_PROPERTY
Bond
SciTegic.value.DoubleValue
0.059

@<SCITEGIC>MOL_PROPERTY
Angle
SciTegic.value.DoubleValue
0.918

@<SCITEGIC>MOL_PROPERTY
Pdih
SciTegic.value.DoubleValue
5.862

@<SCITEGIC>MOL_PROPERTY
Idih
SciTegic.value.DoubleValue
0.000

@<SCITEGIC>MOL_PROPERTY
Tether
SciTegic.value.DoubleValue
0.000

@<TRIPOS>MOLECULE
guest-s16_confgen4.mol2 : confsearch ligand conformer 130
          13          13           1
SMALL
USER_CHARGES
 
@<TRIPOS>ATOM
       1    C1      19.212610   19.942613   22.509641 C.3        1 MOL1        -0.1693
       2    H1      19.242891   21.035270   22.422711 H          1 MOL1         0.0829
       3    H2      18.367718   19.669560   23.154540 H          1 MOL1         0.0829
       4    C2      20.567786   19.247149   22.870151 C.3        1 MOL1        -0.1768
       5    H3      21.458260   19.771225   22.502163 H          1 MOL1         0.0829
       6    H4      20.719495   19.003324   23.927621 H          1 MOL1         0.0829
       7    C3      20.100384   18.069934   21.959277 C.3        1 MOL1         0.1211
       8    H5      20.901960   17.580391   21.391553 H          1 MOL1         0.0786
       9    C4      19.298411   19.146636   21.164578 C.3        1 MOL1        -0.1768
      10    H6      19.877653   19.646068   20.378409 H          1 MOL1         0.0829
      11    H7      18.345239   18.815324   20.737491 H          1 MOL1         0.0829
      12    O1      19.306434   17.099696   22.607359 O.3        1 MOL1        -0.5515
      13    H8      18.613016   17.590782   23.094513 H          1 MOL1         0.3773
@<TRIPOS>BOND
    1     1     2    1
    2     1     3    1
    3     1     4    1
    4     4     5    1
    5     4     6    1
    6     4     7    1
    7     7     8    1
    8     1     9    1
    9     7     9    1
   10     9    10    1
   11     9    11    1
   12     7    12    1
   13    12    13    1
@<TRIPOS>SUBSTRUCTURE
       1 MOL1            1 RESIDUE      1      MOL     
@<SCITEGIC>MOL_PROPERTY
VConf Rank
SciTegic.value.IntegerValue
130

@<SCITEGIC>MOL_PROPERTY
Conf_Id
SciTegic.value.IntegerValue
44

@<SCITEGIC>MOL_PROPERTY
Delta U+W
SciTegic.value.DoubleValue
0.823

@<SCITEGIC>MOL_PROPERTY
U+W
SciTegic.value.DoubleValue
-2.308

@<SCITEGIC>MOL_PROPERTY
Grad RMS
SciTegic.value.DoubleValue
0.000000

@<SCITEGIC>MOL_PROPERTY
U
SciTegic.value.DoubleValue
0.039

@<SCITEGIC>MOL_PROPERTY
W
SciTegic.value.DoubleValue
-2.348

@<SCITEGIC>MOL_PROPERTY
W(PB)
SciTegic.value.DoubleValue
-3.918

@<SCITEGIC>MOL_PROPERTY
W(SA)
SciTegic.value.DoubleValue
1.571

@<SCITEGIC>MOL_PROPERTY
Valence
SciTegic.value.DoubleValue
7.320

@<SCITEGIC>MOL_PROPERTY
Coulomb
SciTegic.value.DoubleValue
-8.530

@<SCITEGIC>MOL_PROPERTY
VdW
SciTegic.value.DoubleValue
1.249

@<SCITEGIC>MOL_PROPERTY
VdW6
SciTegic.value.DoubleValue
-2.615

@<SCITEGIC>MOL_PROPERTY
VdW12
SciTegic.value.DoubleValue
3.864

@<SCITEGIC>MOL_PROPERTY
Bond
SciTegic.value.DoubleValue
0.056

@<SCITEGIC>MOL_PROPERTY
Angle
SciTegic.value.DoubleValue
0.694

@<SCITEGIC>MOL_PROPERTY
Pdih
SciTegic.value.DoubleValue
6.570

@<SCITEGIC>MOL_PROPERTY
Idih
SciTegic.value.DoubleValue
0.000

@<SCITEGIC>MOL_PROPERTY
Tether
SciTegic.value.DoubleValue
0.000

@<TRIPOS>MOLECULE
guest-s16_confgen4.mol2 : confsearch ligand conformer 131
          13          13           1
SMALL
USER_CHARGES
 
@<TRIPOS>ATOM
       1    C1      19.067075   18.653198   23.357085 C.3        1 MOL1        -0.1693
       2    H1      18.056486   19.065965   23.475062 H          1 MOL1         0.0829
       3    H2      19.269433   17.976748   24.196016 H          1 MOL1         0.0829
       4    C2      20.174853   19.713316   23.046783 C.3        1 MOL1        -0.1768
       5    H3      20.033856   20.704510   23.491322 H          1 MOL1         0.0829
       6    H4      21.200290   19.379067   23.247634 H          1 MOL1         0.0829
       7    C3      19.727585   19.567168   21.561037 C.3        1 MOL1         0.1211
       8    H5      18.852232   20.177642   21.299999 H          1 MOL1         0.0786
       9    C4      19.382978   18.092878   21.931050 C.3        1 MOL1        -0.1768
      10    H6      18.540330   17.648772   21.389862 H          1 MOL1         0.0829
      11    H7      20.233837   17.401477   21.888653 H          1 MOL1         0.0829
      12    O1      20.750737   19.725467   20.605712 O.3        1 MOL1        -0.5515
      13    H8      20.383035   19.451699   19.737928 H          1 MOL1         0.3773
@<TRIPOS>BOND
    1     1     2    1
    2     1     3    1
    3     1     4    1
    4     4     5    1
    5     4     6    1
    6     4     7    1
    7     7     8    1
    8     1     9    1
    9     7     9    1
   10     9    10    1
   11     9    11    1
   12     7    12    1
   13    12    13    1
@<TRIPOS>SUBSTRUCTURE
       1 MOL1            1 RESIDUE      1      MOL     
@<SCITEGIC>MOL_PROPERTY
VConf Rank
SciTegic.value.IntegerValue
131

@<SCITEGIC>MOL_PROPERTY
Conf_Id
SciTegic.value.IntegerValue
22

@<SCITEGIC>MOL_PROPERTY
Delta U+W
SciTegic.value.DoubleValue
0.000

@<SCITEGIC>MOL_PROPERTY
U+W
SciTegic.value.DoubleValue
-3.131

@<SCITEGIC>MOL_PROPERTY
Grad RMS
SciTegic.value.DoubleValue
0.000000

@<SCITEGIC>MOL_PROPERTY
U
SciTegic.value.DoubleValue
-0.154

@<SCITEGIC>MOL_PROPERTY
W
SciTegic.value.DoubleValue
-2.978

@<SCITEGIC>MOL_PROPERTY
W(PB)
SciTegic.value.DoubleValue
-4.579

@<SCITEGIC>MOL_PROPERTY
W(SA)
SciTegic.value.DoubleValue
1.601

@<SCITEGIC>MOL_PROPERTY
Valence
SciTegic.value.DoubleValue
6.333

@<SCITEGIC>MOL_PROPERTY
Coulomb
SciTegic.value.DoubleValue
-7.439

@<SCITEGIC>MOL_PROPERTY
VdW
SciTegic.value.DoubleValue
0.952

@<SCITEGIC>MOL_PROPERTY
VdW6
SciTegic.value.DoubleValue
-2.120

@<SCITEGIC>MOL_PROPERTY
VdW12
SciTegic.value.DoubleValue
3.072

@<SCITEGIC>MOL_PROPERTY
Bond
SciTegic.value.DoubleValue
0.065

@<SCITEGIC>MOL_PROPERTY
Angle
SciTegic.value.DoubleValue
0.931

@<SCITEGIC>MOL_PROPERTY
Pdih
SciTegic.value.DoubleValue
5.338

@<SCITEGIC>MOL_PROPERTY
Idih
SciTegic.value.DoubleValue
0.000

@<SCITEGIC>MOL_PROPERTY
Tether
SciTegic.value.DoubleValue
0.000

@<TRIPOS>MOLECULE
guest-s16_confgen4.mol2 : confsearch ligand conformer 132
          13          13           1
SMALL
USER_CHARGES
 
@<TRIPOS>ATOM
       1    C1      18.454140   19.522121   22.179552 C.3        1 MOL1        -0.1693
       2    H1      18.413164   20.469427   22.733193 H          1 MOL1         0.0829
       3    H2      17.461130   19.316931   21.762219 H          1 MOL1         0.0829
       4    C2      19.132622   18.342085   22.950595 C.3        1 MOL1        -0.1768
       5    H3      18.893126   17.343919   22.563168 H          1 MOL1         0.0829
       6    H4      19.002569   18.338770   24.038367 H          1 MOL1         0.0829
       7    C3      20.476464   18.934106   22.428297 C.3        1 MOL1         0.1211
       8    H5      20.864596   19.763048   23.035974 H          1 MOL1         0.0786
       9    C4      19.656177   19.396101   21.186309 C.3        1 MOL1        -0.1768
      10    H6      19.533937   18.629078   20.411508 H          1 MOL1         0.0829
      11    H7      19.991669   20.325113   20.712660 H          1 MOL1         0.0829
      12    O1      21.488693   17.990527   22.164477 O.3        1 MOL1        -0.5515
      13    H8      21.813814   17.663156   23.030692 H          1 MOL1         0.3773
@<TRIPOS>BOND
    1     1     2    1
    2     1     3    1
    3     1     4    1
    4     4     5    1
    5     4     6    1
    6     4     7    1
    7     7     8    1
    8     1     9    1
    9     7     9    1
   10     9    10    1
   11     9    11    1
   12     7    12    1
   13    12    13    1
@<TRIPOS>SUBSTRUCTURE
       1 MOL1            1 RESIDUE      1      MOL     
@<SCITEGIC>MOL_PROPERTY
VConf Rank
SciTegic.value.IntegerValue
132

@<SCITEGIC>MOL_PROPERTY
Conf_Id
SciTegic.value.IntegerValue
19

@<SCITEGIC>MOL_PROPERTY
Delta U+W
SciTegic.value.DoubleValue
-0.011

@<SCITEGIC>MOL_PROPERTY
U+W
SciTegic.value.DoubleValue
-3.142

@<SCITEGIC>MOL_PROPERTY
Grad RMS
SciTegic.value.DoubleValue
0.000000

@<SCITEGIC>MOL_PROPERTY
U
SciTegic.value.DoubleValue
-0.154

@<SCITEGIC>MOL_PROPERTY
W
SciTegic.value.DoubleValue
-2.989

@<SCITEGIC>MOL_PROPERTY
W(PB)
SciTegic.value.DoubleValue
-4.588

@<SCITEGIC>MOL_PROPERTY
W(SA)
SciTegic.value.DoubleValue
1.599

@<SCITEGIC>MOL_PROPERTY
Valence
SciTegic.value.DoubleValue
6.334

@<SCITEGIC>MOL_PROPERTY
Coulomb
SciTegic.value.DoubleValue
-7.439

@<SCITEGIC>MOL_PROPERTY
VdW
SciTegic.value.DoubleValue
0.951

@<SCITEGIC>MOL_PROPERTY
VdW6
SciTegic.value.DoubleValue
-2.120

@<SCITEGIC>MOL_PROPERTY
VdW12
SciTegic.value.DoubleValue
3.072

@<SCITEGIC>MOL_PROPERTY
Bond
SciTegic.value.DoubleValue
0.065

@<SCITEGIC>MOL_PROPERTY
Angle
SciTegic.value.DoubleValue
0.930

@<SCITEGIC>MOL_PROPERTY
Pdih
SciTegic.value.DoubleValue
5.339

@<SCITEGIC>MOL_PROPERTY
Idih
SciTegic.value.DoubleValue
0.000

@<SCITEGIC>MOL_PROPERTY
Tether
SciTegic.value.DoubleValue
0.000

@<TRIPOS>MOLECULE
guest-s16_confgen4.mol2 : confsearch ligand conformer 133
          13          13           1
SMALL
USER_CHARGES
 
@<TRIPOS>ATOM
       1    C1      18.747244   19.841728   22.616789 C.3        1 MOL1        -0.1693
       2    H1      18.112411   20.182101   23.443294 H          1 MOL1         0.0829
       3    H2      18.572040   20.491056   21.749100 H          1 MOL1         0.0829
       4    C2      18.703530   18.309653   22.300864 C.3        1 MOL1        -0.1768
       5    H3      18.513491   17.670734   23.171744 H          1 MOL1         0.0829
       6    H4      18.033457   18.004588   21.489488 H          1 MOL1         0.0829
       7    C3      20.211537   18.441433   21.921419 C.3        1 MOL1         0.1211
       8    H5      20.826224   17.570100   22.181710 H          1 MOL1         0.0786
       9    C4      20.255958   19.606511   22.959068 C.3        1 MOL1        -0.1768
      10    H6      20.936233   20.432616   22.724273 H          1 MOL1         0.0829
      11    H7      20.442239   19.282349   23.990180 H          1 MOL1         0.0829
      12    O1      20.456831   18.824062   20.582924 O.3        1 MOL1        -0.5515
      13    H8      21.410492   19.042764   20.513246 H          1 MOL1         0.3773
@<TRIPOS>BOND
    1     1     2    1
    2     1     3    1
    3     1     4    1
    4     4     5    1
    5     4     6    1
    6     4     7    1
    7     7     8    1
    8     1     9    1
    9     7     9    1
   10     9    10    1
   11     9    11    1
   12     7    12    1
   13    12    13    1
@<TRIPOS>SUBSTRUCTURE
       1 MOL1            1 RESIDUE      1      MOL     
@<SCITEGIC>MOL_PROPERTY
VConf Rank
SciTegic.value.IntegerValue
133

@<SCITEGIC>MOL_PROPERTY
Conf_Id
SciTegic.value.IntegerValue
20

@<SCITEGIC>MOL_PROPERTY
Delta U+W
SciTegic.value.DoubleValue
1.030

@<SCITEGIC>MOL_PROPERTY
U+W
SciTegic.value.DoubleValue
-2.101

@<SCITEGIC>MOL_PROPERTY
Grad RMS
SciTegic.value.DoubleValue
0.000000

@<SCITEGIC>MOL_PROPERTY
U
SciTegic.value.DoubleValue
0.841

@<SCITEGIC>MOL_PROPERTY
W
SciTegic.value.DoubleValue
-2.942

@<SCITEGIC>MOL_PROPERTY
W(PB)
SciTegic.value.DoubleValue
-4.530

@<SCITEGIC>MOL_PROPERTY
W(SA)
SciTegic.value.DoubleValue
1.587

@<SCITEGIC>MOL_PROPERTY
Valence
SciTegic.value.DoubleValue
6.736

@<SCITEGIC>MOL_PROPERTY
Coulomb
SciTegic.value.DoubleValue
-7.246

@<SCITEGIC>MOL_PROPERTY
VdW
SciTegic.value.DoubleValue
1.352

@<SCITEGIC>MOL_PROPERTY
VdW6
SciTegic.value.DoubleValue
-2.500

@<SCITEGIC>MOL_PROPERTY
VdW12
SciTegic.value.DoubleValue
3.851

@<SCITEGIC>MOL_PROPERTY
Bond
SciTegic.value.DoubleValue
0.063

@<SCITEGIC>MOL_PROPERTY
Angle
SciTegic.value.DoubleValue
0.687

@<SCITEGIC>MOL_PROPERTY
Pdih
SciTegic.value.DoubleValue
5.986

@<SCITEGIC>MOL_PROPERTY
Idih
SciTegic.value.DoubleValue
0.000

@<SCITEGIC>MOL_PROPERTY
Tether
SciTegic.value.DoubleValue
0.000

@<TRIPOS>MOLECULE
guest-s16_confgen4.mol2 : confsearch ligand conformer 134
          13          13           1
SMALL
USER_CHARGES
 
@<TRIPOS>ATOM
       1    C1      19.155184   18.456365   21.189501 C.3        1 MOL1        -0.1693
       2    H1      19.182004   19.026136   20.251252 H          1 MOL1         0.0829
       3    H2      18.589914   17.531884   21.021492 H          1 MOL1         0.0829
       4    C2      18.750043   19.290191   22.449640 C.3        1 MOL1        -0.1768
       5    H3      18.041399   20.108143   22.279139 H          1 MOL1         0.0829
       6    H4      18.399809   18.692689   23.300355 H          1 MOL1         0.0829
       7    C3      20.252916   19.698574   22.510892 C.3        1 MOL1         0.1211
       8    H5      20.513115   20.535300   21.848413 H          1 MOL1         0.0786
       9    C4      20.541274   18.295420   21.896755 C.3        1 MOL1        -0.1768
      10    H6      20.591401   17.475574   22.623892 H          1 MOL1         0.0829
      11    H7      21.414560   18.234838   21.237974 H          1 MOL1         0.0829
      12    O1      20.769496   19.910495   23.803197 O.3        1 MOL1        -0.5515
      13    H8      20.507486   19.137229   24.345534 H          1 MOL1         0.3773
@<TRIPOS>BOND
    1     1     2    1
    2     1     3    1
    3     1     4    1
    4     4     5    1
    5     4     6    1
    6     4     7    1
    7     7     8    1
    8     1     9    1
    9     7     9    1
   10     9    10    1
   11     9    11    1
   12     7    12    1
   13    12    13    1
@<TRIPOS>SUBSTRUCTURE
       1 MOL1            1 RESIDUE      1      MOL     
@<SCITEGIC>MOL_PROPERTY
VConf Rank
SciTegic.value.IntegerValue
134

@<SCITEGIC>MOL_PROPERTY
Conf_Id
SciTegic.value.IntegerValue
24

@<SCITEGIC>MOL_PROPERTY
Delta U+W
SciTegic.value.DoubleValue
0.356

@<SCITEGIC>MOL_PROPERTY
U+W
SciTegic.value.DoubleValue
-2.775

@<SCITEGIC>MOL_PROPERTY
Grad RMS
SciTegic.value.DoubleValue
0.000000

@<SCITEGIC>MOL_PROPERTY
U
SciTegic.value.DoubleValue
-0.184

@<SCITEGIC>MOL_PROPERTY
W
SciTegic.value.DoubleValue
-2.591

@<SCITEGIC>MOL_PROPERTY
W(PB)
SciTegic.value.DoubleValue
-4.184

@<SCITEGIC>MOL_PROPERTY
W(SA)
SciTegic.value.DoubleValue
1.593

@<SCITEGIC>MOL_PROPERTY
Valence
SciTegic.value.DoubleValue
6.840

@<SCITEGIC>MOL_PROPERTY
Coulomb
SciTegic.value.DoubleValue
-7.916

@<SCITEGIC>MOL_PROPERTY
VdW
SciTegic.value.DoubleValue
0.893

@<SCITEGIC>MOL_PROPERTY
VdW6
SciTegic.value.DoubleValue
-2.167

@<SCITEGIC>MOL_PROPERTY
VdW12
SciTegic.value.DoubleValue
3.060

@<SCITEGIC>MOL_PROPERTY
Bond
SciTegic.value.DoubleValue
0.059

@<SCITEGIC>MOL_PROPERTY
Angle
SciTegic.value.DoubleValue
0.918

@<SCITEGIC>MOL_PROPERTY
Pdih
SciTegic.value.DoubleValue
5.862

@<SCITEGIC>MOL_PROPERTY
Idih
SciTegic.value.DoubleValue
0.000

@<SCITEGIC>MOL_PROPERTY
Tether
SciTegic.value.DoubleValue
0.000

@<TRIPOS>MOLECULE
guest-s16_confgen4.mol2 : confsearch ligand conformer 135
          13          13           1
SMALL
USER_CHARGES
 
@<TRIPOS>ATOM
       1    C1      19.589934   17.851277   22.258575 C.3        1 MOL1        -0.1693
       2    H1      19.864069   16.893303   21.800854 H          1 MOL1         0.0829
       3    H2      18.948721   17.649949   23.126105 H          1 MOL1         0.0829
       4    C2      19.049238   18.947084   21.280315 C.3        1 MOL1        -0.1768
       5    H3      19.459568   18.890462   20.264717 H          1 MOL1         0.0829
       6    H4      17.959426   19.037650   21.210913 H          1 MOL1         0.0829
       7    C3      19.762815   19.987722   22.197850 C.3        1 MOL1         0.1211
       8    H5      20.197535   20.845973   21.669730 H          1 MOL1         0.0786
       9    C4      20.770311   18.843286   22.528324 C.3        1 MOL1        -0.1768
      10    H6      21.602622   18.761214   21.818720 H          1 MOL1         0.0829
      11    H7      21.178548   18.843504   23.545207 H          1 MOL1         0.0829
      12    O1      18.994736   20.434623   23.294236 O.3        1 MOL1        -0.5515
      13    H8      18.634334   19.631923   23.724463 H          1 MOL1         0.3773
@<TRIPOS>BOND
    1     1     2    1
    2     1     3    1
    3     1     4    1
    4     4     5    1
    5     4     6    1
    6     4     7    1
    7     7     8    1
    8     1     9    1
    9     7     9    1
   10     9    10    1
   11     9    11    1
   12     7    12    1
   13    12    13    1
@<TRIPOS>SUBSTRUCTURE
       1 MOL1            1 RESIDUE      1      MOL     
@<SCITEGIC>MOL_PROPERTY
VConf Rank
SciTegic.value.IntegerValue
135

@<SCITEGIC>MOL_PROPERTY
Conf_Id
SciTegic.value.IntegerValue
44

@<SCITEGIC>MOL_PROPERTY
Delta U+W
SciTegic.value.DoubleValue
0.823

@<SCITEGIC>MOL_PROPERTY
U+W
SciTegic.value.DoubleValue
-2.308

@<SCITEGIC>MOL_PROPERTY
Grad RMS
SciTegic.value.DoubleValue
0.000000

@<SCITEGIC>MOL_PROPERTY
U
SciTegic.value.DoubleValue
0.039

@<SCITEGIC>MOL_PROPERTY
W
SciTegic.value.DoubleValue
-2.348

@<SCITEGIC>MOL_PROPERTY
W(PB)
SciTegic.value.DoubleValue
-3.918

@<SCITEGIC>MOL_PROPERTY
W(SA)
SciTegic.value.DoubleValue
1.571

@<SCITEGIC>MOL_PROPERTY
Valence
SciTegic.value.DoubleValue
7.320

@<SCITEGIC>MOL_PROPERTY
Coulomb
SciTegic.value.DoubleValue
-8.530

@<SCITEGIC>MOL_PROPERTY
VdW
SciTegic.value.DoubleValue
1.249

@<SCITEGIC>MOL_PROPERTY
VdW6
SciTegic.value.DoubleValue
-2.615

@<SCITEGIC>MOL_PROPERTY
VdW12
SciTegic.value.DoubleValue
3.864

@<SCITEGIC>MOL_PROPERTY
Bond
SciTegic.value.DoubleValue
0.056

@<SCITEGIC>MOL_PROPERTY
Angle
SciTegic.value.DoubleValue
0.694

@<SCITEGIC>MOL_PROPERTY
Pdih
SciTegic.value.DoubleValue
6.570

@<SCITEGIC>MOL_PROPERTY
Idih
SciTegic.value.DoubleValue
0.000

@<SCITEGIC>MOL_PROPERTY
Tether
SciTegic.value.DoubleValue
0.000

@<TRIPOS>MOLECULE
guest-s16_confgen4.mol2 : confsearch ligand conformer 136
          13          13           1
SMALL
USER_CHARGES
 
@<TRIPOS>ATOM
       1    C1      18.376744   19.103347   21.978954 C.3        1 MOL1        -0.1693
       2    H1      17.998978   18.218205   21.450368 H          1 MOL1         0.0829
       3    H2      17.535398   19.777335   22.179488 H          1 MOL1         0.0829
       4    C2      19.643571   19.758401   21.336021 C.3        1 MOL1        -0.1768
       5    H3      19.720130   19.694729   20.245129 H          1 MOL1         0.0829
       6    H4      19.831323   20.794758   21.643100 H          1 MOL1         0.0829
       7    C3      20.451258   18.691857   22.135379 C.3        1 MOL1         0.1211
       8    H5      20.511570   17.715541   21.635149 H          1 MOL1         0.0786
       9    C4      19.311506   18.790939   23.193841 C.3        1 MOL1        -0.1768
      10    H6      19.091956   17.871316   23.747250 H          1 MOL1         0.0829
      11    H7      19.424087   19.615280   23.909091 H          1 MOL1         0.0829
      12    O1      21.722716   19.106498   22.578114 O.3        1 MOL1        -0.5515
      13    H8      22.053489   18.419701   23.196259 H          1 MOL1         0.3773
@<TRIPOS>BOND
    1     1     2    1
    2     1     3    1
    3     1     4    1
    4     4     5    1
    5     4     6    1
    6     4     7    1
    7     7     8    1
    8     1     9    1
    9     7     9    1
   10     9    10    1
   11     9    11    1
   12     7    12    1
   13    12    13    1
@<TRIPOS>SUBSTRUCTURE
       1 MOL1            1 RESIDUE      1      MOL     
@<SCITEGIC>MOL_PROPERTY
VConf Rank
SciTegic.value.IntegerValue
136

@<SCITEGIC>MOL_PROPERTY
Conf_Id
SciTegic.value.IntegerValue
22

@<SCITEGIC>MOL_PROPERTY
Delta U+W
SciTegic.value.DoubleValue
0.000

@<SCITEGIC>MOL_PROPERTY
U+W
SciTegic.value.DoubleValue
-3.131

@<SCITEGIC>MOL_PROPERTY
Grad RMS
SciTegic.value.DoubleValue
0.000000

@<SCITEGIC>MOL_PROPERTY
U
SciTegic.value.DoubleValue
-0.154

@<SCITEGIC>MOL_PROPERTY
W
SciTegic.value.DoubleValue
-2.978

@<SCITEGIC>MOL_PROPERTY
W(PB)
SciTegic.value.DoubleValue
-4.579

@<SCITEGIC>MOL_PROPERTY
W(SA)
SciTegic.value.DoubleValue
1.601

@<SCITEGIC>MOL_PROPERTY
Valence
SciTegic.value.DoubleValue
6.333

@<SCITEGIC>MOL_PROPERTY
Coulomb
SciTegic.value.DoubleValue
-7.439

@<SCITEGIC>MOL_PROPERTY
VdW
SciTegic.value.DoubleValue
0.952

@<SCITEGIC>MOL_PROPERTY
VdW6
SciTegic.value.DoubleValue
-2.120

@<SCITEGIC>MOL_PROPERTY
VdW12
SciTegic.value.DoubleValue
3.072

@<SCITEGIC>MOL_PROPERTY
Bond
SciTegic.value.DoubleValue
0.065

@<SCITEGIC>MOL_PROPERTY
Angle
SciTegic.value.DoubleValue
0.931

@<SCITEGIC>MOL_PROPERTY
Pdih
SciTegic.value.DoubleValue
5.338

@<SCITEGIC>MOL_PROPERTY
Idih
SciTegic.value.DoubleValue
0.000

@<SCITEGIC>MOL_PROPERTY
Tether
SciTegic.value.DoubleValue
0.000

@<TRIPOS>MOLECULE
guest-s16_confgen4.mol2 : confsearch ligand conformer 137
          13          13           1
SMALL
USER_CHARGES
 
@<TRIPOS>ATOM
       1    C1      20.924025   18.854060   22.491093 C.3        1 MOL1        -0.1693
       2    H1      21.165322   18.293995   23.404159 H          1 MOL1         0.0829
       3    H2      21.854931   19.245332   22.063710 H          1 MOL1         0.0829
       4    C2      19.753041   19.880272   22.642809 C.3        1 MOL1        -0.1768
       5    H3      19.720255   20.655843   21.867434 H          1 MOL1         0.0829
       6    H4      19.654471   20.357890   23.623797 H          1 MOL1         0.0829
       7    C3      18.814727   18.663493   22.381636 C.3        1 MOL1         0.1211
       8    H5      18.610336   18.058128   23.275403 H          1 MOL1         0.0786
       9    C4      19.972442   18.108387   21.498235 C.3        1 MOL1        -0.1768
      10    H6      19.985613   18.494264   20.471341 H          1 MOL1         0.0829
      11    H7      20.065862   17.017428   21.465958 H          1 MOL1         0.0829
      12    O1      17.621252   18.959323   21.694140 O.3        1 MOL1        -0.5515
      13    H8      17.039821   19.445966   22.317293 H          1 MOL1         0.3773
@<TRIPOS>BOND
    1     1     2    1
    2     1     3    1
    3     1     4    1
    4     4     5    1
    5     4     6    1
    6     4     7    1
    7     7     8    1
    8     1     9    1
    9     7     9    1
   10     9    10    1
   11     9    11    1
   12     7    12    1
   13    12    13    1
@<TRIPOS>SUBSTRUCTURE
       1 MOL1            1 RESIDUE      1      MOL     
@<SCITEGIC>MOL_PROPERTY
VConf Rank
SciTegic.value.IntegerValue
137

@<SCITEGIC>MOL_PROPERTY
Conf_Id
SciTegic.value.IntegerValue
19

@<SCITEGIC>MOL_PROPERTY
Delta U+W
SciTegic.value.DoubleValue
-0.011

@<SCITEGIC>MOL_PROPERTY
U+W
SciTegic.value.DoubleValue
-3.142

@<SCITEGIC>MOL_PROPERTY
Grad RMS
SciTegic.value.DoubleValue
0.000000

@<SCITEGIC>MOL_PROPERTY
U
SciTegic.value.DoubleValue
-0.154

@<SCITEGIC>MOL_PROPERTY
W
SciTegic.value.DoubleValue
-2.989

@<SCITEGIC>MOL_PROPERTY
W(PB)
SciTegic.value.DoubleValue
-4.588

@<SCITEGIC>MOL_PROPERTY
W(SA)
SciTegic.value.DoubleValue
1.599

@<SCITEGIC>MOL_PROPERTY
Valence
SciTegic.value.DoubleValue
6.334

@<SCITEGIC>MOL_PROPERTY
Coulomb
SciTegic.value.DoubleValue
-7.439

@<SCITEGIC>MOL_PROPERTY
VdW
SciTegic.value.DoubleValue
0.951

@<SCITEGIC>MOL_PROPERTY
VdW6
SciTegic.value.DoubleValue
-2.120

@<SCITEGIC>MOL_PROPERTY
VdW12
SciTegic.value.DoubleValue
3.072

@<SCITEGIC>MOL_PROPERTY
Bond
SciTegic.value.DoubleValue
0.065

@<SCITEGIC>MOL_PROPERTY
Angle
SciTegic.value.DoubleValue
0.930

@<SCITEGIC>MOL_PROPERTY
Pdih
SciTegic.value.DoubleValue
5.339

@<SCITEGIC>MOL_PROPERTY
Idih
SciTegic.value.DoubleValue
0.000

@<SCITEGIC>MOL_PROPERTY
Tether
SciTegic.value.DoubleValue
0.000

@<TRIPOS>MOLECULE
guest-s16_confgen4.mol2 : confsearch ligand conformer 138
          13          13           1
SMALL
USER_CHARGES
 
@<TRIPOS>ATOM
       1    C1      20.047809   17.955474   21.907926 C.3        1 MOL1        -0.1693
       2    H1      19.898942   17.129237   21.202839 H          1 MOL1         0.0829
       3    H2      20.963402   17.765534   22.483095 H          1 MOL1         0.0829
       4    C2      18.806975   18.352928   22.774722 C.3        1 MOL1        -0.1768
       5    H3      17.839161   18.191407   22.284811 H          1 MOL1         0.0829
       6    H4      18.766025   17.923367   23.781794 H          1 MOL1         0.0829
       7    C3      19.332646   19.819516   22.684075 C.3        1 MOL1         0.1211
       8    H5      18.547095   20.583738   22.623350 H          1 MOL1         0.0786
       9    C4      19.942428   19.397954   21.310559 C.3        1 MOL1        -0.1768
      10    H6      20.890208   19.875936   21.039270 H          1 MOL1         0.0829
      11    H7      19.249918   19.489547   20.464974 H          1 MOL1         0.0829
      12    O1      20.277789   20.174797   23.673330 O.3        1 MOL1        -0.5515
      13    H8      20.659289   21.040260   23.413354 H          1 MOL1         0.3773
@<TRIPOS>BOND
    1     1     2    1
    2     1     3    1
    3     1     4    1
    4     4     5    1
    5     4     6    1
    6     4     7    1
    7     7     8    1
    8     1     9    1
    9     7     9    1
   10     9    10    1
   11     9    11    1
   12     7    12    1
   13    12    13    1
@<TRIPOS>SUBSTRUCTURE
       1 MOL1            1 RESIDUE      1      MOL     
@<SCITEGIC>MOL_PROPERTY
VConf Rank
SciTegic.value.IntegerValue
138

@<SCITEGIC>MOL_PROPERTY
Conf_Id
SciTegic.value.IntegerValue
20

@<SCITEGIC>MOL_PROPERTY
Delta U+W
SciTegic.value.DoubleValue
1.030

@<SCITEGIC>MOL_PROPERTY
U+W
SciTegic.value.DoubleValue
-2.101

@<SCITEGIC>MOL_PROPERTY
Grad RMS
SciTegic.value.DoubleValue
0.000000

@<SCITEGIC>MOL_PROPERTY
U
SciTegic.value.DoubleValue
0.841

@<SCITEGIC>MOL_PROPERTY
W
SciTegic.value.DoubleValue
-2.942

@<SCITEGIC>MOL_PROPERTY
W(PB)
SciTegic.value.DoubleValue
-4.530

@<SCITEGIC>MOL_PROPERTY
W(SA)
SciTegic.value.DoubleValue
1.587

@<SCITEGIC>MOL_PROPERTY
Valence
SciTegic.value.DoubleValue
6.736

@<SCITEGIC>MOL_PROPERTY
Coulomb
SciTegic.value.DoubleValue
-7.246

@<SCITEGIC>MOL_PROPERTY
VdW
SciTegic.value.DoubleValue
1.352

@<SCITEGIC>MOL_PROPERTY
VdW6
SciTegic.value.DoubleValue
-2.500

@<SCITEGIC>MOL_PROPERTY
VdW12
SciTegic.value.DoubleValue
3.851

@<SCITEGIC>MOL_PROPERTY
Bond
SciTegic.value.DoubleValue
0.063

@<SCITEGIC>MOL_PROPERTY
Angle
SciTegic.value.DoubleValue
0.687

@<SCITEGIC>MOL_PROPERTY
Pdih
SciTegic.value.DoubleValue
5.986

@<SCITEGIC>MOL_PROPERTY
Idih
SciTegic.value.DoubleValue
0.000

@<SCITEGIC>MOL_PROPERTY
Tether
SciTegic.value.DoubleValue
0.000

@<TRIPOS>MOLECULE
guest-s16_confgen4.mol2 : confsearch ligand conformer 139
          13          13           1
SMALL
USER_CHARGES
 
@<TRIPOS>ATOM
       1    C1      19.529842   20.184555   22.494492 C.3        1 MOL1        -0.1693
       2    H1      18.837515   20.746023   21.853316 H          1 MOL1         0.0829
       3    H2      19.899524   20.853717   23.280609 H          1 MOL1         0.0829
       4    C2      20.616049   19.364305   21.723324 C.3        1 MOL1        -0.1768
       5    H3      20.963907   19.794452   20.777671 H          1 MOL1         0.0829
       6    H4      21.489518   19.083226   22.324519 H          1 MOL1         0.0829
       7    C3      19.521597   18.261196   21.602980 C.3        1 MOL1         0.1211
       8    H5      18.823838   18.416990   20.768981 H          1 MOL1         0.0786
       9    C4      18.997209   18.792931   22.970981 C.3        1 MOL1        -0.1768
      10    H6      19.508847   18.384145   23.851043 H          1 MOL1         0.0829
      11    H7      17.915385   18.718467   23.127199 H          1 MOL1         0.0829
      12    O1      19.995860   16.935744   21.611340 O.3        1 MOL1        -0.5515
      13    H8      20.609513   16.857087   22.371578 H          1 MOL1         0.3773
@<TRIPOS>BOND
    1     1     2    1
    2     1     3    1
    3     1     4    1
    4     4     5    1
    5     4     6    1
    6     4     7    1
    7     7     8    1
    8     1     9    1
    9     7     9    1
   10     9    10    1
   11     9    11    1
   12     7    12    1
   13    12    13    1
@<TRIPOS>SUBSTRUCTURE
       1 MOL1            1 RESIDUE      1      MOL     
@<SCITEGIC>MOL_PROPERTY
VConf Rank
SciTegic.value.IntegerValue
139

@<SCITEGIC>MOL_PROPERTY
Conf_Id
SciTegic.value.IntegerValue
24

@<SCITEGIC>MOL_PROPERTY
Delta U+W
SciTegic.value.DoubleValue
0.356

@<SCITEGIC>MOL_PROPERTY
U+W
SciTegic.value.DoubleValue
-2.775

@<SCITEGIC>MOL_PROPERTY
Grad RMS
SciTegic.value.DoubleValue
0.000000

@<SCITEGIC>MOL_PROPERTY
U
SciTegic.value.DoubleValue
-0.184

@<SCITEGIC>MOL_PROPERTY
W
SciTegic.value.DoubleValue
-2.591

@<SCITEGIC>MOL_PROPERTY
W(PB)
SciTegic.value.DoubleValue
-4.184

@<SCITEGIC>MOL_PROPERTY
W(SA)
SciTegic.value.DoubleValue
1.593

@<SCITEGIC>MOL_PROPERTY
Valence
SciTegic.value.DoubleValue
6.840

@<SCITEGIC>MOL_PROPERTY
Coulomb
SciTegic.value.DoubleValue
-7.916

@<SCITEGIC>MOL_PROPERTY
VdW
SciTegic.value.DoubleValue
0.893

@<SCITEGIC>MOL_PROPERTY
VdW6
SciTegic.value.DoubleValue
-2.167

@<SCITEGIC>MOL_PROPERTY
VdW12
SciTegic.value.DoubleValue
3.060

@<SCITEGIC>MOL_PROPERTY
Bond
SciTegic.value.DoubleValue
0.059

@<SCITEGIC>MOL_PROPERTY
Angle
SciTegic.value.DoubleValue
0.918

@<SCITEGIC>MOL_PROPERTY
Pdih
SciTegic.value.DoubleValue
5.862

@<SCITEGIC>MOL_PROPERTY
Idih
SciTegic.value.DoubleValue
0.000

@<SCITEGIC>MOL_PROPERTY
Tether
SciTegic.value.DoubleValue
0.000

@<TRIPOS>MOLECULE
guest-s16_confgen4.mol2 : confsearch ligand conformer 140
          13          13           1
SMALL
USER_CHARGES
 
@<TRIPOS>ATOM
       1    C1      20.410888   19.305791   21.410093 C.3        1 MOL1        -0.1693
       2    H1      20.952235   19.022845   20.499457 H          1 MOL1         0.0829
       3    H2      20.665113   20.344704   21.655707 H          1 MOL1         0.0829
       4    C2      20.513713   18.302170   22.606884 C.3        1 MOL1        -0.1768
       5    H3      20.632339   17.253030   22.309817 H          1 MOL1         0.0829
       6    H4      21.265123   18.535089   23.369668 H          1 MOL1         0.0829
       7    C3      19.045968   18.704177   22.950555 C.3        1 MOL1         0.1211
       8    H5      18.424238   17.888388   23.340975 H          1 MOL1         0.0786
       9    C4      18.879599   18.981619   21.424337 C.3        1 MOL1        -0.1768
      10    H6      18.597567   18.099072   20.837326 H          1 MOL1         0.0829
      11    H7      18.208655   19.805941   21.157813 H          1 MOL1         0.0829
      12    O1      18.922101   19.842384   23.775703 O.3        1 MOL1        -0.5515
      13    H8      19.494318   20.532763   23.381675 H          1 MOL1         0.3773
@<TRIPOS>BOND
    1     1     2    1
    2     1     3    1
    3     1     4    1
    4     4     5    1
    5     4     6    1
    6     4     7    1
    7     7     8    1
    8     1     9    1
    9     7     9    1
   10     9    10    1
   11     9    11    1
   12     7    12    1
   13    12    13    1
@<TRIPOS>SUBSTRUCTURE
       1 MOL1            1 RESIDUE      1      MOL     
@<SCITEGIC>MOL_PROPERTY
VConf Rank
SciTegic.value.IntegerValue
140

@<SCITEGIC>MOL_PROPERTY
Conf_Id
SciTegic.value.IntegerValue
44

@<SCITEGIC>MOL_PROPERTY
Delta U+W
SciTegic.value.DoubleValue
0.823

@<SCITEGIC>MOL_PROPERTY
U+W
SciTegic.value.DoubleValue
-2.308

@<SCITEGIC>MOL_PROPERTY
Grad RMS
SciTegic.value.DoubleValue
0.000000

@<SCITEGIC>MOL_PROPERTY
U
SciTegic.value.DoubleValue
0.039

@<SCITEGIC>MOL_PROPERTY
W
SciTegic.value.DoubleValue
-2.348

@<SCITEGIC>MOL_PROPERTY
W(PB)
SciTegic.value.DoubleValue
-3.918

@<SCITEGIC>MOL_PROPERTY
W(SA)
SciTegic.value.DoubleValue
1.571

@<SCITEGIC>MOL_PROPERTY
Valence
SciTegic.value.DoubleValue
7.320

@<SCITEGIC>MOL_PROPERTY
Coulomb
SciTegic.value.DoubleValue
-8.530

@<SCITEGIC>MOL_PROPERTY
VdW
SciTegic.value.DoubleValue
1.249

@<SCITEGIC>MOL_PROPERTY
VdW6
SciTegic.value.DoubleValue
-2.615

@<SCITEGIC>MOL_PROPERTY
VdW12
SciTegic.value.DoubleValue
3.864

@<SCITEGIC>MOL_PROPERTY
Bond
SciTegic.value.DoubleValue
0.056

@<SCITEGIC>MOL_PROPERTY
Angle
SciTegic.value.DoubleValue
0.694

@<SCITEGIC>MOL_PROPERTY
Pdih
SciTegic.value.DoubleValue
6.570

@<SCITEGIC>MOL_PROPERTY
Idih
SciTegic.value.DoubleValue
0.000

@<SCITEGIC>MOL_PROPERTY
Tether
SciTegic.value.DoubleValue
0.000

@<TRIPOS>MOLECULE
guest-s16_confgen4.mol2 : confsearch ligand conformer 141
          13          13           1
SMALL
USER_CHARGES
 
@<TRIPOS>ATOM
       1    C1      19.016970   20.042345   21.682861 C.3        1 MOL1        -0.1693
       2    H1      18.452922   19.746144   20.788601 H          1 MOL1         0.0829
       3    H2      18.828827   21.104460   21.879968 H          1 MOL1         0.0829
       4    C2      20.516910   19.597971   21.687468 C.3        1 MOL1        -0.1768
       5    H3      21.013095   19.559949   20.711602 H          1 MOL1         0.0829
       6    H4      21.157358   20.148343   22.387827 H          1 MOL1         0.0829
       7    C3      19.985882   18.237340   22.231102 C.3        1 MOL1         0.1211
       8    H5      19.625807   17.557325   21.446890 H          1 MOL1         0.0786
       9    C4      18.859942   19.078404   22.904945 C.3        1 MOL1        -0.1768
      10    H6      17.888412   18.582360   23.006154 H          1 MOL1         0.0829
      11    H7      19.135300   19.516610   23.872389 H          1 MOL1         0.0829
      12    O1      20.849167   17.565121   23.118462 O.3        1 MOL1        -0.5515
      13    H8      20.342135   16.821536   23.509875 H          1 MOL1         0.3773
@<TRIPOS>BOND
    1     1     2    1
    2     1     3    1
    3     1     4    1
    4     4     5    1
    5     4     6    1
    6     4     7    1
    7     7     8    1
    8     1     9    1
    9     7     9    1
   10     9    10    1
   11     9    11    1
   12     7    12    1
   13    12    13    1
@<TRIPOS>SUBSTRUCTURE
       1 MOL1            1 RESIDUE      1      MOL     
@<SCITEGIC>MOL_PROPERTY
VConf Rank
SciTegic.value.IntegerValue
141

@<SCITEGIC>MOL_PROPERTY
Conf_Id
SciTegic.value.IntegerValue
22

@<SCITEGIC>MOL_PROPERTY
Delta U+W
SciTegic.value.DoubleValue
0.000

@<SCITEGIC>MOL_PROPERTY
U+W
SciTegic.value.DoubleValue
-3.131

@<SCITEGIC>MOL_PROPERTY
Grad RMS
SciTegic.value.DoubleValue
0.000000

@<SCITEGIC>MOL_PROPERTY
U
SciTegic.value.DoubleValue
-0.154

@<SCITEGIC>MOL_PROPERTY
W
SciTegic.value.DoubleValue
-2.978

@<SCITEGIC>MOL_PROPERTY
W(PB)
SciTegic.value.DoubleValue
-4.579

@<SCITEGIC>MOL_PROPERTY
W(SA)
SciTegic.value.DoubleValue
1.601

@<SCITEGIC>MOL_PROPERTY
Valence
SciTegic.value.DoubleValue
6.333

@<SCITEGIC>MOL_PROPERTY
Coulomb
SciTegic.value.DoubleValue
-7.439

@<SCITEGIC>MOL_PROPERTY
VdW
SciTegic.value.DoubleValue
0.952

@<SCITEGIC>MOL_PROPERTY
VdW6
SciTegic.value.DoubleValue
-2.120

@<SCITEGIC>MOL_PROPERTY
VdW12
SciTegic.value.DoubleValue
3.072

@<SCITEGIC>MOL_PROPERTY
Bond
SciTegic.value.DoubleValue
0.065

@<SCITEGIC>MOL_PROPERTY
Angle
SciTegic.value.DoubleValue
0.931

@<SCITEGIC>MOL_PROPERTY
Pdih
SciTegic.value.DoubleValue
5.338

@<SCITEGIC>MOL_PROPERTY
Idih
SciTegic.value.DoubleValue
0.000

@<SCITEGIC>MOL_PROPERTY
Tether
SciTegic.value.DoubleValue
0.000

@<TRIPOS>MOLECULE
guest-s16_confgen4.mol2 : confsearch ligand conformer 142
          13          13           1
SMALL
USER_CHARGES
 
@<TRIPOS>ATOM
       1    C1      18.309920   18.934476   22.261185 C.3        1 MOL1        -0.1693
       2    H1      17.886599   19.423553   23.148422 H          1 MOL1         0.0829
       3    H2      17.487544   18.539395   21.652954 H          1 MOL1         0.0829
       4    C2      19.483251   17.943067   22.557382 C.3        1 MOL1        -0.1768
       5    H3      19.687560   17.222469   21.755641 H          1 MOL1         0.0829
       6    H4      19.431082   17.405088   23.510288 H          1 MOL1         0.0829
       7    C3      20.394525   19.207366   22.539367 C.3        1 MOL1         0.1211
       8    H5      20.410769   19.758868   23.489443 H          1 MOL1         0.0786
       9    C4      19.384353   19.778165   21.498894 C.3        1 MOL1        -0.1768
      10    H6      19.569132   19.461232   20.464972 H          1 MOL1         0.0829
      11    H7      19.246836   20.864805   21.515141 H          1 MOL1         0.0829
      12    O1      21.702408   19.000884   22.058373 O.3        1 MOL1        -0.5515
      13    H8      22.188122   18.495014   22.744945 H          1 MOL1         0.3773
@<TRIPOS>BOND
    1     1     2    1
    2     1     3    1
    3     1     4    1
    4     4     5    1
    5     4     6    1
    6     4     7    1
    7     7     8    1
    8     1     9    1
    9     7     9    1
   10     9    10    1
   11     9    11    1
   12     7    12    1
   13    12    13    1
@<TRIPOS>SUBSTRUCTURE
       1 MOL1            1 RESIDUE      1      MOL     
@<SCITEGIC>MOL_PROPERTY
VConf Rank
SciTegic.value.IntegerValue
142

@<SCITEGIC>MOL_PROPERTY
Conf_Id
SciTegic.value.IntegerValue
19

@<SCITEGIC>MOL_PROPERTY
Delta U+W
SciTegic.value.DoubleValue
-0.011

@<SCITEGIC>MOL_PROPERTY
U+W
SciTegic.value.DoubleValue
-3.142

@<SCITEGIC>MOL_PROPERTY
Grad RMS
SciTegic.value.DoubleValue
0.000000

@<SCITEGIC>MOL_PROPERTY
U
SciTegic.value.DoubleValue
-0.154

@<SCITEGIC>MOL_PROPERTY
W
SciTegic.value.DoubleValue
-2.989

@<SCITEGIC>MOL_PROPERTY
W(PB)
SciTegic.value.DoubleValue
-4.588

@<SCITEGIC>MOL_PROPERTY
W(SA)
SciTegic.value.DoubleValue
1.599

@<SCITEGIC>MOL_PROPERTY
Valence
SciTegic.value.DoubleValue
6.334

@<SCITEGIC>MOL_PROPERTY
Coulomb
SciTegic.value.DoubleValue
-7.439

@<SCITEGIC>MOL_PROPERTY
VdW
SciTegic.value.DoubleValue
0.951

@<SCITEGIC>MOL_PROPERTY
VdW6
SciTegic.value.DoubleValue
-2.120

@<SCITEGIC>MOL_PROPERTY
VdW12
SciTegic.value.DoubleValue
3.072

@<SCITEGIC>MOL_PROPERTY
Bond
SciTegic.value.DoubleValue
0.065

@<SCITEGIC>MOL_PROPERTY
Angle
SciTegic.value.DoubleValue
0.930

@<SCITEGIC>MOL_PROPERTY
Pdih
SciTegic.value.DoubleValue
5.339

@<SCITEGIC>MOL_PROPERTY
Idih
SciTegic.value.DoubleValue
0.000

@<SCITEGIC>MOL_PROPERTY
Tether
SciTegic.value.DoubleValue
0.000

@<TRIPOS>MOLECULE
guest-s16_confgen4.mol2 : confsearch ligand conformer 143
          13          13           1
SMALL
USER_CHARGES
 
@<TRIPOS>ATOM
       1    C1      18.493040   19.110624   22.745206 C.3        1 MOL1        -0.1693
       2    H1      17.758236   18.612972   23.388932 H          1 MOL1         0.0829
       3    H2      18.079935   20.074709   22.421028 H          1 MOL1         0.0829
       4    C2      19.098109   18.242594   21.592216 C.3        1 MOL1        -0.1768
       5    H3      19.174895   17.172652   21.820454 H          1 MOL1         0.0829
       6    H4      18.632056   18.358309   20.607433 H          1 MOL1         0.0829
       7    C3      20.420936   19.040269   21.814192 C.3        1 MOL1         0.1211
       8    H5      21.337732   18.453179   21.674115 H          1 MOL1         0.0786
       9    C4      19.955526   19.182246   23.297207 C.3        1 MOL1        -0.1768
      10    H6      20.233899   20.114811   23.800381 H          1 MOL1         0.0829
      11    H7      20.239982   18.339909   23.939489 H          1 MOL1         0.0829
      12    O1      20.510256   20.255283   21.097319 O.3        1 MOL1        -0.5515
      13    H8      21.287083   20.742138   21.446127 H          1 MOL1         0.3773
@<TRIPOS>BOND
    1     1     2    1
    2     1     3    1
    3     1     4    1
    4     4     5    1
    5     4     6    1
    6     4     7    1
    7     7     8    1
    8     1     9    1
    9     7     9    1
   10     9    10    1
   11     9    11    1
   12     7    12    1
   13    12    13    1
@<TRIPOS>SUBSTRUCTURE
       1 MOL1            1 RESIDUE      1      MOL     
@<SCITEGIC>MOL_PROPERTY
VConf Rank
SciTegic.value.IntegerValue
143

@<SCITEGIC>MOL_PROPERTY
Conf_Id
SciTegic.value.IntegerValue
20

@<SCITEGIC>MOL_PROPERTY
Delta U+W
SciTegic.value.DoubleValue
1.030

@<SCITEGIC>MOL_PROPERTY
U+W
SciTegic.value.DoubleValue
-2.101

@<SCITEGIC>MOL_PROPERTY
Grad RMS
SciTegic.value.DoubleValue
0.000000

@<SCITEGIC>MOL_PROPERTY
U
SciTegic.value.DoubleValue
0.841

@<SCITEGIC>MOL_PROPERTY
W
SciTegic.value.DoubleValue
-2.942

@<SCITEGIC>MOL_PROPERTY
W(PB)
SciTegic.value.DoubleValue
-4.530

@<SCITEGIC>MOL_PROPERTY
W(SA)
SciTegic.value.DoubleValue
1.587

@<SCITEGIC>MOL_PROPERTY
Valence
SciTegic.value.DoubleValue
6.736

@<SCITEGIC>MOL_PROPERTY
Coulomb
SciTegic.value.DoubleValue
-7.246

@<SCITEGIC>MOL_PROPERTY
VdW
SciTegic.value.DoubleValue
1.352

@<SCITEGIC>MOL_PROPERTY
VdW6
SciTegic.value.DoubleValue
-2.500

@<SCITEGIC>MOL_PROPERTY
VdW12
SciTegic.value.DoubleValue
3.851

@<SCITEGIC>MOL_PROPERTY
Bond
SciTegic.value.DoubleValue
0.063

@<SCITEGIC>MOL_PROPERTY
Angle
SciTegic.value.DoubleValue
0.687

@<SCITEGIC>MOL_PROPERTY
Pdih
SciTegic.value.DoubleValue
5.986

@<SCITEGIC>MOL_PROPERTY
Idih
SciTegic.value.DoubleValue
0.000

@<SCITEGIC>MOL_PROPERTY
Tether
SciTegic.value.DoubleValue
0.000

@<TRIPOS>MOLECULE
guest-s16_confgen4.mol2 : confsearch ligand conformer 144
          13          13           1
SMALL
USER_CHARGES
 
@<TRIPOS>ATOM
       1    C1      19.140370   19.516910   21.233711 C.3        1 MOL1        -0.1693
       2    H1      18.134398   19.918590   21.413546 H          1 MOL1         0.0829
       3    H2      19.410177   19.704347   20.187531 H          1 MOL1         0.0829
       4    C2      19.363635   18.057148   21.750048 C.3        1 MOL1        -0.1768
       5    H3      18.490646   17.395923   21.718967 H          1 MOL1         0.0829
       6    H4      20.215786   17.536568   21.295932 H          1 MOL1         0.0829
       7    C3      19.660923   18.721124   23.128421 C.3        1 MOL1         0.1211
       8    H5      18.760209   18.955862   23.711778 H          1 MOL1         0.0786
       9    C4      20.207885   19.924240   22.302286 C.3        1 MOL1        -0.1768
      10    H6      21.248737   19.820978   21.971601 H          1 MOL1         0.0829
      11    H7      20.080501   20.911941   22.758915 H          1 MOL1         0.0829
      12    O1      20.609631   18.055711   23.927793 O.3        1 MOL1        -0.5515
      13    H8      21.385704   17.873495   23.357507 H          1 MOL1         0.3773
@<TRIPOS>BOND
    1     1     2    1
    2     1     3    1
    3     1     4    1
    4     4     5    1
    5     4     6    1
    6     4     7    1
    7     7     8    1
    8     1     9    1
    9     7     9    1
   10     9    10    1
   11     9    11    1
   12     7    12    1
   13    12    13    1
@<TRIPOS>SUBSTRUCTURE
       1 MOL1            1 RESIDUE      1      MOL     
@<SCITEGIC>MOL_PROPERTY
VConf Rank
SciTegic.value.IntegerValue
144

@<SCITEGIC>MOL_PROPERTY
Conf_Id
SciTegic.value.IntegerValue
24

@<SCITEGIC>MOL_PROPERTY
Delta U+W
SciTegic.value.DoubleValue
0.356

@<SCITEGIC>MOL_PROPERTY
U+W
SciTegic.value.DoubleValue
-2.775

@<SCITEGIC>MOL_PROPERTY
Grad RMS
SciTegic.value.DoubleValue
0.000000

@<SCITEGIC>MOL_PROPERTY
U
SciTegic.value.DoubleValue
-0.184

@<SCITEGIC>MOL_PROPERTY
W
SciTegic.value.DoubleValue
-2.591

@<SCITEGIC>MOL_PROPERTY
W(PB)
SciTegic.value.DoubleValue
-4.184

@<SCITEGIC>MOL_PROPERTY
W(SA)
SciTegic.value.DoubleValue
1.593

@<SCITEGIC>MOL_PROPERTY
Valence
SciTegic.value.DoubleValue
6.840

@<SCITEGIC>MOL_PROPERTY
Coulomb
SciTegic.value.DoubleValue
-7.916

@<SCITEGIC>MOL_PROPERTY
VdW
SciTegic.value.DoubleValue
0.893

@<SCITEGIC>MOL_PROPERTY
VdW6
SciTegic.value.DoubleValue
-2.167

@<SCITEGIC>MOL_PROPERTY
VdW12
SciTegic.value.DoubleValue
3.060

@<SCITEGIC>MOL_PROPERTY
Bond
SciTegic.value.DoubleValue
0.059

@<SCITEGIC>MOL_PROPERTY
Angle
SciTegic.value.DoubleValue
0.918

@<SCITEGIC>MOL_PROPERTY
Pdih
SciTegic.value.DoubleValue
5.862

@<SCITEGIC>MOL_PROPERTY
Idih
SciTegic.value.DoubleValue
0.000

@<SCITEGIC>MOL_PROPERTY
Tether
SciTegic.value.DoubleValue
0.000

@<TRIPOS>MOLECULE
guest-s16_confgen4.mol2 : confsearch ligand conformer 145
          13          13           1
SMALL
USER_CHARGES
 
@<TRIPOS>ATOM
       1    C1      20.810308   18.909926   22.329428 C.3        1 MOL1        -0.1693
       2    H1      21.704514   18.288097   22.202558 H          1 MOL1         0.0829
       3    H2      21.117447   19.877783   22.745617 H          1 MOL1         0.0829
       4    C2      19.603594   18.231952   23.060407 C.3        1 MOL1        -0.1768
       5    H3      19.534636   17.147477   22.911499 H          1 MOL1         0.0829
       6    H4      19.506795   18.443152   24.131263 H          1 MOL1         0.0829
       7    C3      18.682292   19.063894   22.115384 C.3        1 MOL1         0.1211
       8    H5      17.765117   18.551552   21.797921 H          1 MOL1         0.0786
       9    C4      19.857142   18.998380   21.090966 C.3        1 MOL1        -0.1768
      10    H6      19.850352   18.101822   20.459181 H          1 MOL1         0.0829
      11    H7      19.981036   19.876690   20.447592 H          1 MOL1         0.0829
      12    O1      18.374347   20.360342   22.580269 O.3        1 MOL1        -0.5515
      13    H8      19.224278   20.766905   22.847924 H          1 MOL1         0.3773
@<TRIPOS>BOND
    1     1     2    1
    2     1     3    1
    3     1     4    1
    4     4     5    1
    5     4     6    1
    6     4     7    1
    7     7     8    1
    8     1     9    1
    9     7     9    1
   10     9    10    1
   11     9    11    1
   12     7    12    1
   13    12    13    1
@<TRIPOS>SUBSTRUCTURE
       1 MOL1            1 RESIDUE      1      MOL     
@<SCITEGIC>MOL_PROPERTY
VConf Rank
SciTegic.value.IntegerValue
145

@<SCITEGIC>MOL_PROPERTY
Conf_Id
SciTegic.value.IntegerValue
44

@<SCITEGIC>MOL_PROPERTY
Delta U+W
SciTegic.value.DoubleValue
0.823

@<SCITEGIC>MOL_PROPERTY
U+W
SciTegic.value.DoubleValue
-2.308

@<SCITEGIC>MOL_PROPERTY
Grad RMS
SciTegic.value.DoubleValue
0.000000

@<SCITEGIC>MOL_PROPERTY
U
SciTegic.value.DoubleValue
0.039

@<SCITEGIC>MOL_PROPERTY
W
SciTegic.value.DoubleValue
-2.348

@<SCITEGIC>MOL_PROPERTY
W(PB)
SciTegic.value.DoubleValue
-3.918

@<SCITEGIC>MOL_PROPERTY
W(SA)
SciTegic.value.DoubleValue
1.571

@<SCITEGIC>MOL_PROPERTY
Valence
SciTegic.value.DoubleValue
7.320

@<SCITEGIC>MOL_PROPERTY
Coulomb
SciTegic.value.DoubleValue
-8.530

@<SCITEGIC>MOL_PROPERTY
VdW
SciTegic.value.DoubleValue
1.249

@<SCITEGIC>MOL_PROPERTY
VdW6
SciTegic.value.DoubleValue
-2.615

@<SCITEGIC>MOL_PROPERTY
VdW12
SciTegic.value.DoubleValue
3.864

@<SCITEGIC>MOL_PROPERTY
Bond
SciTegic.value.DoubleValue
0.056

@<SCITEGIC>MOL_PROPERTY
Angle
SciTegic.value.DoubleValue
0.694

@<SCITEGIC>MOL_PROPERTY
Pdih
SciTegic.value.DoubleValue
6.570

@<SCITEGIC>MOL_PROPERTY
Idih
SciTegic.value.DoubleValue
0.000

@<SCITEGIC>MOL_PROPERTY
Tether
SciTegic.value.DoubleValue
0.000

@<TRIPOS>MOLECULE
guest-s16_confgen4.mol2 : confsearch ligand conformer 146
          13          13           1
SMALL
USER_CHARGES
 
@<TRIPOS>ATOM
       1    C1      18.802439   18.052341   22.359572 C.3        1 MOL1        -0.1693
       2    H1      19.125993   17.266093   23.054348 H          1 MOL1         0.0829
       3    H2      17.801690   17.801618   21.988120 H          1 MOL1         0.0829
       4    C2      19.859906   18.442891   21.274887 C.3        1 MOL1        -0.1768
       5    H3      20.516421   17.637757   20.927457 H          1 MOL1         0.0829
       6    H4      19.451139   18.966511   20.401779 H          1 MOL1         0.0829
       7    C3      20.456548   19.379461   22.368369 C.3        1 MOL1         0.1211
       8    H5      21.133475   18.869148   23.067233 H          1 MOL1         0.0786
       9    C4      18.993254   19.512259   22.888302 C.3        1 MOL1        -0.1768
      10    H6      18.880917   19.652287   23.969017 H          1 MOL1         0.0829
      11    H7      18.392188   20.269551   22.369629 H          1 MOL1         0.0829
      12    O1      21.036657   20.570715   21.889900 O.3        1 MOL1        -0.5515
      13    H8      21.222101   21.137274   22.669531 H          1 MOL1         0.3773
@<TRIPOS>BOND
    1     1     2    1
    2     1     3    1
    3     1     4    1
    4     4     5    1
    5     4     6    1
    6     4     7    1
    7     7     8    1
    8     1     9    1
    9     7     9    1
   10     9    10    1
   11     9    11    1
   12     7    12    1
   13    12    13    1
@<TRIPOS>SUBSTRUCTURE
       1 MOL1            1 RESIDUE      1      MOL     
@<SCITEGIC>MOL_PROPERTY
VConf Rank
SciTegic.value.IntegerValue
146

@<SCITEGIC>MOL_PROPERTY
Conf_Id
SciTegic.value.IntegerValue
22

@<SCITEGIC>MOL_PROPERTY
Delta U+W
SciTegic.value.DoubleValue
0.000

@<SCITEGIC>MOL_PROPERTY
U+W
SciTegic.value.DoubleValue
-3.131

@<SCITEGIC>MOL_PROPERTY
Grad RMS
SciTegic.value.DoubleValue
0.000000

@<SCITEGIC>MOL_PROPERTY
U
SciTegic.value.DoubleValue
-0.154

@<SCITEGIC>MOL_PROPERTY
W
SciTegic.value.DoubleValue
-2.978

@<SCITEGIC>MOL_PROPERTY
W(PB)
SciTegic.value.DoubleValue
-4.579

@<SCITEGIC>MOL_PROPERTY
W(SA)
SciTegic.value.DoubleValue
1.601

@<SCITEGIC>MOL_PROPERTY
Valence
SciTegic.value.DoubleValue
6.333

@<SCITEGIC>MOL_PROPERTY
Coulomb
SciTegic.value.DoubleValue
-7.439

@<SCITEGIC>MOL_PROPERTY
VdW
SciTegic.value.DoubleValue
0.952

@<SCITEGIC>MOL_PROPERTY
VdW6
SciTegic.value.DoubleValue
-2.120

@<SCITEGIC>MOL_PROPERTY
VdW12
SciTegic.value.DoubleValue
3.072

@<SCITEGIC>MOL_PROPERTY
Bond
SciTegic.value.DoubleValue
0.065

@<SCITEGIC>MOL_PROPERTY
Angle
SciTegic.value.DoubleValue
0.931

@<SCITEGIC>MOL_PROPERTY
Pdih
SciTegic.value.DoubleValue
5.338

@<SCITEGIC>MOL_PROPERTY
Idih
SciTegic.value.DoubleValue
0.000

@<SCITEGIC>MOL_PROPERTY
Tether
SciTegic.value.DoubleValue
0.000

@<TRIPOS>MOLECULE
guest-s16_confgen4.mol2 : confsearch ligand conformer 147
          13          13           1
SMALL
USER_CHARGES
 
@<TRIPOS>ATOM
       1    C1      19.584976   19.487965   21.052933 C.3        1 MOL1        -0.1693
       2    H1      20.565200   19.548799   20.561969 H          1 MOL1         0.0829
       3    H2      18.840469   19.972685   20.410210 H          1 MOL1         0.0829
       4    C2      19.578383   19.917976   22.557053 C.3        1 MOL1        -0.1768
       5    H3      18.588871   20.173887   22.956015 H          1 MOL1         0.0829
       6    H4      20.285949   20.706350   22.836319 H          1 MOL1         0.0829
       7    C3      20.036987   18.457588   22.850554 C.3        1 MOL1         0.1211
       8    H5      21.118117   18.298417   22.737052 H          1 MOL1         0.0786
       9    C4      19.208780   18.067385   21.589341 C.3        1 MOL1        -0.1768
      10    H6      18.138686   17.915485   21.777514 H          1 MOL1         0.0829
      11    H7      19.589638   17.216617   21.013926 H          1 MOL1         0.0829
      12    O1      19.576121   17.913776   24.065635 O.3        1 MOL1        -0.5515
      13    H8      20.069921   18.357451   24.788488 H          1 MOL1         0.3773
@<TRIPOS>BOND
    1     1     2    1
    2     1     3    1
    3     1     4    1
    4     4     5    1
    5     4     6    1
    6     4     7    1
    7     7     8    1
    8     1     9    1
    9     7     9    1
   10     9    10    1
   11     9    11    1
   12     7    12    1
   13    12    13    1
@<TRIPOS>SUBSTRUCTURE
       1 MOL1            1 RESIDUE      1      MOL     
@<SCITEGIC>MOL_PROPERTY
VConf Rank
SciTegic.value.IntegerValue
147

@<SCITEGIC>MOL_PROPERTY
Conf_Id
SciTegic.value.IntegerValue
19

@<SCITEGIC>MOL_PROPERTY
Delta U+W
SciTegic.value.DoubleValue
-0.011

@<SCITEGIC>MOL_PROPERTY
U+W
SciTegic.value.DoubleValue
-3.142

@<SCITEGIC>MOL_PROPERTY
Grad RMS
SciTegic.value.DoubleValue
0.000000

@<SCITEGIC>MOL_PROPERTY
U
SciTegic.value.DoubleValue
-0.154

@<SCITEGIC>MOL_PROPERTY
W
SciTegic.value.DoubleValue
-2.989

@<SCITEGIC>MOL_PROPERTY
W(PB)
SciTegic.value.DoubleValue
-4.588

@<SCITEGIC>MOL_PROPERTY
W(SA)
SciTegic.value.DoubleValue
1.599

@<SCITEGIC>MOL_PROPERTY
Valence
SciTegic.value.DoubleValue
6.334

@<SCITEGIC>MOL_PROPERTY
Coulomb
SciTegic.value.DoubleValue
-7.439

@<SCITEGIC>MOL_PROPERTY
VdW
SciTegic.value.DoubleValue
0.951

@<SCITEGIC>MOL_PROPERTY
VdW6
SciTegic.value.DoubleValue
-2.120

@<SCITEGIC>MOL_PROPERTY
VdW12
SciTegic.value.DoubleValue
3.072

@<SCITEGIC>MOL_PROPERTY
Bond
SciTegic.value.DoubleValue
0.065

@<SCITEGIC>MOL_PROPERTY
Angle
SciTegic.value.DoubleValue
0.930

@<SCITEGIC>MOL_PROPERTY
Pdih
SciTegic.value.DoubleValue
5.339

@<SCITEGIC>MOL_PROPERTY
Idih
SciTegic.value.DoubleValue
0.000

@<SCITEGIC>MOL_PROPERTY
Tether
SciTegic.value.DoubleValue
0.000

@<TRIPOS>MOLECULE
guest-s16_confgen4.mol2 : confsearch ligand conformer 148
          13          13           1
SMALL
USER_CHARGES
 
@<TRIPOS>ATOM
       1    C1      19.048038   20.032425   21.812991 C.3        1 MOL1        -0.1693
       2    H1      18.410723   20.395079   20.997953 H          1 MOL1         0.0829
       3    H2      19.183325   20.843501   22.540356 H          1 MOL1         0.0829
       4    C2      20.371999   19.316146   21.385154 C.3        1 MOL1        -0.1768
       5    H3      20.311483   18.780763   20.429922 H          1 MOL1         0.0829
       6    H4      21.275386   19.936050   21.382855 H          1 MOL1         0.0829
       7    C3      20.175169   18.409384   22.639932 C.3        1 MOL1         0.1211
       8    H5      20.494143   17.367722   22.505730 H          1 MOL1         0.0786
       9    C4      18.646961   18.656181   22.440519 C.3        1 MOL1        -0.1768
      10    H6      18.044959   18.702316   23.354749 H          1 MOL1         0.0829
      11    H7      18.167560   17.960790   21.740818 H          1 MOL1         0.0829
      12    O1      20.712565   18.929164   23.839590 O.3        1 MOL1        -0.5515
      13    H8      20.379376   18.370173   24.573531 H          1 MOL1         0.3773
@<TRIPOS>BOND
    1     1     2    1
    2     1     3    1
    3     1     4    1
    4     4     5    1
    5     4     6    1
    6     4     7    1
    7     7     8    1
    8     1     9    1
    9     7     9    1
   10     9    10    1
   11     9    11    1
   12     7    12    1
   13    12    13    1
@<TRIPOS>SUBSTRUCTURE
       1 MOL1            1 RESIDUE      1      MOL     
@<SCITEGIC>MOL_PROPERTY
VConf Rank
SciTegic.value.IntegerValue
148

@<SCITEGIC>MOL_PROPERTY
Conf_Id
SciTegic.value.IntegerValue
20

@<SCITEGIC>MOL_PROPERTY
Delta U+W
SciTegic.value.DoubleValue
1.030

@<SCITEGIC>MOL_PROPERTY
U+W
SciTegic.value.DoubleValue
-2.101

@<SCITEGIC>MOL_PROPERTY
Grad RMS
SciTegic.value.DoubleValue
0.000000

@<SCITEGIC>MOL_PROPERTY
U
SciTegic.value.DoubleValue
0.841

@<SCITEGIC>MOL_PROPERTY
W
SciTegic.value.DoubleValue
-2.942

@<SCITEGIC>MOL_PROPERTY
W(PB)
SciTegic.value.DoubleValue
-4.530

@<SCITEGIC>MOL_PROPERTY
W(SA)
SciTegic.value.DoubleValue
1.587

@<SCITEGIC>MOL_PROPERTY
Valence
SciTegic.value.DoubleValue
6.736

@<SCITEGIC>MOL_PROPERTY
Coulomb
SciTegic.value.DoubleValue
-7.246

@<SCITEGIC>MOL_PROPERTY
VdW
SciTegic.value.DoubleValue
1.352

@<SCITEGIC>MOL_PROPERTY
VdW6
SciTegic.value.DoubleValue
-2.500

@<SCITEGIC>MOL_PROPERTY
VdW12
SciTegic.value.DoubleValue
3.851

@<SCITEGIC>MOL_PROPERTY
Bond
SciTegic.value.DoubleValue
0.063

@<SCITEGIC>MOL_PROPERTY
Angle
SciTegic.value.DoubleValue
0.687

@<SCITEGIC>MOL_PROPERTY
Pdih
SciTegic.value.DoubleValue
5.986

@<SCITEGIC>MOL_PROPERTY
Idih
SciTegic.value.DoubleValue
0.000

@<SCITEGIC>MOL_PROPERTY
Tether
SciTegic.value.DoubleValue
0.000

@<TRIPOS>MOLECULE
guest-s16_confgen4.mol2 : confsearch ligand conformer 149
          13          13           1
SMALL
USER_CHARGES
 
@<TRIPOS>ATOM
       1    C1      19.450907   17.776866   22.625975 C.3        1 MOL1        -0.1693
       2    H1      18.467980   17.626481   23.091708 H          1 MOL1         0.0829
       3    H2      19.986909   16.820249   22.623231 H          1 MOL1         0.0829
       4    C2      20.248415   19.009901   23.165386 C.3        1 MOL1        -0.1768
       5    H3      20.092244   19.261157   24.220266 H          1 MOL1         0.0829
       6    H4      21.326842   18.979748   22.966701 H          1 MOL1         0.0829
       7    C3      19.417000   19.840464   22.141633 C.3        1 MOL1         0.1211
       8    H5      18.421646   20.127731   22.506930 H          1 MOL1         0.0786
       9    C4      19.419050   18.550639   21.266704 C.3        1 MOL1        -0.1768
      10    H6      20.312103   18.417835   20.643640 H          1 MOL1         0.0829
      11    H7      18.530425   18.396300   20.644758 H          1 MOL1         0.0829
      12    O1      20.079507   20.950290   21.583792 O.3        1 MOL1        -0.5515
      13    H8      20.955573   20.635175   21.277311 H          1 MOL1         0.3773
@<TRIPOS>BOND
    1     1     2    1
    2     1     3    1
    3     1     4    1
    4     4     5    1
    5     4     6    1
    6     4     7    1
    7     7     8    1
    8     1     9    1
    9     7     9    1
   10     9    10    1
   11     9    11    1
   12     7    12    1
   13    12    13    1
@<TRIPOS>SUBSTRUCTURE
       1 MOL1            1 RESIDUE      1      MOL     
@<SCITEGIC>MOL_PROPERTY
VConf Rank
SciTegic.value.IntegerValue
149

@<SCITEGIC>MOL_PROPERTY
Conf_Id
SciTegic.value.IntegerValue
24

@<SCITEGIC>MOL_PROPERTY
Delta U+W
SciTegic.value.DoubleValue
0.356

@<SCITEGIC>MOL_PROPERTY
U+W
SciTegic.value.DoubleValue
-2.775

@<SCITEGIC>MOL_PROPERTY
Grad RMS
SciTegic.value.DoubleValue
0.000000

@<SCITEGIC>MOL_PROPERTY
U
SciTegic.value.DoubleValue
-0.184

@<SCITEGIC>MOL_PROPERTY
W
SciTegic.value.DoubleValue
-2.591

@<SCITEGIC>MOL_PROPERTY
W(PB)
SciTegic.value.DoubleValue
-4.184

@<SCITEGIC>MOL_PROPERTY
W(SA)
SciTegic.value.DoubleValue
1.593

@<SCITEGIC>MOL_PROPERTY
Valence
SciTegic.value.DoubleValue
6.840

@<SCITEGIC>MOL_PROPERTY
Coulomb
SciTegic.value.DoubleValue
-7.916

@<SCITEGIC>MOL_PROPERTY
VdW
SciTegic.value.DoubleValue
0.893

@<SCITEGIC>MOL_PROPERTY
VdW6
SciTegic.value.DoubleValue
-2.167

@<SCITEGIC>MOL_PROPERTY
VdW12
SciTegic.value.DoubleValue
3.060

@<SCITEGIC>MOL_PROPERTY
Bond
SciTegic.value.DoubleValue
0.059

@<SCITEGIC>MOL_PROPERTY
Angle
SciTegic.value.DoubleValue
0.918

@<SCITEGIC>MOL_PROPERTY
Pdih
SciTegic.value.DoubleValue
5.862

@<SCITEGIC>MOL_PROPERTY
Idih
SciTegic.value.DoubleValue
0.000

@<SCITEGIC>MOL_PROPERTY
Tether
SciTegic.value.DoubleValue
0.000

@<TRIPOS>MOLECULE
guest-s16_confgen4.mol2 : confsearch ligand conformer 150
          13          13           1
SMALL
USER_CHARGES
 
@<TRIPOS>ATOM
       1    C1      18.860344   19.241975   21.503047 C.3        1 MOL1        -0.1693
       2    H1      18.095110   19.983424   21.244121 H          1 MOL1         0.0829
       3    H2      18.800577   18.416233   20.782717 H          1 MOL1         0.0829
       4    C2      18.907663   18.803478   23.004919 C.3        1 MOL1        -0.1768
       5    H3      18.594372   19.579539   23.713857 H          1 MOL1         0.0829
       6    H4      18.384547   17.873266   23.253443 H          1 MOL1         0.0829
       7    C3      20.453540   18.689962   22.827804 C.3        1 MOL1         0.1211
       8    H5      21.040739   18.981261   23.708047 H          1 MOL1         0.0786
       9    C4      20.301888   19.802213   21.744340 C.3        1 MOL1        -0.1768
      10    H6      20.330439   20.823149   22.144201 H          1 MOL1         0.0829
      11    H7      20.992324   19.741316   20.895637 H          1 MOL1         0.0829
      12    O1      20.903098   17.444865   22.338561 O.3        1 MOL1        -0.5515
      13    H8      20.347216   17.237294   21.559316 H          1 MOL1         0.3773
@<TRIPOS>BOND
    1     1     2    1
    2     1     3    1
    3     1     4    1
    4     4     5    1
    5     4     6    1
    6     4     7    1
    7     7     8    1
    8     1     9    1
    9     7     9    1
   10     9    10    1
   11     9    11    1
   12     7    12    1
   13    12    13    1
@<TRIPOS>SUBSTRUCTURE
       1 MOL1            1 RESIDUE      1      MOL     
@<SCITEGIC>MOL_PROPERTY
VConf Rank
SciTegic.value.IntegerValue
150

@<SCITEGIC>MOL_PROPERTY
Conf_Id
SciTegic.value.IntegerValue
44

@<SCITEGIC>MOL_PROPERTY
Delta U+W
SciTegic.value.DoubleValue
0.823

@<SCITEGIC>MOL_PROPERTY
U+W
SciTegic.value.DoubleValue
-2.308

@<SCITEGIC>MOL_PROPERTY
Grad RMS
SciTegic.value.DoubleValue
0.000000

@<SCITEGIC>MOL_PROPERTY
U
SciTegic.value.DoubleValue
0.039

@<SCITEGIC>MOL_PROPERTY
W
SciTegic.value.DoubleValue
-2.348

@<SCITEGIC>MOL_PROPERTY
W(PB)
SciTegic.value.DoubleValue
-3.918

@<SCITEGIC>MOL_PROPERTY
W(SA)
SciTegic.value.DoubleValue
1.571

@<SCITEGIC>MOL_PROPERTY
Valence
SciTegic.value.DoubleValue
7.320

@<SCITEGIC>MOL_PROPERTY
Coulomb
SciTegic.value.DoubleValue
-8.530

@<SCITEGIC>MOL_PROPERTY
VdW
SciTegic.value.DoubleValue
1.249

@<SCITEGIC>MOL_PROPERTY
VdW6
SciTegic.value.DoubleValue
-2.615

@<SCITEGIC>MOL_PROPERTY
VdW12
SciTegic.value.DoubleValue
3.864

@<SCITEGIC>MOL_PROPERTY
Bond
SciTegic.value.DoubleValue
0.056

@<SCITEGIC>MOL_PROPERTY
Angle
SciTegic.value.DoubleValue
0.694

@<SCITEGIC>MOL_PROPERTY
Pdih
SciTegic.value.DoubleValue
6.570

@<SCITEGIC>MOL_PROPERTY
Idih
SciTegic.value.DoubleValue
0.000

@<SCITEGIC>MOL_PROPERTY
Tether
SciTegic.value.DoubleValue
0.000

@<TRIPOS>MOLECULE
guest-s16_confgen4.mol2 : confsearch ligand conformer 151
          13          13           1
SMALL
USER_CHARGES
 
@<TRIPOS>ATOM
       1    C1      20.063131   20.301481   22.225697 C.3        1 MOL1        -0.1693
       2    H1      19.296678   20.993894   21.853275 H          1 MOL1         0.0829
       3    H2      20.943263   20.882029   22.526811 H          1 MOL1         0.0829
       4    C2      20.336312   19.069114   21.301602 C.3        1 MOL1        -0.1768
       5    H3      20.223187   19.237285   20.225088 H          1 MOL1         0.0829
       6    H4      21.292919   18.562890   21.481119 H          1 MOL1         0.0829
       7    C3      19.115836   18.415588   22.017275 C.3        1 MOL1         0.1211
       8    H5      18.145084   18.711813   21.596617 H          1 MOL1         0.0786
       9    C4      19.546827   19.249139   23.261716 C.3        1 MOL1        -0.1768
      10    H6      18.735850   19.578649   23.920436 H          1 MOL1         0.0829
      11    H7      20.331092   18.784421   23.872257 H          1 MOL1         0.0829
      12    O1      19.187402   17.017434   22.174087 O.3        1 MOL1        -0.5515
      13    H8      18.455146   16.754171   22.772165 H          1 MOL1         0.3773
@<TRIPOS>BOND
    1     1     2    1
    2     1     3    1
    3     1     4    1
    4     4     5    1
    5     4     6    1
    6     4     7    1
    7     7     8    1
    8     1     9    1
    9     7     9    1
   10     9    10    1
   11     9    11    1
   12     7    12    1
   13    12    13    1
@<TRIPOS>SUBSTRUCTURE
       1 MOL1            1 RESIDUE      1      MOL     
@<SCITEGIC>MOL_PROPERTY
VConf Rank
SciTegic.value.IntegerValue
151

@<SCITEGIC>MOL_PROPERTY
Conf_Id
SciTegic.value.IntegerValue
22

@<SCITEGIC>MOL_PROPERTY
Delta U+W
SciTegic.value.DoubleValue
0.000

@<SCITEGIC>MOL_PROPERTY
U+W
SciTegic.value.DoubleValue
-3.131

@<SCITEGIC>MOL_PROPERTY
Grad RMS
SciTegic.value.DoubleValue
0.000000

@<SCITEGIC>MOL_PROPERTY
U
SciTegic.value.DoubleValue
-0.154

@<SCITEGIC>MOL_PROPERTY
W
SciTegic.value.DoubleValue
-2.978

@<SCITEGIC>MOL_PROPERTY
W(PB)
SciTegic.value.DoubleValue
-4.579

@<SCITEGIC>MOL_PROPERTY
W(SA)
SciTegic.value.DoubleValue
1.601

@<SCITEGIC>MOL_PROPERTY
Valence
SciTegic.value.DoubleValue
6.333

@<SCITEGIC>MOL_PROPERTY
Coulomb
SciTegic.value.DoubleValue
-7.439

@<SCITEGIC>MOL_PROPERTY
VdW
SciTegic.value.DoubleValue
0.952

@<SCITEGIC>MOL_PROPERTY
VdW6
SciTegic.value.DoubleValue
-2.120

@<SCITEGIC>MOL_PROPERTY
VdW12
SciTegic.value.DoubleValue
3.072

@<SCITEGIC>MOL_PROPERTY
Bond
SciTegic.value.DoubleValue
0.065

@<SCITEGIC>MOL_PROPERTY
Angle
SciTegic.value.DoubleValue
0.931

@<SCITEGIC>MOL_PROPERTY
Pdih
SciTegic.value.DoubleValue
5.338

@<SCITEGIC>MOL_PROPERTY
Idih
SciTegic.value.DoubleValue
0.000

@<SCITEGIC>MOL_PROPERTY
Tether
SciTegic.value.DoubleValue
0.000

@<TRIPOS>MOLECULE
guest-s16_confgen4.mol2 : confsearch ligand conformer 152
          13          13           1
SMALL
USER_CHARGES
 
@<TRIPOS>ATOM
       1    C1      19.292852   18.298773   23.357226 C.3        1 MOL1        -0.1693
       2    H1      18.226322   18.042908   23.408551 H          1 MOL1         0.0829
       3    H2      19.771820   17.994156   24.295382 H          1 MOL1         0.0829
       4    C2      19.593985   19.755706   22.873495 C.3        1 MOL1        -0.1768
       5    H3      20.596224   20.124152   23.125602 H          1 MOL1         0.0829
       6    H4      18.857776   20.517920   23.151343 H          1 MOL1         0.0829
       7    C3      19.460925   19.174931   21.433290 C.3        1 MOL1         0.1211
       8    H5      18.424539   19.101502   21.076116 H          1 MOL1         0.0786
       9    C4      20.010969   17.849834   22.041907 C.3        1 MOL1        -0.1768
      10    H6      21.104866   17.800348   22.109171 H          1 MOL1         0.0829
      11    H7      19.644061   16.925979   21.581655 H          1 MOL1         0.0829
      12    O1      20.283340   19.778362   20.461666 O.3        1 MOL1        -0.5515
      13    H8      19.914421   20.669811   20.281607 H          1 MOL1         0.3773
@<TRIPOS>BOND
    1     1     2    1
    2     1     3    1
    3     1     4    1
    4     4     5    1
    5     4     6    1
    6     4     7    1
    7     7     8    1
    8     1     9    1
    9     7     9    1
   10     9    10    1
   11     9    11    1
   12     7    12    1
   13    12    13    1
@<TRIPOS>SUBSTRUCTURE
       1 MOL1            1 RESIDUE      1      MOL     
@<SCITEGIC>MOL_PROPERTY
VConf Rank
SciTegic.value.IntegerValue
152

@<SCITEGIC>MOL_PROPERTY
Conf_Id
SciTegic.value.IntegerValue
19

@<SCITEGIC>MOL_PROPERTY
Delta U+W
SciTegic.value.DoubleValue
-0.011

@<SCITEGIC>MOL_PROPERTY
U+W
SciTegic.value.DoubleValue
-3.142

@<SCITEGIC>MOL_PROPERTY
Grad RMS
SciTegic.value.DoubleValue
0.000000

@<SCITEGIC>MOL_PROPERTY
U
SciTegic.value.DoubleValue
-0.154

@<SCITEGIC>MOL_PROPERTY
W
SciTegic.value.DoubleValue
-2.989

@<SCITEGIC>MOL_PROPERTY
W(PB)
SciTegic.value.DoubleValue
-4.588

@<SCITEGIC>MOL_PROPERTY
W(SA)
SciTegic.value.DoubleValue
1.599

@<SCITEGIC>MOL_PROPERTY
Valence
SciTegic.value.DoubleValue
6.334

@<SCITEGIC>MOL_PROPERTY
Coulomb
SciTegic.value.DoubleValue
-7.439

@<SCITEGIC>MOL_PROPERTY
VdW
SciTegic.value.DoubleValue
0.951

@<SCITEGIC>MOL_PROPERTY
VdW6
SciTegic.value.DoubleValue
-2.120

@<SCITEGIC>MOL_PROPERTY
VdW12
SciTegic.value.DoubleValue
3.072

@<SCITEGIC>MOL_PROPERTY
Bond
SciTegic.value.DoubleValue
0.065

@<SCITEGIC>MOL_PROPERTY
Angle
SciTegic.value.DoubleValue
0.930

@<SCITEGIC>MOL_PROPERTY
Pdih
SciTegic.value.DoubleValue
5.339

@<SCITEGIC>MOL_PROPERTY
Idih
SciTegic.value.DoubleValue
0.000

@<SCITEGIC>MOL_PROPERTY
Tether
SciTegic.value.DoubleValue
0.000

@<TRIPOS>MOLECULE
guest-s16_confgen4.mol2 : confsearch ligand conformer 153
          13          13           1
SMALL
USER_CHARGES
 
@<TRIPOS>ATOM
       1    C1      20.329518   19.927918   22.797629 C.3        1 MOL1        -0.1693
       2    H1      20.424557   21.001695   22.997499 H          1 MOL1         0.0829
       3    H2      21.151430   19.402894   23.301630 H          1 MOL1         0.0829
       4    C2      20.120613   19.522055   21.300763 C.3        1 MOL1        -0.1768
       5    H3      19.577956   20.262036   20.700166 H          1 MOL1         0.0829
       6    H4      21.020569   19.219050   20.754265 H          1 MOL1         0.0829
       7    C3      19.230552   18.358755   21.839235 C.3        1 MOL1         0.1211
       8    H5      18.367246   18.113536   21.207267 H          1 MOL1         0.0786
       9    C4      18.914521   19.305052   23.039544 C.3        1 MOL1        -0.1768
      10    H6      18.763882   18.816925   24.008766 H          1 MOL1         0.0829
      11    H7      18.079211   19.993022   22.860861 H          1 MOL1         0.0829
      12    O1      19.933187   17.179666   22.177167 O.3        1 MOL1        -0.5515
      13    H8      19.308446   16.597092   22.659308 H          1 MOL1         0.3773
@<TRIPOS>BOND
    1     1     2    1
    2     1     3    1
    3     1     4    1
    4     4     5    1
    5     4     6    1
    6     4     7    1
    7     7     8    1
    8     1     9    1
    9     7     9    1
   10     9    10    1
   11     9    11    1
   12     7    12    1
   13    12    13    1
@<TRIPOS>SUBSTRUCTURE
       1 MOL1            1 RESIDUE      1      MOL     
@<SCITEGIC>MOL_PROPERTY
VConf Rank
SciTegic.value.IntegerValue
153

@<SCITEGIC>MOL_PROPERTY
Conf_Id
SciTegic.value.IntegerValue
20

@<SCITEGIC>MOL_PROPERTY
Delta U+W
SciTegic.value.DoubleValue
1.030

@<SCITEGIC>MOL_PROPERTY
U+W
SciTegic.value.DoubleValue
-2.101

@<SCITEGIC>MOL_PROPERTY
Grad RMS
SciTegic.value.DoubleValue
0.000000

@<SCITEGIC>MOL_PROPERTY
U
SciTegic.value.DoubleValue
0.841

@<SCITEGIC>MOL_PROPERTY
W
SciTegic.value.DoubleValue
-2.942

@<SCITEGIC>MOL_PROPERTY
W(PB)
SciTegic.value.DoubleValue
-4.530

@<SCITEGIC>MOL_PROPERTY
W(SA)
SciTegic.value.DoubleValue
1.587

@<SCITEGIC>MOL_PROPERTY
Valence
SciTegic.value.DoubleValue
6.736

@<SCITEGIC>MOL_PROPERTY
Coulomb
SciTegic.value.DoubleValue
-7.246

@<SCITEGIC>MOL_PROPERTY
VdW
SciTegic.value.DoubleValue
1.352

@<SCITEGIC>MOL_PROPERTY
VdW6
SciTegic.value.DoubleValue
-2.500

@<SCITEGIC>MOL_PROPERTY
VdW12
SciTegic.value.DoubleValue
3.851

@<SCITEGIC>MOL_PROPERTY
Bond
SciTegic.value.DoubleValue
0.063

@<SCITEGIC>MOL_PROPERTY
Angle
SciTegic.value.DoubleValue
0.687

@<SCITEGIC>MOL_PROPERTY
Pdih
SciTegic.value.DoubleValue
5.986

@<SCITEGIC>MOL_PROPERTY
Idih
SciTegic.value.DoubleValue
0.000

@<SCITEGIC>MOL_PROPERTY
Tether
SciTegic.value.DoubleValue
0.000

@<TRIPOS>MOLECULE
guest-s16_confgen4.mol2 : confsearch ligand conformer 154
          13          13           1
SMALL
USER_CHARGES
 
@<TRIPOS>ATOM
       1    C1      18.494861   19.227779   22.204406 C.3        1 MOL1        -0.1693
       2    H1      18.165169   20.114623   21.647200 H          1 MOL1         0.0829
       3    H2      17.616239   18.751057   22.655163 H          1 MOL1         0.0829
       4    C2      19.710816   19.469571   23.158526 C.3        1 MOL1        -0.1768
       5    H3      19.776570   20.464165   23.613224 H          1 MOL1         0.0829
       6    H4      19.832610   18.714377   23.944807 H          1 MOL1         0.0829
       7    C3      20.591679   19.244655   21.892568 C.3        1 MOL1         0.1211
       8    H5      20.705744   20.139794   21.266143 H          1 MOL1         0.0786
       9    C4      19.461377   18.282653   21.417042 C.3        1 MOL1        -0.1768
      10    H6      19.527417   17.262169   21.814080 H          1 MOL1         0.0829
      11    H7      19.306839   18.229018   20.333745 H          1 MOL1         0.0829
      12    O1      21.841569   18.640224   22.125493 O.3        1 MOL1        -0.5515
      13    H8      21.677715   17.852753   22.685637 H          1 MOL1         0.3773
@<TRIPOS>BOND
    1     1     2    1
    2     1     3    1
    3     1     4    1
    4     4     5    1
    5     4     6    1
    6     4     7    1
    7     7     8    1
    8     1     9    1
    9     7     9    1
   10     9    10    1
   11     9    11    1
   12     7    12    1
   13    12    13    1
@<TRIPOS>SUBSTRUCTURE
       1 MOL1            1 RESIDUE      1      MOL     
@<SCITEGIC>MOL_PROPERTY
VConf Rank
SciTegic.value.IntegerValue
154

@<SCITEGIC>MOL_PROPERTY
Conf_Id
SciTegic.value.IntegerValue
24

@<SCITEGIC>MOL_PROPERTY
Delta U+W
SciTegic.value.DoubleValue
0.356

@<SCITEGIC>MOL_PROPERTY
U+W
SciTegic.value.DoubleValue
-2.775

@<SCITEGIC>MOL_PROPERTY
Grad RMS
SciTegic.value.DoubleValue
0.000000

@<SCITEGIC>MOL_PROPERTY
U
SciTegic.value.DoubleValue
-0.184

@<SCITEGIC>MOL_PROPERTY
W
SciTegic.value.DoubleValue
-2.591

@<SCITEGIC>MOL_PROPERTY
W(PB)
SciTegic.value.DoubleValue
-4.184

@<SCITEGIC>MOL_PROPERTY
W(SA)
SciTegic.value.DoubleValue
1.593

@<SCITEGIC>MOL_PROPERTY
Valence
SciTegic.value.DoubleValue
6.840

@<SCITEGIC>MOL_PROPERTY
Coulomb
SciTegic.value.DoubleValue
-7.916

@<SCITEGIC>MOL_PROPERTY
VdW
SciTegic.value.DoubleValue
0.893

@<SCITEGIC>MOL_PROPERTY
VdW6
SciTegic.value.DoubleValue
-2.167

@<SCITEGIC>MOL_PROPERTY
VdW12
SciTegic.value.DoubleValue
3.060

@<SCITEGIC>MOL_PROPERTY
Bond
SciTegic.value.DoubleValue
0.059

@<SCITEGIC>MOL_PROPERTY
Angle
SciTegic.value.DoubleValue
0.918

@<SCITEGIC>MOL_PROPERTY
Pdih
SciTegic.value.DoubleValue
5.862

@<SCITEGIC>MOL_PROPERTY
Idih
SciTegic.value.DoubleValue
0.000

@<SCITEGIC>MOL_PROPERTY
Tether
SciTegic.value.DoubleValue
0.000

@<TRIPOS>MOLECULE
guest-s16_confgen4.mol2 : confsearch ligand conformer 155
          13          13           1
SMALL
USER_CHARGES
 
@<TRIPOS>ATOM
       1    C1      19.467995   19.723168   21.403656 C.3        1 MOL1        -0.1693
       2    H1      19.101798   20.732475   21.181008 H          1 MOL1         0.0829
       3    H2      19.725365   19.231236   20.457052 H          1 MOL1         0.0829
       4    C2      18.578477   18.869991   22.368532 C.3        1 MOL1        -0.1768
       5    H3      18.020838   19.456705   23.108680 H          1 MOL1         0.0829
       6    H4      17.888647   18.164190   21.892413 H          1 MOL1         0.0829
       7    C3      19.909483   18.262348   22.909999 C.3        1 MOL1         0.1211
       8    H5      19.912089   18.043508   23.985447 H          1 MOL1         0.0786
       9    C4      20.563748   19.623028   22.516956 C.3        1 MOL1        -0.1768
      10    H6      20.492867   20.394377   23.293494 H          1 MOL1         0.0829
      11    H7      21.601926   19.572685   22.170027 H          1 MOL1         0.0829
      12    O1      20.386587   17.146526   22.189555 O.3        1 MOL1        -0.5515
      13    H8      20.362036   17.397734   21.243191 H          1 MOL1         0.3773
@<TRIPOS>BOND
    1     1     2    1
    2     1     3    1
    3     1     4    1
    4     4     5    1
    5     4     6    1
    6     4     7    1
    7     7     8    1
    8     1     9    1
    9     7     9    1
   10     9    10    1
   11     9    11    1
   12     7    12    1
   13    12    13    1
@<TRIPOS>SUBSTRUCTURE
       1 MOL1            1 RESIDUE      1      MOL     
@<SCITEGIC>MOL_PROPERTY
VConf Rank
SciTegic.value.IntegerValue
155

@<SCITEGIC>MOL_PROPERTY
Conf_Id
SciTegic.value.IntegerValue
44

@<SCITEGIC>MOL_PROPERTY
Delta U+W
SciTegic.value.DoubleValue
0.823

@<SCITEGIC>MOL_PROPERTY
U+W
SciTegic.value.DoubleValue
-2.308

@<SCITEGIC>MOL_PROPERTY
Grad RMS
SciTegic.value.DoubleValue
0.000000

@<SCITEGIC>MOL_PROPERTY
U
SciTegic.value.DoubleValue
0.039

@<SCITEGIC>MOL_PROPERTY
W
SciTegic.value.DoubleValue
-2.348

@<SCITEGIC>MOL_PROPERTY
W(PB)
SciTegic.value.DoubleValue
-3.918

@<SCITEGIC>MOL_PROPERTY
W(SA)
SciTegic.value.DoubleValue
1.571

@<SCITEGIC>MOL_PROPERTY
Valence
SciTegic.value.DoubleValue
7.320

@<SCITEGIC>MOL_PROPERTY
Coulomb
SciTegic.value.DoubleValue
-8.530

@<SCITEGIC>MOL_PROPERTY
VdW
SciTegic.value.DoubleValue
1.249

@<SCITEGIC>MOL_PROPERTY
VdW6
SciTegic.value.DoubleValue
-2.615

@<SCITEGIC>MOL_PROPERTY
VdW12
SciTegic.value.DoubleValue
3.864

@<SCITEGIC>MOL_PROPERTY
Bond
SciTegic.value.DoubleValue
0.056

@<SCITEGIC>MOL_PROPERTY
Angle
SciTegic.value.DoubleValue
0.694

@<SCITEGIC>MOL_PROPERTY
Pdih
SciTegic.value.DoubleValue
6.570

@<SCITEGIC>MOL_PROPERTY
Idih
SciTegic.value.DoubleValue
0.000

@<SCITEGIC>MOL_PROPERTY
Tether
SciTegic.value.DoubleValue
0.000

@<TRIPOS>MOLECULE
guest-s16_confgen4.mol2 : confsearch ligand conformer 156
          13          13           1
SMALL
USER_CHARGES
 
@<TRIPOS>ATOM
       1    C1      18.836495   18.558884   21.344402 C.3        1 MOL1        -0.1693
       2    H1      19.332941   18.254589   20.413525 H          1 MOL1         0.0829
       3    H2      17.769652   18.317437   21.267682 H          1 MOL1         0.0829
       4    C2      19.180185   20.007003   21.826208 C.3        1 MOL1        -0.1768
       5    H3      19.375413   20.744665   21.040267 H          1 MOL1         0.0829
       6    H4      18.467535   20.434567   22.542381 H          1 MOL1         0.0829
       7    C3      20.440175   19.360665   22.476990 C.3        1 MOL1         0.1211
       8    H5      21.279007   19.226613   21.780246 H          1 MOL1         0.0786
       9    C4      19.554675   18.090161   22.652776 C.3        1 MOL1        -0.1768
      10    H6      20.079723   17.130256   22.597281 H          1 MOL1         0.0829
      11    H7      18.922498   18.095668   23.549501 H          1 MOL1         0.0829
      12    O1      20.875455   19.962348   23.674094 O.3        1 MOL1        -0.5515
      13    H8      21.558975   19.375049   24.062789 H          1 MOL1         0.3773
@<TRIPOS>BOND
    1     1     2    1
    2     1     3    1
    3     1     4    1
    4     4     5    1
    5     4     6    1
    6     4     7    1
    7     7     8    1
    8     1     9    1
    9     7     9    1
   10     9    10    1
   11     9    11    1
   12     7    12    1
   13    12    13    1
@<TRIPOS>SUBSTRUCTURE
       1 MOL1            1 RESIDUE      1      MOL     
@<SCITEGIC>MOL_PROPERTY
VConf Rank
SciTegic.value.IntegerValue
156

@<SCITEGIC>MOL_PROPERTY
Conf_Id
SciTegic.value.IntegerValue
22

@<SCITEGIC>MOL_PROPERTY
Delta U+W
SciTegic.value.DoubleValue
0.000

@<SCITEGIC>MOL_PROPERTY
U+W
SciTegic.value.DoubleValue
-3.131

@<SCITEGIC>MOL_PROPERTY
Grad RMS
SciTegic.value.DoubleValue
0.000000

@<SCITEGIC>MOL_PROPERTY
U
SciTegic.value.DoubleValue
-0.154

@<SCITEGIC>MOL_PROPERTY
W
SciTegic.value.DoubleValue
-2.978

@<SCITEGIC>MOL_PROPERTY
W(PB)
SciTegic.value.DoubleValue
-4.579

@<SCITEGIC>MOL_PROPERTY
W(SA)
SciTegic.value.DoubleValue
1.601

@<SCITEGIC>MOL_PROPERTY
Valence
SciTegic.value.DoubleValue
6.333

@<SCITEGIC>MOL_PROPERTY
Coulomb
SciTegic.value.DoubleValue
-7.439

@<SCITEGIC>MOL_PROPERTY
VdW
SciTegic.value.DoubleValue
0.952

@<SCITEGIC>MOL_PROPERTY
VdW6
SciTegic.value.DoubleValue
-2.120

@<SCITEGIC>MOL_PROPERTY
VdW12
SciTegic.value.DoubleValue
3.072

@<SCITEGIC>MOL_PROPERTY
Bond
SciTegic.value.DoubleValue
0.065

@<SCITEGIC>MOL_PROPERTY
Angle
SciTegic.value.DoubleValue
0.931

@<SCITEGIC>MOL_PROPERTY
Pdih
SciTegic.value.DoubleValue
5.338

@<SCITEGIC>MOL_PROPERTY
Idih
SciTegic.value.DoubleValue
0.000

@<SCITEGIC>MOL_PROPERTY
Tether
SciTegic.value.DoubleValue
0.000

@<TRIPOS>MOLECULE
guest-s16_confgen4.mol2 : confsearch ligand conformer 157
          13          13           1
SMALL
USER_CHARGES
 
@<TRIPOS>ATOM
       1    C1      20.852715   19.320944   21.948271 C.3        1 MOL1        -0.1693
       2    H1      21.635300   18.696267   22.398744 H          1 MOL1         0.0829
       3    H2      21.331111   20.146063   21.407297 H          1 MOL1         0.0829
       4    C2      19.691893   19.717449   22.919150 C.3        1 MOL1        -0.1768
       5    H3      19.098353   20.581347   22.594827 H          1 MOL1         0.0829
       6    H4      19.967941   19.853867   23.970511 H          1 MOL1         0.0829
       7    C3      19.075516   18.333795   22.552035 C.3        1 MOL1         0.1211
       8    H5      19.485674   17.495144   23.131257 H          1 MOL1         0.0786
       9    C4      19.754945   18.529803   21.163222 C.3        1 MOL1        -0.1768
      10    H6      19.173446   19.131524   20.453732 H          1 MOL1         0.0829
      11    H7      20.084922   17.613952   20.660935 H          1 MOL1         0.0829
      12    O1      17.667683   18.287153   22.532538 O.3        1 MOL1        -0.5515
      13    H8      17.362601   18.327072   23.464490 H          1 MOL1         0.3773
@<TRIPOS>BOND
    1     1     2    1
    2     1     3    1
    3     1     4    1
    4     4     5    1
    5     4     6    1
    6     4     7    1
    7     7     8    1
    8     1     9    1
    9     7     9    1
   10     9    10    1
   11     9    11    1
   12     7    12    1
   13    12    13    1
@<TRIPOS>SUBSTRUCTURE
       1 MOL1            1 RESIDUE      1      MOL     
@<SCITEGIC>MOL_PROPERTY
VConf Rank
SciTegic.value.IntegerValue
157

@<SCITEGIC>MOL_PROPERTY
Conf_Id
SciTegic.value.IntegerValue
19

@<SCITEGIC>MOL_PROPERTY
Delta U+W
SciTegic.value.DoubleValue
-0.011

@<SCITEGIC>MOL_PROPERTY
U+W
SciTegic.value.DoubleValue
-3.142

@<SCITEGIC>MOL_PROPERTY
Grad RMS
SciTegic.value.DoubleValue
0.000000

@<SCITEGIC>MOL_PROPERTY
U
SciTegic.value.DoubleValue
-0.154

@<SCITEGIC>MOL_PROPERTY
W
SciTegic.value.DoubleValue
-2.989

@<SCITEGIC>MOL_PROPERTY
W(PB)
SciTegic.value.DoubleValue
-4.588

@<SCITEGIC>MOL_PROPERTY
W(SA)
SciTegic.value.DoubleValue
1.599

@<SCITEGIC>MOL_PROPERTY
Valence
SciTegic.value.DoubleValue
6.334

@<SCITEGIC>MOL_PROPERTY
Coulomb
SciTegic.value.DoubleValue
-7.439

@<SCITEGIC>MOL_PROPERTY
VdW
SciTegic.value.DoubleValue
0.951

@<SCITEGIC>MOL_PROPERTY
VdW6
SciTegic.value.DoubleValue
-2.120

@<SCITEGIC>MOL_PROPERTY
VdW12
SciTegic.value.DoubleValue
3.072

@<SCITEGIC>MOL_PROPERTY
Bond
SciTegic.value.DoubleValue
0.065

@<SCITEGIC>MOL_PROPERTY
Angle
SciTegic.value.DoubleValue
0.930

@<SCITEGIC>MOL_PROPERTY
Pdih
SciTegic.value.DoubleValue
5.339

@<SCITEGIC>MOL_PROPERTY
Idih
SciTegic.value.DoubleValue
0.000

@<SCITEGIC>MOL_PROPERTY
Tether
SciTegic.value.DoubleValue
0.000

@<TRIPOS>MOLECULE
guest-s16_confgen4.mol2 : confsearch ligand conformer 158
          13          13           1
SMALL
USER_CHARGES
 
@<TRIPOS>ATOM
       1    C1      19.916438   20.007185   21.553665 C.3        1 MOL1        -0.1693
       2    H1      19.744485   20.477465   20.578347 H          1 MOL1         0.0829
       3    H2      20.553937   20.668556   22.154822 H          1 MOL1         0.0829
       4    C2      20.376193   18.511592   21.525403 C.3        1 MOL1        -0.1768
       5    H3      19.993095   17.933787   20.675614 H          1 MOL1         0.0829
       6    H4      21.454717   18.338065   21.609476 H          1 MOL1         0.0829
       7    C3      19.556260   18.333592   22.841250 C.3        1 MOL1         0.1211
       8    H5      19.060395   17.359605   22.942642 H          1 MOL1         0.0786
       9    C4      18.645034   19.477753   22.296587 C.3        1 MOL1        -0.1768
      10    H6      18.214500   20.147727   23.049002 H          1 MOL1         0.0829
      11    H7      17.841765   19.134540   21.633309 H          1 MOL1         0.0829
      12    O1      20.260072   18.643930   24.027203 O.3        1 MOL1        -0.5515
      13    H8      19.604796   18.665899   24.756781 H          1 MOL1         0.3773
@<TRIPOS>BOND
    1     1     2    1
    2     1     3    1
    3     1     4    1
    4     4     5    1
    5     4     6    1
    6     4     7    1
    7     7     8    1
    8     1     9    1
    9     7     9    1
   10     9    10    1
   11     9    11    1
   12     7    12    1
   13    12    13    1
@<TRIPOS>SUBSTRUCTURE
       1 MOL1            1 RESIDUE      1      MOL     
@<SCITEGIC>MOL_PROPERTY
VConf Rank
SciTegic.value.IntegerValue
158

@<SCITEGIC>MOL_PROPERTY
Conf_Id
SciTegic.value.IntegerValue
20

@<SCITEGIC>MOL_PROPERTY
Delta U+W
SciTegic.value.DoubleValue
1.030

@<SCITEGIC>MOL_PROPERTY
U+W
SciTegic.value.DoubleValue
-2.101

@<SCITEGIC>MOL_PROPERTY
Grad RMS
SciTegic.value.DoubleValue
0.000000

@<SCITEGIC>MOL_PROPERTY
U
SciTegic.value.DoubleValue
0.841

@<SCITEGIC>MOL_PROPERTY
W
SciTegic.value.DoubleValue
-2.942

@<SCITEGIC>MOL_PROPERTY
W(PB)
SciTegic.value.DoubleValue
-4.530

@<SCITEGIC>MOL_PROPERTY
W(SA)
SciTegic.value.DoubleValue
1.587

@<SCITEGIC>MOL_PROPERTY
Valence
SciTegic.value.DoubleValue
6.736

@<SCITEGIC>MOL_PROPERTY
Coulomb
SciTegic.value.DoubleValue
-7.246

@<SCITEGIC>MOL_PROPERTY
VdW
SciTegic.value.DoubleValue
1.352

@<SCITEGIC>MOL_PROPERTY
VdW6
SciTegic.value.DoubleValue
-2.500

@<SCITEGIC>MOL_PROPERTY
VdW12
SciTegic.value.DoubleValue
3.851

@<SCITEGIC>MOL_PROPERTY
Bond
SciTegic.value.DoubleValue
0.063

@<SCITEGIC>MOL_PROPERTY
Angle
SciTegic.value.DoubleValue
0.687

@<SCITEGIC>MOL_PROPERTY
Pdih
SciTegic.value.DoubleValue
5.986

@<SCITEGIC>MOL_PROPERTY
Idih
SciTegic.value.DoubleValue
0.000

@<SCITEGIC>MOL_PROPERTY
Tether
SciTegic.value.DoubleValue
0.000

@<TRIPOS>MOLECULE
guest-s16_confgen4.mol2 : confsearch ligand conformer 159
          13          13           1
SMALL
USER_CHARGES
 
@<TRIPOS>ATOM
       1    C1      20.546059   19.943070   22.368192 C.3        1 MOL1        -0.1693
       2    H1      20.392664   20.832783   21.743252 H          1 MOL1         0.0829
       3    H2      21.405971   20.120773   23.024999 H          1 MOL1         0.0829
       4    C2      20.546319   18.587499   21.587305 C.3        1 MOL1        -0.1768
       5    H3      20.939957   18.619827   20.565397 H          1 MOL1         0.0829
       6    H4      21.018312   17.752742   22.120026 H          1 MOL1         0.0829
       7    C3      18.994564   18.653417   21.717171 C.3        1 MOL1         0.1211
       8    H5      18.510707   19.273845   20.950591 H          1 MOL1         0.0786
       9    C4      19.252958   19.399574   23.060911 C.3        1 MOL1        -0.1768
      10    H6      19.435869   18.746325   23.923000 H          1 MOL1         0.0829
      11    H7      18.504360   20.149084   23.340420 H          1 MOL1         0.0829
      12    O1      18.344232   17.410113   21.831546 O.3        1 MOL1        -0.5515
      13    H8      18.816630   16.903785   22.525225 H          1 MOL1         0.3773
@<TRIPOS>BOND
    1     1     2    1
    2     1     3    1
    3     1     4    1
    4     4     5    1
    5     4     6    1
    6     4     7    1
    7     7     8    1
    8     1     9    1
    9     7     9    1
   10     9    10    1
   11     9    11    1
   12     7    12    1
   13    12    13    1
@<TRIPOS>SUBSTRUCTURE
       1 MOL1            1 RESIDUE      1      MOL     
@<SCITEGIC>MOL_PROPERTY
VConf Rank
SciTegic.value.IntegerValue
159

@<SCITEGIC>MOL_PROPERTY
Conf_Id
SciTegic.value.IntegerValue
24

@<SCITEGIC>MOL_PROPERTY
Delta U+W
SciTegic.value.DoubleValue
0.356

@<SCITEGIC>MOL_PROPERTY
U+W
SciTegic.value.DoubleValue
-2.775

@<SCITEGIC>MOL_PROPERTY
Grad RMS
SciTegic.value.DoubleValue
0.000000

@<SCITEGIC>MOL_PROPERTY
U
SciTegic.value.DoubleValue
-0.184

@<SCITEGIC>MOL_PROPERTY
W
SciTegic.value.DoubleValue
-2.591

@<SCITEGIC>MOL_PROPERTY
W(PB)
SciTegic.value.DoubleValue
-4.184

@<SCITEGIC>MOL_PROPERTY
W(SA)
SciTegic.value.DoubleValue
1.593

@<SCITEGIC>MOL_PROPERTY
Valence
SciTegic.value.DoubleValue
6.840

@<SCITEGIC>MOL_PROPERTY
Coulomb
SciTegic.value.DoubleValue
-7.916

@<SCITEGIC>MOL_PROPERTY
VdW
SciTegic.value.DoubleValue
0.893

@<SCITEGIC>MOL_PROPERTY
VdW6
SciTegic.value.DoubleValue
-2.167

@<SCITEGIC>MOL_PROPERTY
VdW12
SciTegic.value.DoubleValue
3.060

@<SCITEGIC>MOL_PROPERTY
Bond
SciTegic.value.DoubleValue
0.059

@<SCITEGIC>MOL_PROPERTY
Angle
SciTegic.value.DoubleValue
0.918

@<SCITEGIC>MOL_PROPERTY
Pdih
SciTegic.value.DoubleValue
5.862

@<SCITEGIC>MOL_PROPERTY
Idih
SciTegic.value.DoubleValue
0.000

@<SCITEGIC>MOL_PROPERTY
Tether
SciTegic.value.DoubleValue
0.000

@<TRIPOS>MOLECULE
guest-s16_confgen4.mol2 : confsearch ligand conformer 160
          13          13           1
SMALL
USER_CHARGES
 
@<TRIPOS>ATOM
       1    C1      20.053573   18.995525   23.274849 C.3        1 MOL1        -0.1693
       2    H1      19.875046   18.654783   24.301687 H          1 MOL1         0.0829
       3    H2      20.954682   19.621838   23.269284 H          1 MOL1         0.0829
       4    C2      18.819602   19.610605   22.533816 C.3        1 MOL1        -0.1768
       5    H3      17.852267   19.196476   22.843292 H          1 MOL1         0.0829
       6    H4      18.748102   20.704022   22.539717 H          1 MOL1         0.0829
       7    C3      19.398362   18.972202   21.233250 C.3        1 MOL1         0.1211
       8    H5      18.644543   18.598034   20.528806 H          1 MOL1         0.0786
       9    C4      20.014983   17.887526   22.169867 C.3        1 MOL1        -0.1768
      10    H6      19.340739   17.050924   22.390109 H          1 MOL1         0.0829
      11    H7      20.983961   17.481150   21.858983 H          1 MOL1         0.0829
      12    O1      20.341511   19.770528   20.551433 O.3        1 MOL1        -0.5515
      13    H8      20.984488   20.074357   21.224917 H          1 MOL1         0.3773
@<TRIPOS>BOND
    1     1     2    1
    2     1     3    1
    3     1     4    1
    4     4     5    1
    5     4     6    1
    6     4     7    1
    7     7     8    1
    8     1     9    1
    9     7     9    1
   10     9    10    1
   11     9    11    1
   12     7    12    1
   13    12    13    1
@<TRIPOS>SUBSTRUCTURE
       1 MOL1            1 RESIDUE      1      MOL     
@<SCITEGIC>MOL_PROPERTY
VConf Rank
SciTegic.value.IntegerValue
160

@<SCITEGIC>MOL_PROPERTY
Conf_Id
SciTegic.value.IntegerValue
44

@<SCITEGIC>MOL_PROPERTY
Delta U+W
SciTegic.value.DoubleValue
0.823

@<SCITEGIC>MOL_PROPERTY
U+W
SciTegic.value.DoubleValue
-2.308

@<SCITEGIC>MOL_PROPERTY
Grad RMS
SciTegic.value.DoubleValue
0.000000

@<SCITEGIC>MOL_PROPERTY
U
SciTegic.value.DoubleValue
0.039

@<SCITEGIC>MOL_PROPERTY
W
SciTegic.value.DoubleValue
-2.348

@<SCITEGIC>MOL_PROPERTY
W(PB)
SciTegic.value.DoubleValue
-3.918

@<SCITEGIC>MOL_PROPERTY
W(SA)
SciTegic.value.DoubleValue
1.571

@<SCITEGIC>MOL_PROPERTY
Valence
SciTegic.value.DoubleValue
7.320

@<SCITEGIC>MOL_PROPERTY
Coulomb
SciTegic.value.DoubleValue
-8.530

@<SCITEGIC>MOL_PROPERTY
VdW
SciTegic.value.DoubleValue
1.249

@<SCITEGIC>MOL_PROPERTY
VdW6
SciTegic.value.DoubleValue
-2.615

@<SCITEGIC>MOL_PROPERTY
VdW12
SciTegic.value.DoubleValue
3.864

@<SCITEGIC>MOL_PROPERTY
Bond
SciTegic.value.DoubleValue
0.056

@<SCITEGIC>MOL_PROPERTY
Angle
SciTegic.value.DoubleValue
0.694

@<SCITEGIC>MOL_PROPERTY
Pdih
SciTegic.value.DoubleValue
6.570

@<SCITEGIC>MOL_PROPERTY
Idih
SciTegic.value.DoubleValue
0.000

@<SCITEGIC>MOL_PROPERTY
Tether
SciTegic.value.DoubleValue
0.000

@<TRIPOS>MOLECULE
guest-s16_confgen4.mol2 : confsearch ligand conformer 161
          13          13           1
SMALL
USER_CHARGES
 
@<TRIPOS>ATOM
       1    C1      20.622045   19.830936   22.704913 C.3        1 MOL1        -0.1693
       2    H1      20.278845   20.850266   22.925743 H          1 MOL1         0.0829
       3    H2      21.679116   19.748817   22.984545 H          1 MOL1         0.0829
       4    C2      20.245999   19.308294   21.279170 C.3        1 MOL1        -0.1768
       5    H3      20.206438   20.059996   20.483344 H          1 MOL1         0.0829
       6    H4      20.841718   18.455749   20.930067 H          1 MOL1         0.0829
       7    C3      18.876568   18.921789   21.914874 C.3        1 MOL1         0.1211
       8    H5      18.161959   19.754635   21.967454 H          1 MOL1         0.0786
       9    C4      19.682303   18.695696   23.229737 C.3        1 MOL1        -0.1768
      10    H6      19.145594   18.906120   24.161315 H          1 MOL1         0.0829
      11    H7      20.156101   17.709363   23.310102 H          1 MOL1         0.0829
      12    O1      18.265947   17.771911   21.376850 O.3        1 MOL1        -0.5515
      13    H8      17.510093   17.544334   21.960028 H          1 MOL1         0.3773
@<TRIPOS>BOND
    1     1     2    1
    2     1     3    1
    3     1     4    1
    4     4     5    1
    5     4     6    1
    6     4     7    1
    7     7     8    1
    8     1     9    1
    9     7     9    1
   10     9    10    1
   11     9    11    1
   12     7    12    1
   13    12    13    1
@<TRIPOS>SUBSTRUCTURE
       1 MOL1            1 RESIDUE      1      MOL     
@<SCITEGIC>MOL_PROPERTY
VConf Rank
SciTegic.value.IntegerValue
161

@<SCITEGIC>MOL_PROPERTY
Conf_Id
SciTegic.value.IntegerValue
22

@<SCITEGIC>MOL_PROPERTY
Delta U+W
SciTegic.value.DoubleValue
0.000

@<SCITEGIC>MOL_PROPERTY
U+W
SciTegic.value.DoubleValue
-3.131

@<SCITEGIC>MOL_PROPERTY
Grad RMS
SciTegic.value.DoubleValue
0.000000

@<SCITEGIC>MOL_PROPERTY
U
SciTegic.value.DoubleValue
-0.154

@<SCITEGIC>MOL_PROPERTY
W
SciTegic.value.DoubleValue
-2.978

@<SCITEGIC>MOL_PROPERTY
W(PB)
SciTegic.value.DoubleValue
-4.579

@<SCITEGIC>MOL_PROPERTY
W(SA)
SciTegic.value.DoubleValue
1.601

@<SCITEGIC>MOL_PROPERTY
Valence
SciTegic.value.DoubleValue
6.333

@<SCITEGIC>MOL_PROPERTY
Coulomb
SciTegic.value.DoubleValue
-7.439

@<SCITEGIC>MOL_PROPERTY
VdW
SciTegic.value.DoubleValue
0.952

@<SCITEGIC>MOL_PROPERTY
VdW6
SciTegic.value.DoubleValue
-2.120

@<SCITEGIC>MOL_PROPERTY
VdW12
SciTegic.value.DoubleValue
3.072

@<SCITEGIC>MOL_PROPERTY
Bond
SciTegic.value.DoubleValue
0.065

@<SCITEGIC>MOL_PROPERTY
Angle
SciTegic.value.DoubleValue
0.931

@<SCITEGIC>MOL_PROPERTY
Pdih
SciTegic.value.DoubleValue
5.338

@<SCITEGIC>MOL_PROPERTY
Idih
SciTegic.value.DoubleValue
0.000

@<SCITEGIC>MOL_PROPERTY
Tether
SciTegic.value.DoubleValue
0.000

@<TRIPOS>MOLECULE
guest-s16_confgen4.mol2 : confsearch ligand conformer 162
          13          13           1
SMALL
USER_CHARGES
 
@<TRIPOS>ATOM
       1    C1      19.335545   18.063437   23.200615 C.3        1 MOL1        -0.1693
       2    H1      18.361779   17.575010   23.063483 H          1 MOL1         0.0829
       3    H2      19.770331   17.718788   24.146404 H          1 MOL1         0.0829
       4    C2      19.329957   19.610801   22.970477 C.3        1 MOL1        -0.1768
       5    H3      20.182365   20.142599   23.411369 H          1 MOL1         0.0829
       6    H4      18.407682   20.135529   23.242949 H          1 MOL1         0.0829
       7    C3      19.494112   19.264217   21.459806 C.3        1 MOL1         0.1211
       8    H5      18.549522   19.026075   20.951772 H          1 MOL1         0.0786
       9    C4      20.276405   18.009364   21.951950 C.3        1 MOL1        -0.1768
      10    H6      21.336833   18.190452   22.167086 H          1 MOL1         0.0829
      11    H7      20.192074   17.117841   21.321049 H          1 MOL1         0.0829
      12    O1      20.247602   20.187095   20.708077 O.3        1 MOL1        -0.5515
      13    H8      19.697891   20.993174   20.601972 H          1 MOL1         0.3773
@<TRIPOS>BOND
    1     1     2    1
    2     1     3    1
    3     1     4    1
    4     4     5    1
    5     4     6    1
    6     4     7    1
    7     7     8    1
    8     1     9    1
    9     7     9    1
   10     9    10    1
   11     9    11    1
   12     7    12    1
   13    12    13    1
@<TRIPOS>SUBSTRUCTURE
       1 MOL1            1 RESIDUE      1      MOL     
@<SCITEGIC>MOL_PROPERTY
VConf Rank
SciTegic.value.IntegerValue
162

@<SCITEGIC>MOL_PROPERTY
Conf_Id
SciTegic.value.IntegerValue
19

@<SCITEGIC>MOL_PROPERTY
Delta U+W
SciTegic.value.DoubleValue
-0.011

@<SCITEGIC>MOL_PROPERTY
U+W
SciTegic.value.DoubleValue
-3.142

@<SCITEGIC>MOL_PROPERTY
Grad RMS
SciTegic.value.DoubleValue
0.000000

@<SCITEGIC>MOL_PROPERTY
U
SciTegic.value.DoubleValue
-0.154

@<SCITEGIC>MOL_PROPERTY
W
SciTegic.value.DoubleValue
-2.989

@<SCITEGIC>MOL_PROPERTY
W(PB)
SciTegic.value.DoubleValue
-4.588

@<SCITEGIC>MOL_PROPERTY
W(SA)
SciTegic.value.DoubleValue
1.599

@<SCITEGIC>MOL_PROPERTY
Valence
SciTegic.value.DoubleValue
6.334

@<SCITEGIC>MOL_PROPERTY
Coulomb
SciTegic.value.DoubleValue
-7.439

@<SCITEGIC>MOL_PROPERTY
VdW
SciTegic.value.DoubleValue
0.951

@<SCITEGIC>MOL_PROPERTY
VdW6
SciTegic.value.DoubleValue
-2.120

@<SCITEGIC>MOL_PROPERTY
VdW12
SciTegic.value.DoubleValue
3.072

@<SCITEGIC>MOL_PROPERTY
Bond
SciTegic.value.DoubleValue
0.065

@<SCITEGIC>MOL_PROPERTY
Angle
SciTegic.value.DoubleValue
0.930

@<SCITEGIC>MOL_PROPERTY
Pdih
SciTegic.value.DoubleValue
5.339

@<SCITEGIC>MOL_PROPERTY
Idih
SciTegic.value.DoubleValue
0.000

@<SCITEGIC>MOL_PROPERTY
Tether
SciTegic.value.DoubleValue
0.000

@<TRIPOS>MOLECULE
guest-s16_confgen4.mol2 : confsearch ligand conformer 163
          13          13           1
SMALL
USER_CHARGES
 
@<TRIPOS>ATOM
       1    C1      19.074888   20.093873   22.633883 C.3        1 MOL1        -0.1693
       2    H1      18.261558   20.796713   22.418274 H          1 MOL1         0.0829
       3    H2      19.563072   20.398008   23.568969 H          1 MOL1         0.0829
       4    C2      20.059168   19.796966   21.454048 C.3        1 MOL1        -0.1768
       5    H3      19.604506   19.851470   20.457515 H          1 MOL1         0.0829
       6    H4      20.989837   20.375063   21.446751 H          1 MOL1         0.0829
       7    C3      20.163941   18.350662   22.030810 C.3        1 MOL1         0.1211
       8    H5      20.263649   17.562578   21.273318 H          1 MOL1         0.0786
       9    C4      18.710754   18.574060   22.554676 C.3        1 MOL1        -0.1768
      10    H6      18.463525   18.089165   23.505522 H          1 MOL1         0.0829
      11    H7      17.928450   18.332214   21.824961 H          1 MOL1         0.0829
      12    O1      21.142101   18.181022   23.037075 O.3        1 MOL1        -0.5515
      13    H8      20.996238   17.297903   23.438298 H          1 MOL1         0.3773
@<TRIPOS>BOND
    1     1     2    1
    2     1     3    1
    3     1     4    1
    4     4     5    1
    5     4     6    1
    6     4     7    1
    7     7     8    1
    8     1     9    1
    9     7     9    1
   10     9    10    1
   11     9    11    1
   12     7    12    1
   13    12    13    1
@<TRIPOS>SUBSTRUCTURE
       1 MOL1            1 RESIDUE      1      MOL     
@<SCITEGIC>MOL_PROPERTY
VConf Rank
SciTegic.value.IntegerValue
163

@<SCITEGIC>MOL_PROPERTY
Conf_Id
SciTegic.value.IntegerValue
20

@<SCITEGIC>MOL_PROPERTY
Delta U+W
SciTegic.value.DoubleValue
1.030

@<SCITEGIC>MOL_PROPERTY
U+W
SciTegic.value.DoubleValue
-2.101

@<SCITEGIC>MOL_PROPERTY
Grad RMS
SciTegic.value.DoubleValue
0.000000

@<SCITEGIC>MOL_PROPERTY
U
SciTegic.value.DoubleValue
0.841

@<SCITEGIC>MOL_PROPERTY
W
SciTegic.value.DoubleValue
-2.942

@<SCITEGIC>MOL_PROPERTY
W(PB)
SciTegic.value.DoubleValue
-4.530

@<SCITEGIC>MOL_PROPERTY
W(SA)
SciTegic.value.DoubleValue
1.587

@<SCITEGIC>MOL_PROPERTY
Valence
SciTegic.value.DoubleValue
6.736

@<SCITEGIC>MOL_PROPERTY
Coulomb
SciTegic.value.DoubleValue
-7.246

@<SCITEGIC>MOL_PROPERTY
VdW
SciTegic.value.DoubleValue
1.352

@<SCITEGIC>MOL_PROPERTY
VdW6
SciTegic.value.DoubleValue
-2.500

@<SCITEGIC>MOL_PROPERTY
VdW12
SciTegic.value.DoubleValue
3.851

@<SCITEGIC>MOL_PROPERTY
Bond
SciTegic.value.DoubleValue
0.063

@<SCITEGIC>MOL_PROPERTY
Angle
SciTegic.value.DoubleValue
0.687

@<SCITEGIC>MOL_PROPERTY
Pdih
SciTegic.value.DoubleValue
5.986

@<SCITEGIC>MOL_PROPERTY
Idih
SciTegic.value.DoubleValue
0.000

@<SCITEGIC>MOL_PROPERTY
Tether
SciTegic.value.DoubleValue
0.000

@<TRIPOS>MOLECULE
guest-s16_confgen4.mol2 : confsearch ligand conformer 164
          13          13           1
SMALL
USER_CHARGES
 
@<TRIPOS>ATOM
       1    C1      19.288267   18.894937   23.407615 C.3        1 MOL1        -0.1693
       2    H1      19.998770   18.707352   24.223499 H          1 MOL1         0.0829
       3    H2      18.283386   18.995499   23.834842 H          1 MOL1         0.0829
       4    C2      19.422406   17.924894   22.187623 C.3        1 MOL1        -0.1768
       5    H3      19.743144   16.902807   22.417310 H          1 MOL1         0.0829
       6    H4      18.538068   17.879128   21.540135 H          1 MOL1         0.0829
       7    C3      20.542618   18.891914   21.698589 C.3        1 MOL1         0.1211
       8    H5      21.523407   18.702694   22.155692 H          1 MOL1         0.0786
       9    C4      19.724041   20.014245   22.405313 C.3        1 MOL1        -0.1768
      10    H6      18.907122   20.435474   21.806483 H          1 MOL1         0.0829
      11    H7      20.311169   20.837373   22.827253 H          1 MOL1         0.0829
      12    O1      20.663236   19.020028   20.301859 O.3        1 MOL1        -0.5515
      13    H8      19.762967   19.186494   19.951823 H          1 MOL1         0.3773
@<TRIPOS>BOND
    1     1     2    1
    2     1     3    1
    3     1     4    1
    4     4     5    1
    5     4     6    1
    6     4     7    1
    7     7     8    1
    8     1     9    1
    9     7     9    1
   10     9    10    1
   11     9    11    1
   12     7    12    1
   13    12    13    1
@<TRIPOS>SUBSTRUCTURE
       1 MOL1            1 RESIDUE      1      MOL     
@<SCITEGIC>MOL_PROPERTY
VConf Rank
SciTegic.value.IntegerValue
164

@<SCITEGIC>MOL_PROPERTY
Conf_Id
SciTegic.value.IntegerValue
24

@<SCITEGIC>MOL_PROPERTY
Delta U+W
SciTegic.value.DoubleValue
0.356

@<SCITEGIC>MOL_PROPERTY
U+W
SciTegic.value.DoubleValue
-2.775

@<SCITEGIC>MOL_PROPERTY
Grad RMS
SciTegic.value.DoubleValue
0.000000

@<SCITEGIC>MOL_PROPERTY
U
SciTegic.value.DoubleValue
-0.184

@<SCITEGIC>MOL_PROPERTY
W
SciTegic.value.DoubleValue
-2.591

@<SCITEGIC>MOL_PROPERTY
W(PB)
SciTegic.value.DoubleValue
-4.184

@<SCITEGIC>MOL_PROPERTY
W(SA)
SciTegic.value.DoubleValue
1.593

@<SCITEGIC>MOL_PROPERTY
Valence
SciTegic.value.DoubleValue
6.840

@<SCITEGIC>MOL_PROPERTY
Coulomb
SciTegic.value.DoubleValue
-7.916

@<SCITEGIC>MOL_PROPERTY
VdW
SciTegic.value.DoubleValue
0.893

@<SCITEGIC>MOL_PROPERTY
VdW6
SciTegic.value.DoubleValue
-2.167

@<SCITEGIC>MOL_PROPERTY
VdW12
SciTegic.value.DoubleValue
3.060

@<SCITEGIC>MOL_PROPERTY
Bond
SciTegic.value.DoubleValue
0.059

@<SCITEGIC>MOL_PROPERTY
Angle
SciTegic.value.DoubleValue
0.918

@<SCITEGIC>MOL_PROPERTY
Pdih
SciTegic.value.DoubleValue
5.862

@<SCITEGIC>MOL_PROPERTY
Idih
SciTegic.value.DoubleValue
0.000

@<SCITEGIC>MOL_PROPERTY
Tether
SciTegic.value.DoubleValue
0.000

@<TRIPOS>MOLECULE
guest-s16_confgen4.mol2 : confsearch ligand conformer 165
          13          13           1
SMALL
USER_CHARGES
 
@<TRIPOS>ATOM
       1    C1      20.299133   19.659842   21.558194 C.3        1 MOL1        -0.1693
       2    H1      20.333101   20.224777   20.619010 H          1 MOL1         0.0829
       3    H2      21.240398   19.826635   22.097171 H          1 MOL1         0.0829
       4    C2      19.865100   18.160622   21.439476 C.3        1 MOL1        -0.1768
       5    H3      19.168949   17.953933   20.617485 H          1 MOL1         0.0829
       6    H4      20.675785   17.424323   21.402555 H          1 MOL1         0.0829
       7    C3      19.175070   18.346001   22.826374 C.3        1 MOL1         0.1211
       8    H5      18.235255   17.793085   22.950942 H          1 MOL1         0.0786
       9    C4      19.005454   19.842751   22.420213 C.3        1 MOL1        -0.1768
      10    H6      18.098532   20.048496   21.838684 H          1 MOL1         0.0829
      11    H7      19.067890   20.570603   23.236939 H          1 MOL1         0.0829
      12    O1      20.014972   18.126483   23.939075 O.3        1 MOL1        -0.5515
      13    H8      20.832218   18.640423   23.773890 H          1 MOL1         0.3773
@<TRIPOS>BOND
    1     1     2    1
    2     1     3    1
    3     1     4    1
    4     4     5    1
    5     4     6    1
    6     4     7    1
    7     7     8    1
    8     1     9    1
    9     7     9    1
   10     9    10    1
   11     9    11    1
   12     7    12    1
   13    12    13    1
@<TRIPOS>SUBSTRUCTURE
       1 MOL1            1 RESIDUE      1      MOL     
@<SCITEGIC>MOL_PROPERTY
VConf Rank
SciTegic.value.IntegerValue
165

@<SCITEGIC>MOL_PROPERTY
Conf_Id
SciTegic.value.IntegerValue
44

@<SCITEGIC>MOL_PROPERTY
Delta U+W
SciTegic.value.DoubleValue
0.823

@<SCITEGIC>MOL_PROPERTY
U+W
SciTegic.value.DoubleValue
-2.308

@<SCITEGIC>MOL_PROPERTY
Grad RMS
SciTegic.value.DoubleValue
0.000000

@<SCITEGIC>MOL_PROPERTY
U
SciTegic.value.DoubleValue
0.039

@<SCITEGIC>MOL_PROPERTY
W
SciTegic.value.DoubleValue
-2.348

@<SCITEGIC>MOL_PROPERTY
W(PB)
SciTegic.value.DoubleValue
-3.918

@<SCITEGIC>MOL_PROPERTY
W(SA)
SciTegic.value.DoubleValue
1.571

@<SCITEGIC>MOL_PROPERTY
Valence
SciTegic.value.DoubleValue
7.320

@<SCITEGIC>MOL_PROPERTY
Coulomb
SciTegic.value.DoubleValue
-8.530

@<SCITEGIC>MOL_PROPERTY
VdW
SciTegic.value.DoubleValue
1.249

@<SCITEGIC>MOL_PROPERTY
VdW6
SciTegic.value.DoubleValue
-2.615

@<SCITEGIC>MOL_PROPERTY
VdW12
SciTegic.value.DoubleValue
3.864

@<SCITEGIC>MOL_PROPERTY
Bond
SciTegic.value.DoubleValue
0.056

@<SCITEGIC>MOL_PROPERTY
Angle
SciTegic.value.DoubleValue
0.694

@<SCITEGIC>MOL_PROPERTY
Pdih
SciTegic.value.DoubleValue
6.570

@<SCITEGIC>MOL_PROPERTY
Idih
SciTegic.value.DoubleValue
0.000

@<SCITEGIC>MOL_PROPERTY
Tether
SciTegic.value.DoubleValue
0.000

@<TRIPOS>MOLECULE
guest-s16_confgen4.mol2 : confsearch ligand conformer 166
          13          13           1
SMALL
USER_CHARGES
 
@<TRIPOS>ATOM
       1    C1      20.763612   19.777043   22.238197 C.3        1 MOL1        -0.1693
       2    H1      20.716463   20.622925   21.539737 H          1 MOL1         0.0829
       3    H2      21.717807   19.820051   22.776714 H          1 MOL1         0.0829
       4    C2      20.388313   18.392093   21.615003 C.3        1 MOL1        -0.1768
       5    H3      20.648173   18.249889   20.560389 H          1 MOL1         0.0829
       6    H4      20.736954   17.521846   22.184834 H          1 MOL1         0.0829
       7    C3      18.911611   18.800816   21.899859 C.3        1 MOL1         0.1211
       8    H5      18.472453   19.443206   21.124270 H          1 MOL1         0.0786
       9    C4      19.485503   19.583624   23.119306 C.3        1 MOL1        -0.1768
      10    H6      18.948160   20.497162   23.396586 H          1 MOL1         0.0829
      11    H7      19.637771   18.976152   24.020186 H          1 MOL1         0.0829
      12    O1      18.043680   17.738374   22.219955 O.3        1 MOL1        -0.5515
      13    H8      17.202226   18.134725   22.533106 H          1 MOL1         0.3773
@<TRIPOS>BOND
    1     1     2    1
    2     1     3    1
    3     1     4    1
    4     4     5    1
    5     4     6    1
    6     4     7    1
    7     7     8    1
    8     1     9    1
    9     7     9    1
   10     9    10    1
   11     9    11    1
   12     7    12    1
   13    12    13    1
@<TRIPOS>SUBSTRUCTURE
       1 MOL1            1 RESIDUE      1      MOL     
@<SCITEGIC>MOL_PROPERTY
VConf Rank
SciTegic.value.IntegerValue
166

@<SCITEGIC>MOL_PROPERTY
Conf_Id
SciTegic.value.IntegerValue
22

@<SCITEGIC>MOL_PROPERTY
Delta U+W
SciTegic.value.DoubleValue
0.000

@<SCITEGIC>MOL_PROPERTY
U+W
SciTegic.value.DoubleValue
-3.131

@<SCITEGIC>MOL_PROPERTY
Grad RMS
SciTegic.value.DoubleValue
0.000000

@<SCITEGIC>MOL_PROPERTY
U
SciTegic.value.DoubleValue
-0.154

@<SCITEGIC>MOL_PROPERTY
W
SciTegic.value.DoubleValue
-2.978

@<SCITEGIC>MOL_PROPERTY
W(PB)
SciTegic.value.DoubleValue
-4.579

@<SCITEGIC>MOL_PROPERTY
W(SA)
SciTegic.value.DoubleValue
1.601

@<SCITEGIC>MOL_PROPERTY
Valence
SciTegic.value.DoubleValue
6.333

@<SCITEGIC>MOL_PROPERTY
Coulomb
SciTegic.value.DoubleValue
-7.439

@<SCITEGIC>MOL_PROPERTY
VdW
SciTegic.value.DoubleValue
0.952

@<SCITEGIC>MOL_PROPERTY
VdW6
SciTegic.value.DoubleValue
-2.120

@<SCITEGIC>MOL_PROPERTY
VdW12
SciTegic.value.DoubleValue
3.072

@<SCITEGIC>MOL_PROPERTY
Bond
SciTegic.value.DoubleValue
0.065

@<SCITEGIC>MOL_PROPERTY
Angle
SciTegic.value.DoubleValue
0.931

@<SCITEGIC>MOL_PROPERTY
Pdih
SciTegic.value.DoubleValue
5.338

@<SCITEGIC>MOL_PROPERTY
Idih
SciTegic.value.DoubleValue
0.000

@<SCITEGIC>MOL_PROPERTY
Tether
SciTegic.value.DoubleValue
0.000

@<TRIPOS>MOLECULE
guest-s16_confgen4.mol2 : confsearch ligand conformer 167
          13          13           1
SMALL
USER_CHARGES
 
@<TRIPOS>ATOM
       1    C1      20.560522   19.500029   21.508032 C.3        1 MOL1        -0.1693
       2    H1      20.571749   20.594668   21.593046 H          1 MOL1         0.0829
       3    H2      21.316503   19.197843   20.773516 H          1 MOL1         0.0829
       4    C2      19.138997   18.871876   21.329089 C.3        1 MOL1        -0.1768
       5    H3      19.136364   17.852640   20.922954 H          1 MOL1         0.0829
       6    H4      18.411838   19.474612   20.774003 H          1 MOL1         0.0829
       7    C3      19.042211   18.950077   22.882701 C.3        1 MOL1         0.1211
       8    H5      18.733022   19.934041   23.261224 H          1 MOL1         0.0786
       9    C4      20.586065   18.737297   22.873642 C.3        1 MOL1        -0.1768
      10    H6      20.899797   17.688055   22.808458 H          1 MOL1         0.0829
      11    H7      21.138196   19.220306   23.687162 H          1 MOL1         0.0829
      12    O1      18.296209   17.922456   23.492640 O.3        1 MOL1        -0.5515
      13    H8      17.350626   18.090482   23.290543 H          1 MOL1         0.3773
@<TRIPOS>BOND
    1     1     2    1
    2     1     3    1
    3     1     4    1
    4     4     5    1
    5     4     6    1
    6     4     7    1
    7     7     8    1
    8     1     9    1
    9     7     9    1
   10     9    10    1
   11     9    11    1
   12     7    12    1
   13    12    13    1
@<TRIPOS>SUBSTRUCTURE
       1 MOL1            1 RESIDUE      1      MOL     
@<SCITEGIC>MOL_PROPERTY
VConf Rank
SciTegic.value.IntegerValue
167

@<SCITEGIC>MOL_PROPERTY
Conf_Id
SciTegic.value.IntegerValue
19

@<SCITEGIC>MOL_PROPERTY
Delta U+W
SciTegic.value.DoubleValue
-0.011

@<SCITEGIC>MOL_PROPERTY
U+W
SciTegic.value.DoubleValue
-3.142

@<SCITEGIC>MOL_PROPERTY
Grad RMS
SciTegic.value.DoubleValue
0.000000

@<SCITEGIC>MOL_PROPERTY
U
SciTegic.value.DoubleValue
-0.154

@<SCITEGIC>MOL_PROPERTY
W
SciTegic.value.DoubleValue
-2.989

@<SCITEGIC>MOL_PROPERTY
W(PB)
SciTegic.value.DoubleValue
-4.588

@<SCITEGIC>MOL_PROPERTY
W(SA)
SciTegic.value.DoubleValue
1.599

@<SCITEGIC>MOL_PROPERTY
Valence
SciTegic.value.DoubleValue
6.334

@<SCITEGIC>MOL_PROPERTY
Coulomb
SciTegic.value.DoubleValue
-7.439

@<SCITEGIC>MOL_PROPERTY
VdW
SciTegic.value.DoubleValue
0.951

@<SCITEGIC>MOL_PROPERTY
VdW6
SciTegic.value.DoubleValue
-2.120

@<SCITEGIC>MOL_PROPERTY
VdW12
SciTegic.value.DoubleValue
3.072

@<SCITEGIC>MOL_PROPERTY
Bond
SciTegic.value.DoubleValue
0.065

@<SCITEGIC>MOL_PROPERTY
Angle
SciTegic.value.DoubleValue
0.930

@<SCITEGIC>MOL_PROPERTY
Pdih
SciTegic.value.DoubleValue
5.339

@<SCITEGIC>MOL_PROPERTY
Idih
SciTegic.value.DoubleValue
0.000

@<SCITEGIC>MOL_PROPERTY
Tether
SciTegic.value.DoubleValue
0.000

@<TRIPOS>MOLECULE
guest-s16_confgen4.mol2 : confsearch ligand conformer 168
          13          13           1
SMALL
USER_CHARGES
 
@<TRIPOS>ATOM
       1    C1      19.985241   18.209826   23.105406 C.3        1 MOL1        -0.1693
       2    H1      20.178612   18.015289   24.166886 H          1 MOL1         0.0829
       3    H2      20.094067   17.268840   22.550511 H          1 MOL1         0.0829
       4    C2      20.745924   19.425259   22.478464 C.3        1 MOL1        -0.1768
       5    H3      20.949659   20.244624   23.178392 H          1 MOL1         0.0829
       6    H4      21.669051   19.188288   21.938026 H          1 MOL1         0.0829
       7    C3      19.478508   19.640379   21.593699 C.3        1 MOL1         0.1211
       8    H5      19.239361   20.691224   21.385502 H          1 MOL1         0.0786
       9    C4      18.681183   19.010620   22.778509 C.3        1 MOL1        -0.1768
      10    H6      17.805970   18.411722   22.503418 H          1 MOL1         0.0829
      11    H7      18.384070   19.729379   23.551867 H          1 MOL1         0.0829
      12    O1      19.456371   18.892417   20.394447 O.3        1 MOL1        -0.5515
      13    H8      18.553671   18.971832   20.018972 H          1 MOL1         0.3773
@<TRIPOS>BOND
    1     1     2    1
    2     1     3    1
    3     1     4    1
    4     4     5    1
    5     4     6    1
    6     4     7    1
    7     7     8    1
    8     1     9    1
    9     7     9    1
   10     9    10    1
   11     9    11    1
   12     7    12    1
   13    12    13    1
@<TRIPOS>SUBSTRUCTURE
       1 MOL1            1 RESIDUE      1      MOL     
@<SCITEGIC>MOL_PROPERTY
VConf Rank
SciTegic.value.IntegerValue
168

@<SCITEGIC>MOL_PROPERTY
Conf_Id
SciTegic.value.IntegerValue
20

@<SCITEGIC>MOL_PROPERTY
Delta U+W
SciTegic.value.DoubleValue
1.030

@<SCITEGIC>MOL_PROPERTY
U+W
SciTegic.value.DoubleValue
-2.101

@<SCITEGIC>MOL_PROPERTY
Grad RMS
SciTegic.value.DoubleValue
0.000000

@<SCITEGIC>MOL_PROPERTY
U
SciTegic.value.DoubleValue
0.841

@<SCITEGIC>MOL_PROPERTY
W
SciTegic.value.DoubleValue
-2.942

@<SCITEGIC>MOL_PROPERTY
W(PB)
SciTegic.value.DoubleValue
-4.530

@<SCITEGIC>MOL_PROPERTY
W(SA)
SciTegic.value.DoubleValue
1.587

@<SCITEGIC>MOL_PROPERTY
Valence
SciTegic.value.DoubleValue
6.736

@<SCITEGIC>MOL_PROPERTY
Coulomb
SciTegic.value.DoubleValue
-7.246

@<SCITEGIC>MOL_PROPERTY
VdW
SciTegic.value.DoubleValue
1.352

@<SCITEGIC>MOL_PROPERTY
VdW6
SciTegic.value.DoubleValue
-2.500

@<SCITEGIC>MOL_PROPERTY
VdW12
SciTegic.value.DoubleValue
3.851

@<SCITEGIC>MOL_PROPERTY
Bond
SciTegic.value.DoubleValue
0.063

@<SCITEGIC>MOL_PROPERTY
Angle
SciTegic.value.DoubleValue
0.687

@<SCITEGIC>MOL_PROPERTY
Pdih
SciTegic.value.DoubleValue
5.986

@<SCITEGIC>MOL_PROPERTY
Idih
SciTegic.value.DoubleValue
0.000

@<SCITEGIC>MOL_PROPERTY
Tether
SciTegic.value.DoubleValue
0.000

@<TRIPOS>MOLECULE
guest-s16_confgen4.mol2 : confsearch ligand conformer 169
          13          13           1
SMALL
USER_CHARGES
 
@<TRIPOS>ATOM
       1    C1      20.638811   18.521245   23.024850 C.3        1 MOL1        -0.1693
       2    H1      21.685683   18.530995   22.693741 H          1 MOL1         0.0829
       3    H2      20.597588   18.116528   24.043146 H          1 MOL1         0.0829
       4    C2      19.633883   17.902163   21.998100 C.3        1 MOL1        -0.1768
       5    H3      20.022900   17.092449   21.370947 H          1 MOL1         0.0829
       6    H4      18.676687   17.584322   22.429540 H          1 MOL1         0.0829
       7    C3      19.619941   19.317130   21.344777 C.3        1 MOL1         0.1211
       8    H5      20.455896   19.496036   20.654947 H          1 MOL1         0.0786
       9    C4      19.864639   19.859397   22.785340 C.3        1 MOL1        -0.1768
      10    H6      18.959020   19.979021   23.392739 H          1 MOL1         0.0829
      11    H7      20.457446   20.778219   22.853440 H          1 MOL1         0.0829
      12    O1      18.400065   19.698360   20.754536 O.3        1 MOL1        -0.5515
      13    H8      17.696044   19.516971   21.411934 H          1 MOL1         0.3773
@<TRIPOS>BOND
    1     1     2    1
    2     1     3    1
    3     1     4    1
    4     4     5    1
    5     4     6    1
    6     4     7    1
    7     7     8    1
    8     1     9    1
    9     7     9    1
   10     9    10    1
   11     9    11    1
   12     7    12    1
   13    12    13    1
@<TRIPOS>SUBSTRUCTURE
       1 MOL1            1 RESIDUE      1      MOL     
@<SCITEGIC>MOL_PROPERTY
VConf Rank
SciTegic.value.IntegerValue
169

@<SCITEGIC>MOL_PROPERTY
Conf_Id
SciTegic.value.IntegerValue
24

@<SCITEGIC>MOL_PROPERTY
Delta U+W
SciTegic.value.DoubleValue
0.356

@<SCITEGIC>MOL_PROPERTY
U+W
SciTegic.value.DoubleValue
-2.775

@<SCITEGIC>MOL_PROPERTY
Grad RMS
SciTegic.value.DoubleValue
0.000000

@<SCITEGIC>MOL_PROPERTY
U
SciTegic.value.DoubleValue
-0.184

@<SCITEGIC>MOL_PROPERTY
W
SciTegic.value.DoubleValue
-2.591

@<SCITEGIC>MOL_PROPERTY
W(PB)
SciTegic.value.DoubleValue
-4.184

@<SCITEGIC>MOL_PROPERTY
W(SA)
SciTegic.value.DoubleValue
1.593

@<SCITEGIC>MOL_PROPERTY
Valence
SciTegic.value.DoubleValue
6.840

@<SCITEGIC>MOL_PROPERTY
Coulomb
SciTegic.value.DoubleValue
-7.916

@<SCITEGIC>MOL_PROPERTY
VdW
SciTegic.value.DoubleValue
0.893

@<SCITEGIC>MOL_PROPERTY
VdW6
SciTegic.value.DoubleValue
-2.167

@<SCITEGIC>MOL_PROPERTY
VdW12
SciTegic.value.DoubleValue
3.060

@<SCITEGIC>MOL_PROPERTY
Bond
SciTegic.value.DoubleValue
0.059

@<SCITEGIC>MOL_PROPERTY
Angle
SciTegic.value.DoubleValue
0.918

@<SCITEGIC>MOL_PROPERTY
Pdih
SciTegic.value.DoubleValue
5.862

@<SCITEGIC>MOL_PROPERTY
Idih
SciTegic.value.DoubleValue
0.000

@<SCITEGIC>MOL_PROPERTY
Tether
SciTegic.value.DoubleValue
0.000

@<TRIPOS>MOLECULE
guest-s16_confgen4.mol2 : confsearch ligand conformer 170
          13          13           1
SMALL
USER_CHARGES
 
@<TRIPOS>ATOM
       1    C1      19.854556   20.062018   21.988276 C.3        1 MOL1        -0.1693
       2    H1      20.341352   20.990807   22.308828 H          1 MOL1         0.0829
       3    H2      19.284660   20.267393   21.073215 H          1 MOL1         0.0829
       4    C2      19.065537   19.285827   23.095125 C.3        1 MOL1        -0.1768
       5    H3      19.470057   19.404350   24.107711 H          1 MOL1         0.0829
       6    H4      17.984215   19.459777   23.129664 H          1 MOL1         0.0829
       7    C3      19.523285   17.979237   22.375902 C.3        1 MOL1         0.1211
       8    H5      19.741562   17.137222   23.045121 H          1 MOL1         0.0786
       9    C4      20.772645   18.795979   21.921998 C.3        1 MOL1        -0.1768
      10    H6      21.595722   18.794400   22.646950 H          1 MOL1         0.0829
      11    H7      21.177216   18.543560   20.935431 H          1 MOL1         0.0829
      12    O1      18.680389   17.555278   21.326372 O.3        1 MOL1        -0.5515
      13    H8      18.520662   18.342124   20.765414 H          1 MOL1         0.3773
@<TRIPOS>BOND
    1     1     2    1
    2     1     3    1
    3     1     4    1
    4     4     5    1
    5     4     6    1
    6     4     7    1
    7     7     8    1
    8     1     9    1
    9     7     9    1
   10     9    10    1
   11     9    11    1
   12     7    12    1
   13    12    13    1
@<TRIPOS>SUBSTRUCTURE
       1 MOL1            1 RESIDUE      1      MOL     
@<SCITEGIC>MOL_PROPERTY
VConf Rank
SciTegic.value.IntegerValue
170

@<SCITEGIC>MOL_PROPERTY
Conf_Id
SciTegic.value.IntegerValue
44

@<SCITEGIC>MOL_PROPERTY
Delta U+W
SciTegic.value.DoubleValue
0.823

@<SCITEGIC>MOL_PROPERTY
U+W
SciTegic.value.DoubleValue
-2.308

@<SCITEGIC>MOL_PROPERTY
Grad RMS
SciTegic.value.DoubleValue
0.000000

@<SCITEGIC>MOL_PROPERTY
U
SciTegic.value.DoubleValue
0.039

@<SCITEGIC>MOL_PROPERTY
W
SciTegic.value.DoubleValue
-2.348

@<SCITEGIC>MOL_PROPERTY
W(PB)
SciTegic.value.DoubleValue
-3.918

@<SCITEGIC>MOL_PROPERTY
W(SA)
SciTegic.value.DoubleValue
1.571

@<SCITEGIC>MOL_PROPERTY
Valence
SciTegic.value.DoubleValue
7.320

@<SCITEGIC>MOL_PROPERTY
Coulomb
SciTegic.value.DoubleValue
-8.530

@<SCITEGIC>MOL_PROPERTY
VdW
SciTegic.value.DoubleValue
1.249

@<SCITEGIC>MOL_PROPERTY
VdW6
SciTegic.value.DoubleValue
-2.615

@<SCITEGIC>MOL_PROPERTY
VdW12
SciTegic.value.DoubleValue
3.864

@<SCITEGIC>MOL_PROPERTY
Bond
SciTegic.value.DoubleValue
0.056

@<SCITEGIC>MOL_PROPERTY
Angle
SciTegic.value.DoubleValue
0.694

@<SCITEGIC>MOL_PROPERTY
Pdih
SciTegic.value.DoubleValue
6.570

@<SCITEGIC>MOL_PROPERTY
Idih
SciTegic.value.DoubleValue
0.000

@<SCITEGIC>MOL_PROPERTY
Tether
SciTegic.value.DoubleValue
0.000

@<TRIPOS>MOLECULE
guest-s16_confgen4.mol2 : confsearch ligand conformer 171
          13          13           1
SMALL
USER_CHARGES
 
@<TRIPOS>ATOM
       1    C1      20.105222   20.175645   22.764376 C.3        1 MOL1        -0.1693
       2    H1      21.130307   20.426201   22.461049 H          1 MOL1         0.0829
       3    H2      19.714811   20.990085   23.386152 H          1 MOL1         0.0829
       4    C2      19.926334   18.729827   23.334390 C.3        1 MOL1        -0.1768
       5    H3      20.779169   18.317999   23.884873 H          1 MOL1         0.0829
       6    H4      19.016621   18.579235   23.928805 H          1 MOL1         0.0829
       7    C3      19.804475   18.288562   21.844664 C.3        1 MOL1         0.1211
       8    H5      20.772239   18.139435   21.346411 H          1 MOL1         0.0786
       9    C4      19.177290   19.694340   21.600496 C.3        1 MOL1        -0.1768
      10    H6      19.367434   20.138245   20.617152 H          1 MOL1         0.0829
      11    H7      18.103142   19.757718   21.814932 H          1 MOL1         0.0829
      12    O1      18.946568   17.196474   21.608266 O.3        1 MOL1        -0.5515
      13    H8      18.829115   17.124140   20.636578 H          1 MOL1         0.3773
@<TRIPOS>BOND
    1     1     2    1
    2     1     3    1
    3     1     4    1
    4     4     5    1
    5     4     6    1
    6     4     7    1
    7     7     8    1
    8     1     9    1
    9     7     9    1
   10     9    10    1
   11     9    11    1
   12     7    12    1
   13    12    13    1
@<TRIPOS>SUBSTRUCTURE
       1 MOL1            1 RESIDUE      1      MOL     
@<SCITEGIC>MOL_PROPERTY
VConf Rank
SciTegic.value.IntegerValue
171

@<SCITEGIC>MOL_PROPERTY
Conf_Id
SciTegic.value.IntegerValue
22

@<SCITEGIC>MOL_PROPERTY
Delta U+W
SciTegic.value.DoubleValue
0.000

@<SCITEGIC>MOL_PROPERTY
U+W
SciTegic.value.DoubleValue
-3.131

@<SCITEGIC>MOL_PROPERTY
Grad RMS
SciTegic.value.DoubleValue
0.000000

@<SCITEGIC>MOL_PROPERTY
U
SciTegic.value.DoubleValue
-0.154

@<SCITEGIC>MOL_PROPERTY
W
SciTegic.value.DoubleValue
-2.978

@<SCITEGIC>MOL_PROPERTY
W(PB)
SciTegic.value.DoubleValue
-4.579

@<SCITEGIC>MOL_PROPERTY
W(SA)
SciTegic.value.DoubleValue
1.601

@<SCITEGIC>MOL_PROPERTY
Valence
SciTegic.value.DoubleValue
6.333

@<SCITEGIC>MOL_PROPERTY
Coulomb
SciTegic.value.DoubleValue
-7.439

@<SCITEGIC>MOL_PROPERTY
VdW
SciTegic.value.DoubleValue
0.952

@<SCITEGIC>MOL_PROPERTY
VdW6
SciTegic.value.DoubleValue
-2.120

@<SCITEGIC>MOL_PROPERTY
VdW12
SciTegic.value.DoubleValue
3.072

@<SCITEGIC>MOL_PROPERTY
Bond
SciTegic.value.DoubleValue
0.065

@<SCITEGIC>MOL_PROPERTY
Angle
SciTegic.value.DoubleValue
0.931

@<SCITEGIC>MOL_PROPERTY
Pdih
SciTegic.value.DoubleValue
5.338

@<SCITEGIC>MOL_PROPERTY
Idih
SciTegic.value.DoubleValue
0.000

@<SCITEGIC>MOL_PROPERTY
Tether
SciTegic.value.DoubleValue
0.000

@<TRIPOS>MOLECULE
guest-s16_confgen4.mol2 : confsearch ligand conformer 172
          13          13           1
SMALL
USER_CHARGES
 
@<TRIPOS>ATOM
       1    C1      19.064115   20.083897   22.529486 C.3        1 MOL1        -0.1693
       2    H1      19.695585   20.739412   23.143596 H          1 MOL1         0.0829
       3    H2      18.098528   20.577932   22.368523 H          1 MOL1         0.0829
       4    C2      19.003174   18.596262   23.009651 C.3        1 MOL1        -0.1768
       5    H3      18.149331   18.025105   22.624262 H          1 MOL1         0.0829
       6    H4      19.076194   18.435125   24.090797 H          1 MOL1         0.0829
       7    C3      20.324008   18.409408   22.203626 C.3        1 MOL1         0.1211
       8    H5      21.226891   18.714426   22.750277 H          1 MOL1         0.0786
       9    C4      19.763307   19.509908   21.253175 C.3        1 MOL1        -0.1768
      10    H6      19.077986   19.137816   20.481509 H          1 MOL1         0.0829
      11    H7      20.510466   20.155718   20.779208 H          1 MOL1         0.0829
      12    O1      20.498505   17.139947   21.618330 O.3        1 MOL1        -0.5515
      13    H8      20.694010   16.509425   22.344570 H          1 MOL1         0.3773
@<TRIPOS>BOND
    1     1     2    1
    2     1     3    1
    3     1     4    1
    4     4     5    1
    5     4     6    1
    6     4     7    1
    7     7     8    1
    8     1     9    1
    9     7     9    1
   10     9    10    1
   11     9    11    1
   12     7    12    1
   13    12    13    1
@<TRIPOS>SUBSTRUCTURE
       1 MOL1            1 RESIDUE      1      MOL     
@<SCITEGIC>MOL_PROPERTY
VConf Rank
SciTegic.value.IntegerValue
172

@<SCITEGIC>MOL_PROPERTY
Conf_Id
SciTegic.value.IntegerValue
19

@<SCITEGIC>MOL_PROPERTY
Delta U+W
SciTegic.value.DoubleValue
-0.011

@<SCITEGIC>MOL_PROPERTY
U+W
SciTegic.value.DoubleValue
-3.142

@<SCITEGIC>MOL_PROPERTY
Grad RMS
SciTegic.value.DoubleValue
0.000000

@<SCITEGIC>MOL_PROPERTY
U
SciTegic.value.DoubleValue
-0.154

@<SCITEGIC>MOL_PROPERTY
W
SciTegic.value.DoubleValue
-2.989

@<SCITEGIC>MOL_PROPERTY
W(PB)
SciTegic.value.DoubleValue
-4.588

@<SCITEGIC>MOL_PROPERTY
W(SA)
SciTegic.value.DoubleValue
1.599

@<SCITEGIC>MOL_PROPERTY
Valence
SciTegic.value.DoubleValue
6.334

@<SCITEGIC>MOL_PROPERTY
Coulomb
SciTegic.value.DoubleValue
-7.439

@<SCITEGIC>MOL_PROPERTY
VdW
SciTegic.value.DoubleValue
0.951

@<SCITEGIC>MOL_PROPERTY
VdW6
SciTegic.value.DoubleValue
-2.120

@<SCITEGIC>MOL_PROPERTY
VdW12
SciTegic.value.DoubleValue
3.072

@<SCITEGIC>MOL_PROPERTY
Bond
SciTegic.value.DoubleValue
0.065

@<SCITEGIC>MOL_PROPERTY
Angle
SciTegic.value.DoubleValue
0.930

@<SCITEGIC>MOL_PROPERTY
Pdih
SciTegic.value.DoubleValue
5.339

@<SCITEGIC>MOL_PROPERTY
Idih
SciTegic.value.DoubleValue
0.000

@<SCITEGIC>MOL_PROPERTY
Tether
SciTegic.value.DoubleValue
0.000

@<TRIPOS>MOLECULE
guest-s16_confgen4.mol2 : confsearch ligand conformer 173
          13          13           1
SMALL
USER_CHARGES
 
@<TRIPOS>ATOM
       1    C1      19.693665   18.890879   23.499855 C.3        1 MOL1        -0.1693
       2    H1      19.136037   18.599220   24.397609 H          1 MOL1         0.0829
       3    H2      20.743495   19.054189   23.776251 H          1 MOL1         0.0829
       4    C2      19.062980   20.035652   22.639214 C.3        1 MOL1        -0.1768
       5    H3      17.967208   20.073093   22.664661 H          1 MOL1         0.0829
       6    H4      19.452382   21.043700   22.819764 H          1 MOL1         0.0829
       7    C3      19.648760   19.295038   21.396725 C.3        1 MOL1         0.1211
       8    H5      19.021234   19.344093   20.497493 H          1 MOL1         0.0786
       9    C4      19.486039   17.990026   22.237296 C.3        1 MOL1        -0.1768
      10    H6      20.241950   17.214612   22.070909 H          1 MOL1         0.0829
      11    H7      18.492495   17.530985   22.165689 H          1 MOL1         0.0829
      12    O1      20.982374   19.635967   21.075188 O.3        1 MOL1        -0.5515
      13    H8      21.293069   18.992240   20.403445 H          1 MOL1         0.3773
@<TRIPOS>BOND
    1     1     2    1
    2     1     3    1
    3     1     4    1
    4     4     5    1
    5     4     6    1
    6     4     7    1
    7     7     8    1
    8     1     9    1
    9     7     9    1
   10     9    10    1
   11     9    11    1
   12     7    12    1
   13    12    13    1
@<TRIPOS>SUBSTRUCTURE
       1 MOL1            1 RESIDUE      1      MOL     
@<SCITEGIC>MOL_PROPERTY
VConf Rank
SciTegic.value.IntegerValue
173

@<SCITEGIC>MOL_PROPERTY
Conf_Id
SciTegic.value.IntegerValue
20

@<SCITEGIC>MOL_PROPERTY
Delta U+W
SciTegic.value.DoubleValue
1.030

@<SCITEGIC>MOL_PROPERTY
U+W
SciTegic.value.DoubleValue
-2.101

@<SCITEGIC>MOL_PROPERTY
Grad RMS
SciTegic.value.DoubleValue
0.000000

@<SCITEGIC>MOL_PROPERTY
U
SciTegic.value.DoubleValue
0.841

@<SCITEGIC>MOL_PROPERTY
W
SciTegic.value.DoubleValue
-2.942

@<SCITEGIC>MOL_PROPERTY
W(PB)
SciTegic.value.DoubleValue
-4.530

@<SCITEGIC>MOL_PROPERTY
W(SA)
SciTegic.value.DoubleValue
1.587

@<SCITEGIC>MOL_PROPERTY
Valence
SciTegic.value.DoubleValue
6.736

@<SCITEGIC>MOL_PROPERTY
Coulomb
SciTegic.value.DoubleValue
-7.246

@<SCITEGIC>MOL_PROPERTY
VdW
SciTegic.value.DoubleValue
1.352

@<SCITEGIC>MOL_PROPERTY
VdW6
SciTegic.value.DoubleValue
-2.500

@<SCITEGIC>MOL_PROPERTY
VdW12
SciTegic.value.DoubleValue
3.851

@<SCITEGIC>MOL_PROPERTY
Bond
SciTegic.value.DoubleValue
0.063

@<SCITEGIC>MOL_PROPERTY
Angle
SciTegic.value.DoubleValue
0.687

@<SCITEGIC>MOL_PROPERTY
Pdih
SciTegic.value.DoubleValue
5.986

@<SCITEGIC>MOL_PROPERTY
Idih
SciTegic.value.DoubleValue
0.000

@<SCITEGIC>MOL_PROPERTY
Tether
SciTegic.value.DoubleValue
0.000

@<TRIPOS>MOLECULE
guest-s16_confgen4.mol2 : confsearch ligand conformer 174
          13          13           1
SMALL
USER_CHARGES
 
@<TRIPOS>ATOM
       1    C1      20.639310   18.456669   21.437812 C.3        1 MOL1        -0.1693
       2    H1      20.508251   17.420748   21.098163 H          1 MOL1         0.0829
       3    H2      21.566489   18.851919   21.005912 H          1 MOL1         0.0829
       4    C2      20.452808   18.668978   22.976480 C.3        1 MOL1        -0.1768
       5    H3      20.755069   17.834272   23.618505 H          1 MOL1         0.0829
       6    H4      20.896523   19.592698   23.367949 H          1 MOL1         0.0829
       7    C3      18.930336   18.758851   22.655297 C.3        1 MOL1         0.1211
       8    H5      18.435476   17.781633   22.572519 H          1 MOL1         0.0786
       9    C4      19.371024   19.359946   21.286490 C.3        1 MOL1        -0.1768
      10    H6      19.572947   20.438105   21.300225 H          1 MOL1         0.0829
      11    H7      18.717904   19.135472   20.435998 H          1 MOL1         0.0829
      12    O1      18.187808   19.621799   23.483422 O.3        1 MOL1        -0.5515
      13    H8      18.674656   20.471748   23.519263 H          1 MOL1         0.3773
@<TRIPOS>BOND
    1     1     2    1
    2     1     3    1
    3     1     4    1
    4     4     5    1
    5     4     6    1
    6     4     7    1
    7     7     8    1
    8     1     9    1
    9     7     9    1
   10     9    10    1
   11     9    11    1
   12     7    12    1
   13    12    13    1
@<TRIPOS>SUBSTRUCTURE
       1 MOL1            1 RESIDUE      1      MOL     
@<SCITEGIC>MOL_PROPERTY
VConf Rank
SciTegic.value.IntegerValue
174

@<SCITEGIC>MOL_PROPERTY
Conf_Id
SciTegic.value.IntegerValue
24

@<SCITEGIC>MOL_PROPERTY
Delta U+W
SciTegic.value.DoubleValue
0.356

@<SCITEGIC>MOL_PROPERTY
U+W
SciTegic.value.DoubleValue
-2.775

@<SCITEGIC>MOL_PROPERTY
Grad RMS
SciTegic.value.DoubleValue
0.000000

@<SCITEGIC>MOL_PROPERTY
U
SciTegic.value.DoubleValue
-0.184

@<SCITEGIC>MOL_PROPERTY
W
SciTegic.value.DoubleValue
-2.591

@<SCITEGIC>MOL_PROPERTY
W(PB)
SciTegic.value.DoubleValue
-4.184

@<SCITEGIC>MOL_PROPERTY
W(SA)
SciTegic.value.DoubleValue
1.593

@<SCITEGIC>MOL_PROPERTY
Valence
SciTegic.value.DoubleValue
6.840

@<SCITEGIC>MOL_PROPERTY
Coulomb
SciTegic.value.DoubleValue
-7.916

@<SCITEGIC>MOL_PROPERTY
VdW
SciTegic.value.DoubleValue
0.893

@<SCITEGIC>MOL_PROPERTY
VdW6
SciTegic.value.DoubleValue
-2.167

@<SCITEGIC>MOL_PROPERTY
VdW12
SciTegic.value.DoubleValue
3.060

@<SCITEGIC>MOL_PROPERTY
Bond
SciTegic.value.DoubleValue
0.059

@<SCITEGIC>MOL_PROPERTY
Angle
SciTegic.value.DoubleValue
0.918

@<SCITEGIC>MOL_PROPERTY
Pdih
SciTegic.value.DoubleValue
5.862

@<SCITEGIC>MOL_PROPERTY
Idih
SciTegic.value.DoubleValue
0.000

@<SCITEGIC>MOL_PROPERTY
Tether
SciTegic.value.DoubleValue
0.000

@<TRIPOS>MOLECULE
guest-s16_confgen4.mol2 : confsearch ligand conformer 175
          13          13           1
SMALL
USER_CHARGES
 
@<TRIPOS>ATOM
       1    C1      19.276938   19.888538   22.709370 C.3        1 MOL1        -0.1693
       2    H1      19.463798   20.930808   22.994204 H          1 MOL1         0.0829
       3    H2      18.269249   19.612814   23.045279 H          1 MOL1         0.0829
       4    C2      20.399570   18.864675   23.085587 C.3        1 MOL1        -0.1768
       5    H3      21.412166   19.286027   23.096865 H          1 MOL1         0.0829
       6    H4      20.247387   18.299415   24.011887 H          1 MOL1         0.0829
       7    C3      20.035139   18.119346   21.764350 C.3        1 MOL1         0.1211
       8    H5      20.886955   17.667238   21.240428 H          1 MOL1         0.0786
       9    C4      19.600486   19.516759   21.223694 C.3        1 MOL1        -0.1768
      10    H6      20.417157   20.097993   20.778464 H          1 MOL1         0.0829
      11    H7      18.752769   19.519084   20.529375 H          1 MOL1         0.0829
      12    O1      18.988859   17.179865   21.884364 O.3        1 MOL1        -0.5515
      13    H8      18.261385   17.635411   22.356142 H          1 MOL1         0.3773
@<TRIPOS>BOND
    1     1     2    1
    2     1     3    1
    3     1     4    1
    4     4     5    1
    5     4     6    1
    6     4     7    1
    7     7     8    1
    8     1     9    1
    9     7     9    1
   10     9    10    1
   11     9    11    1
   12     7    12    1
   13    12    13    1
@<TRIPOS>SUBSTRUCTURE
       1 MOL1            1 RESIDUE      1      MOL     
@<SCITEGIC>MOL_PROPERTY
VConf Rank
SciTegic.value.IntegerValue
175

@<SCITEGIC>MOL_PROPERTY
Conf_Id
SciTegic.value.IntegerValue
44

@<SCITEGIC>MOL_PROPERTY
Delta U+W
SciTegic.value.DoubleValue
0.823

@<SCITEGIC>MOL_PROPERTY
U+W
SciTegic.value.DoubleValue
-2.308

@<SCITEGIC>MOL_PROPERTY
Grad RMS
SciTegic.value.DoubleValue
0.000000

@<SCITEGIC>MOL_PROPERTY
U
SciTegic.value.DoubleValue
0.039

@<SCITEGIC>MOL_PROPERTY
W
SciTegic.value.DoubleValue
-2.348

@<SCITEGIC>MOL_PROPERTY
W(PB)
SciTegic.value.DoubleValue
-3.918

@<SCITEGIC>MOL_PROPERTY
W(SA)
SciTegic.value.DoubleValue
1.571

@<SCITEGIC>MOL_PROPERTY
Valence
SciTegic.value.DoubleValue
7.320

@<SCITEGIC>MOL_PROPERTY
Coulomb
SciTegic.value.DoubleValue
-8.530

@<SCITEGIC>MOL_PROPERTY
VdW
SciTegic.value.DoubleValue
1.249

@<SCITEGIC>MOL_PROPERTY
VdW6
SciTegic.value.DoubleValue
-2.615

@<SCITEGIC>MOL_PROPERTY
VdW12
SciTegic.value.DoubleValue
3.864

@<SCITEGIC>MOL_PROPERTY
Bond
SciTegic.value.DoubleValue
0.056

@<SCITEGIC>MOL_PROPERTY
Angle
SciTegic.value.DoubleValue
0.694

@<SCITEGIC>MOL_PROPERTY
Pdih
SciTegic.value.DoubleValue
6.570

@<SCITEGIC>MOL_PROPERTY
Idih
SciTegic.value.DoubleValue
0.000

@<SCITEGIC>MOL_PROPERTY
Tether
SciTegic.value.DoubleValue
0.000

@<TRIPOS>MOLECULE
guest-s16_confgen4.mol2 : confsearch ligand conformer 176
          13          13           1
SMALL
USER_CHARGES
 
@<TRIPOS>ATOM
       1    C1      19.510517   20.323640   21.971679 C.3        1 MOL1        -0.1693
       2    H1      20.011198   20.634802   21.045351 H          1 MOL1         0.0829
       3    H2      18.967778   21.183317   22.382443 H          1 MOL1         0.0829
       4    C2      20.419779   19.541534   22.976099 C.3        1 MOL1        -0.1768
       5    H3      21.478211   19.823432   22.990765 H          1 MOL1         0.0829
       6    H4      20.047559   19.513999   24.007738 H          1 MOL1         0.0829
       7    C3      20.065476   18.282824   22.128180 C.3        1 MOL1         0.1211
       8    H5      20.688332   18.163578   21.231022 H          1 MOL1         0.0786
       9    C4      18.701757   18.989009   21.862161 C.3        1 MOL1        -0.1768
      10    H6      18.238886   18.783971   20.890625 H          1 MOL1         0.0829
      11    H7      17.951316   18.842228   22.648983 H          1 MOL1         0.0829
      12    O1      19.988121   17.074185   22.847731 O.3        1 MOL1        -0.5515
      13    H8      19.603796   16.401390   22.245365 H          1 MOL1         0.3773
@<TRIPOS>BOND
    1     1     2    1
    2     1     3    1
    3     1     4    1
    4     4     5    1
    5     4     6    1
    6     4     7    1
    7     7     8    1
    8     1     9    1
    9     7     9    1
   10     9    10    1
   11     9    11    1
   12     7    12    1
   13    12    13    1
@<TRIPOS>SUBSTRUCTURE
       1 MOL1            1 RESIDUE      1      MOL     
@<SCITEGIC>MOL_PROPERTY
VConf Rank
SciTegic.value.IntegerValue
176

@<SCITEGIC>MOL_PROPERTY
Conf_Id
SciTegic.value.IntegerValue
22

@<SCITEGIC>MOL_PROPERTY
Delta U+W
SciTegic.value.DoubleValue
0.000

@<SCITEGIC>MOL_PROPERTY
U+W
SciTegic.value.DoubleValue
-3.131

@<SCITEGIC>MOL_PROPERTY
Grad RMS
SciTegic.value.DoubleValue
0.000000

@<SCITEGIC>MOL_PROPERTY
U
SciTegic.value.DoubleValue
-0.154

@<SCITEGIC>MOL_PROPERTY
W
SciTegic.value.DoubleValue
-2.978

@<SCITEGIC>MOL_PROPERTY
W(PB)
SciTegic.value.DoubleValue
-4.579

@<SCITEGIC>MOL_PROPERTY
W(SA)
SciTegic.value.DoubleValue
1.601

@<SCITEGIC>MOL_PROPERTY
Valence
SciTegic.value.DoubleValue
6.333

@<SCITEGIC>MOL_PROPERTY
Coulomb
SciTegic.value.DoubleValue
-7.439

@<SCITEGIC>MOL_PROPERTY
VdW
SciTegic.value.DoubleValue
0.952

@<SCITEGIC>MOL_PROPERTY
VdW6
SciTegic.value.DoubleValue
-2.120

@<SCITEGIC>MOL_PROPERTY
VdW12
SciTegic.value.DoubleValue
3.072

@<SCITEGIC>MOL_PROPERTY
Bond
SciTegic.value.DoubleValue
0.065

@<SCITEGIC>MOL_PROPERTY
Angle
SciTegic.value.DoubleValue
0.931

@<SCITEGIC>MOL_PROPERTY
Pdih
SciTegic.value.DoubleValue
5.338

@<SCITEGIC>MOL_PROPERTY
Idih
SciTegic.value.DoubleValue
0.000

@<SCITEGIC>MOL_PROPERTY
Tether
SciTegic.value.DoubleValue
0.000

@<TRIPOS>MOLECULE
guest-s16_confgen4.mol2 : confsearch ligand conformer 177
          13          13           1
SMALL
USER_CHARGES
 
@<TRIPOS>ATOM
       1    C1      20.027903   17.837925   22.877750 C.3        1 MOL1        -0.1693
       2    H1      19.199482   17.217007   23.243491 H          1 MOL1         0.0829
       3    H2      20.973531   17.384654   23.198173 H          1 MOL1         0.0829
       4    C2      19.870798   19.369265   23.156399 C.3        1 MOL1        -0.1768
       5    H3      20.804134   19.943280   23.099966 H          1 MOL1         0.0829
       6    H4      19.345345   19.640163   24.078725 H          1 MOL1         0.0829
       7    C3      19.015217   19.394720   21.853891 C.3        1 MOL1         0.1211
       8    H5      17.967538   19.099310   22.002761 H          1 MOL1         0.0786
       9    C4      19.932435   18.232619   21.366986 C.3        1 MOL1        -0.1768
      10    H6      20.878086   18.558437   20.916241 H          1 MOL1         0.0829
      11    H7      19.460502   17.499054   20.704323 H          1 MOL1         0.0829
      12    O1      19.097895   20.582863   21.101540 O.3        1 MOL1        -0.5515
      13    H8      18.609233   21.275082   21.596763 H          1 MOL1         0.3773
@<TRIPOS>BOND
    1     1     2    1
    2     1     3    1
    3     1     4    1
    4     4     5    1
    5     4     6    1
    6     4     7    1
    7     7     8    1
    8     1     9    1
    9     7     9    1
   10     9    10    1
   11     9    11    1
   12     7    12    1
   13    12    13    1
@<TRIPOS>SUBSTRUCTURE
       1 MOL1            1 RESIDUE      1      MOL     
@<SCITEGIC>MOL_PROPERTY
VConf Rank
SciTegic.value.IntegerValue
177

@<SCITEGIC>MOL_PROPERTY
Conf_Id
SciTegic.value.IntegerValue
19

@<SCITEGIC>MOL_PROPERTY
Delta U+W
SciTegic.value.DoubleValue
-0.011

@<SCITEGIC>MOL_PROPERTY
U+W
SciTegic.value.DoubleValue
-3.142

@<SCITEGIC>MOL_PROPERTY
Grad RMS
SciTegic.value.DoubleValue
0.000000

@<SCITEGIC>MOL_PROPERTY
U
SciTegic.value.DoubleValue
-0.154

@<SCITEGIC>MOL_PROPERTY
W
SciTegic.value.DoubleValue
-2.989

@<SCITEGIC>MOL_PROPERTY
W(PB)
SciTegic.value.DoubleValue
-4.588

@<SCITEGIC>MOL_PROPERTY
W(SA)
SciTegic.value.DoubleValue
1.599

@<SCITEGIC>MOL_PROPERTY
Valence
SciTegic.value.DoubleValue
6.334

@<SCITEGIC>MOL_PROPERTY
Coulomb
SciTegic.value.DoubleValue
-7.439

@<SCITEGIC>MOL_PROPERTY
VdW
SciTegic.value.DoubleValue
0.951

@<SCITEGIC>MOL_PROPERTY
VdW6
SciTegic.value.DoubleValue
-2.120

@<SCITEGIC>MOL_PROPERTY
VdW12
SciTegic.value.DoubleValue
3.072

@<SCITEGIC>MOL_PROPERTY
Bond
SciTegic.value.DoubleValue
0.065

@<SCITEGIC>MOL_PROPERTY
Angle
SciTegic.value.DoubleValue
0.930

@<SCITEGIC>MOL_PROPERTY
Pdih
SciTegic.value.DoubleValue
5.339

@<SCITEGIC>MOL_PROPERTY
Idih
SciTegic.value.DoubleValue
0.000

@<SCITEGIC>MOL_PROPERTY
Tether
SciTegic.value.DoubleValue
0.000

@<TRIPOS>MOLECULE
guest-s16_confgen4.mol2 : confsearch ligand conformer 178
          13          13           1
SMALL
USER_CHARGES
 
@<TRIPOS>ATOM
       1    C1      20.352599   18.175249   22.756816 C.3        1 MOL1        -0.1693
       2    H1      20.371875   17.237749   23.324882 H          1 MOL1         0.0829
       3    H2      21.373983   18.407765   22.428307 H          1 MOL1         0.0829
       4    C2      19.597865   19.371074   23.427153 C.3        1 MOL1        -0.1768
       5    H3      18.757230   19.077151   24.067237 H          1 MOL1         0.0829
       6    H4      20.220905   20.087509   23.973902 H          1 MOL1         0.0829
       7    C3      19.184334   19.795631   21.983486 C.3        1 MOL1         0.1211
       8    H5      18.179599   20.230567   21.905062 H          1 MOL1         0.0786
       9    C4      19.268757   18.277104   21.632711 C.3        1 MOL1        -0.1768
      10    H6      19.605041   18.036907   20.618033 H          1 MOL1         0.0829
      11    H7      18.348178   17.717231   21.837774 H          1 MOL1         0.0829
      12    O1      20.120365   20.616263   21.313744 O.3        1 MOL1        -0.5515
      13    H8      19.840957   20.669496   20.374993 H          1 MOL1         0.3773
@<TRIPOS>BOND
    1     1     2    1
    2     1     3    1
    3     1     4    1
    4     4     5    1
    5     4     6    1
    6     4     7    1
    7     7     8    1
    8     1     9    1
    9     7     9    1
   10     9    10    1
   11     9    11    1
   12     7    12    1
   13    12    13    1
@<TRIPOS>SUBSTRUCTURE
       1 MOL1            1 RESIDUE      1      MOL     
@<SCITEGIC>MOL_PROPERTY
VConf Rank
SciTegic.value.IntegerValue
178

@<SCITEGIC>MOL_PROPERTY
Conf_Id
SciTegic.value.IntegerValue
20

@<SCITEGIC>MOL_PROPERTY
Delta U+W
SciTegic.value.DoubleValue
1.030

@<SCITEGIC>MOL_PROPERTY
U+W
SciTegic.value.DoubleValue
-2.101

@<SCITEGIC>MOL_PROPERTY
Grad RMS
SciTegic.value.DoubleValue
0.000000

@<SCITEGIC>MOL_PROPERTY
U
SciTegic.value.DoubleValue
0.841

@<SCITEGIC>MOL_PROPERTY
W
SciTegic.value.DoubleValue
-2.942

@<SCITEGIC>MOL_PROPERTY
W(PB)
SciTegic.value.DoubleValue
-4.530

@<SCITEGIC>MOL_PROPERTY
W(SA)
SciTegic.value.DoubleValue
1.587

@<SCITEGIC>MOL_PROPERTY
Valence
SciTegic.value.DoubleValue
6.736

@<SCITEGIC>MOL_PROPERTY
Coulomb
SciTegic.value.DoubleValue
-7.246

@<SCITEGIC>MOL_PROPERTY
VdW
SciTegic.value.DoubleValue
1.352

@<SCITEGIC>MOL_PROPERTY
VdW6
SciTegic.value.DoubleValue
-2.500

@<SCITEGIC>MOL_PROPERTY
VdW12
SciTegic.value.DoubleValue
3.851

@<SCITEGIC>MOL_PROPERTY
Bond
SciTegic.value.DoubleValue
0.063

@<SCITEGIC>MOL_PROPERTY
Angle
SciTegic.value.DoubleValue
0.687

@<SCITEGIC>MOL_PROPERTY
Pdih
SciTegic.value.DoubleValue
5.986

@<SCITEGIC>MOL_PROPERTY
Idih
SciTegic.value.DoubleValue
0.000

@<SCITEGIC>MOL_PROPERTY
Tether
SciTegic.value.DoubleValue
0.000

@<TRIPOS>MOLECULE
guest-s16_confgen4.mol2 : confsearch ligand conformer 179
          13          13           1
SMALL
USER_CHARGES
 
@<TRIPOS>ATOM
       1    C1      18.812974   18.094246   22.031141 C.3        1 MOL1        -0.1693
       2    H1      18.929228   17.102676   22.488245 H          1 MOL1         0.0829
       3    H2      17.859994   18.120276   21.489318 H          1 MOL1         0.0829
       4    C2      20.065487   18.602135   21.243350 C.3        1 MOL1        -0.1768
       5    H3      20.668686   17.832745   20.748898 H          1 MOL1         0.0829
       6    H4      19.859136   19.403979   20.523729 H          1 MOL1         0.0829
       7    C3      20.588908   19.085217   22.629646 C.3        1 MOL1         0.1211
       8    H5      21.083109   18.298932   23.216345 H          1 MOL1         0.0786
       9    C4      19.088412   19.295151   22.995152 C.3        1 MOL1        -0.1768
      10    H6      18.663672   20.251892   22.667081 H          1 MOL1         0.0829
      11    H7      18.828706   19.137802   24.047809 H          1 MOL1         0.0829
      12    O1      21.374306   20.253288   22.605616 O.3        1 MOL1        -0.5515
      13    H8      20.885984   20.914499   22.071706 H          1 MOL1         0.3773
@<TRIPOS>BOND
    1     1     2    1
    2     1     3    1
    3     1     4    1
    4     4     5    1
    5     4     6    1
    6     4     7    1
    7     7     8    1
    8     1     9    1
    9     7     9    1
   10     9    10    1
   11     9    11    1
   12     7    12    1
   13    12    13    1
@<TRIPOS>SUBSTRUCTURE
       1 MOL1            1 RESIDUE      1      MOL     
@<SCITEGIC>MOL_PROPERTY
VConf Rank
SciTegic.value.IntegerValue
179

@<SCITEGIC>MOL_PROPERTY
Conf_Id
SciTegic.value.IntegerValue
24

@<SCITEGIC>MOL_PROPERTY
Delta U+W
SciTegic.value.DoubleValue
0.356

@<SCITEGIC>MOL_PROPERTY
U+W
SciTegic.value.DoubleValue
-2.775

@<SCITEGIC>MOL_PROPERTY
Grad RMS
SciTegic.value.DoubleValue
0.000000

@<SCITEGIC>MOL_PROPERTY
U
SciTegic.value.DoubleValue
-0.184

@<SCITEGIC>MOL_PROPERTY
W
SciTegic.value.DoubleValue
-2.591

@<SCITEGIC>MOL_PROPERTY
W(PB)
SciTegic.value.DoubleValue
-4.184

@<SCITEGIC>MOL_PROPERTY
W(SA)
SciTegic.value.DoubleValue
1.593

@<SCITEGIC>MOL_PROPERTY
Valence
SciTegic.value.DoubleValue
6.840

@<SCITEGIC>MOL_PROPERTY
Coulomb
SciTegic.value.DoubleValue
-7.916

@<SCITEGIC>MOL_PROPERTY
VdW
SciTegic.value.DoubleValue
0.893

@<SCITEGIC>MOL_PROPERTY
VdW6
SciTegic.value.DoubleValue
-2.167

@<SCITEGIC>MOL_PROPERTY
VdW12
SciTegic.value.DoubleValue
3.060

@<SCITEGIC>MOL_PROPERTY
Bond
SciTegic.value.DoubleValue
0.059

@<SCITEGIC>MOL_PROPERTY
Angle
SciTegic.value.DoubleValue
0.918

@<SCITEGIC>MOL_PROPERTY
Pdih
SciTegic.value.DoubleValue
5.862

@<SCITEGIC>MOL_PROPERTY
Idih
SciTegic.value.DoubleValue
0.000

@<SCITEGIC>MOL_PROPERTY
Tether
SciTegic.value.DoubleValue
0.000

@<TRIPOS>MOLECULE
guest-s16_confgen4.mol2 : confsearch ligand conformer 180
          13          13           1
SMALL
USER_CHARGES
 
@<TRIPOS>ATOM
       1    C1      20.610548   18.531174   22.690289 C.3        1 MOL1        -0.1693
       2    H1      21.701643   18.432884   22.643123 H          1 MOL1         0.0829
       3    H2      20.249985   17.975019   23.564921 H          1 MOL1         0.0829
       4    C2      19.839119   18.238620   21.360084 C.3        1 MOL1        -0.1768
       5    H3      20.400155   18.478198   20.448571 H          1 MOL1         0.0829
       6    H4      19.419700   17.231646   21.256155 H          1 MOL1         0.0829
       7    C3      18.839192   19.351332   21.802815 C.3        1 MOL1         0.1211
       8    H5      18.435923   19.960706   20.983960 H          1 MOL1         0.0786
       9    C4      20.048281   19.985934   22.557388 C.3        1 MOL1        -0.1768
      10    H6      20.660601   20.653928   21.939437 H          1 MOL1         0.0829
      11    H7      19.810922   20.499850   23.495609 H          1 MOL1         0.0829
      12    O1      17.789816   18.906614   22.635138 O.3        1 MOL1        -0.5515
      13    H8      18.205973   18.372066   23.342517 H          1 MOL1         0.3773
@<TRIPOS>BOND
    1     1     2    1
    2     1     3    1
    3     1     4    1
    4     4     5    1
    5     4     6    1
    6     4     7    1
    7     7     8    1
    8     1     9    1
    9     7     9    1
   10     9    10    1
   11     9    11    1
   12     7    12    1
   13    12    13    1
@<TRIPOS>SUBSTRUCTURE
       1 MOL1            1 RESIDUE      1      MOL     
@<SCITEGIC>MOL_PROPERTY
VConf Rank
SciTegic.value.IntegerValue
180

@<SCITEGIC>MOL_PROPERTY
Conf_Id
SciTegic.value.IntegerValue
44

@<SCITEGIC>MOL_PROPERTY
Delta U+W
SciTegic.value.DoubleValue
0.823

@<SCITEGIC>MOL_PROPERTY
U+W
SciTegic.value.DoubleValue
-2.308

@<SCITEGIC>MOL_PROPERTY
Grad RMS
SciTegic.value.DoubleValue
0.000000

@<SCITEGIC>MOL_PROPERTY
U
SciTegic.value.DoubleValue
0.039

@<SCITEGIC>MOL_PROPERTY
W
SciTegic.value.DoubleValue
-2.348

@<SCITEGIC>MOL_PROPERTY
W(PB)
SciTegic.value.DoubleValue
-3.918

@<SCITEGIC>MOL_PROPERTY
W(SA)
SciTegic.value.DoubleValue
1.571

@<SCITEGIC>MOL_PROPERTY
Valence
SciTegic.value.DoubleValue
7.320

@<SCITEGIC>MOL_PROPERTY
Coulomb
SciTegic.value.DoubleValue
-8.530

@<SCITEGIC>MOL_PROPERTY
VdW
SciTegic.value.DoubleValue
1.249

@<SCITEGIC>MOL_PROPERTY
VdW6
SciTegic.value.DoubleValue
-2.615

@<SCITEGIC>MOL_PROPERTY
VdW12
SciTegic.value.DoubleValue
3.864

@<SCITEGIC>MOL_PROPERTY
Bond
SciTegic.value.DoubleValue
0.056

@<SCITEGIC>MOL_PROPERTY
Angle
SciTegic.value.DoubleValue
0.694

@<SCITEGIC>MOL_PROPERTY
Pdih
SciTegic.value.DoubleValue
6.570

@<SCITEGIC>MOL_PROPERTY
Idih
SciTegic.value.DoubleValue
0.000

@<SCITEGIC>MOL_PROPERTY
Tether
SciTegic.value.DoubleValue
0.000

@<TRIPOS>MOLECULE
guest-s16_confgen4.mol2 : confsearch ligand conformer 181
          13          13           1
SMALL
USER_CHARGES
 
@<TRIPOS>ATOM
       1    C1      19.991083   18.010498   23.003621 C.3        1 MOL1        -0.1693
       2    H1      20.035080   17.062299   22.451745 H          1 MOL1         0.0829
       3    H2      20.287585   17.825140   24.042884 H          1 MOL1         0.0829
       4    C2      18.671044   18.825134   22.800711 C.3        1 MOL1        -0.1768
       5    H3      17.759907   18.238057   22.642183 H          1 MOL1         0.0829
       6    H4      18.474243   19.581072   23.571045 H          1 MOL1         0.0829
       7    C3      19.353537   19.377906   21.513275 C.3        1 MOL1         0.1211
       8    H5      19.260563   18.713970   20.642868 H          1 MOL1         0.0786
       9    C4      20.693041   19.214599   22.293181 C.3        1 MOL1        -0.1768
      10    H6      21.572373   18.970811   21.686951 H          1 MOL1         0.0829
      11    H7      20.941266   20.054780   22.953691 H          1 MOL1         0.0829
      12    O1      19.012460   20.701347   21.171639 O.3        1 MOL1        -0.5515
      13    H8      19.620546   20.982293   20.454350 H          1 MOL1         0.3773
@<TRIPOS>BOND
    1     1     2    1
    2     1     3    1
    3     1     4    1
    4     4     5    1
    5     4     6    1
    6     4     7    1
    7     7     8    1
    8     1     9    1
    9     7     9    1
   10     9    10    1
   11     9    11    1
   12     7    12    1
   13    12    13    1
@<TRIPOS>SUBSTRUCTURE
       1 MOL1            1 RESIDUE      1      MOL     
@<SCITEGIC>MOL_PROPERTY
VConf Rank
SciTegic.value.IntegerValue
181

@<SCITEGIC>MOL_PROPERTY
Conf_Id
SciTegic.value.IntegerValue
22

@<SCITEGIC>MOL_PROPERTY
Delta U+W
SciTegic.value.DoubleValue
0.000

@<SCITEGIC>MOL_PROPERTY
U+W
SciTegic.value.DoubleValue
-3.131

@<SCITEGIC>MOL_PROPERTY
Grad RMS
SciTegic.value.DoubleValue
0.000000

@<SCITEGIC>MOL_PROPERTY
U
SciTegic.value.DoubleValue
-0.154

@<SCITEGIC>MOL_PROPERTY
W
SciTegic.value.DoubleValue
-2.978

@<SCITEGIC>MOL_PROPERTY
W(PB)
SciTegic.value.DoubleValue
-4.579

@<SCITEGIC>MOL_PROPERTY
W(SA)
SciTegic.value.DoubleValue
1.601

@<SCITEGIC>MOL_PROPERTY
Valence
SciTegic.value.DoubleValue
6.333

@<SCITEGIC>MOL_PROPERTY
Coulomb
SciTegic.value.DoubleValue
-7.439

@<SCITEGIC>MOL_PROPERTY
VdW
SciTegic.value.DoubleValue
0.952

@<SCITEGIC>MOL_PROPERTY
VdW6
SciTegic.value.DoubleValue
-2.120

@<SCITEGIC>MOL_PROPERTY
VdW12
SciTegic.value.DoubleValue
3.072

@<SCITEGIC>MOL_PROPERTY
Bond
SciTegic.value.DoubleValue
0.065

@<SCITEGIC>MOL_PROPERTY
Angle
SciTegic.value.DoubleValue
0.931

@<SCITEGIC>MOL_PROPERTY
Pdih
SciTegic.value.DoubleValue
5.338

@<SCITEGIC>MOL_PROPERTY
Idih
SciTegic.value.DoubleValue
0.000

@<SCITEGIC>MOL_PROPERTY
Tether
SciTegic.value.DoubleValue
0.000

@<TRIPOS>MOLECULE
guest-s16_confgen4.mol2 : confsearch ligand conformer 182
          13          13           1
SMALL
USER_CHARGES
 
@<TRIPOS>ATOM
       1    C1      20.811248   19.476115   22.041962 C.3        1 MOL1        -0.1693
       2    H1      20.760737   20.433387   21.506551 H          1 MOL1         0.0829
       3    H2      21.864978   19.224635   22.211517 H          1 MOL1         0.0829
       4    C2      19.922486   18.339844   21.436717 C.3        1 MOL1        -0.1768
       5    H3      20.204347   17.324993   21.744003 H          1 MOL1         0.0829
       6    H4      19.793779   18.356030   20.348900 H          1 MOL1         0.0829
       7    C3      18.764273   18.969862   22.267869 C.3        1 MOL1         0.1211
       8    H5      18.279397   19.826141   21.779257 H          1 MOL1         0.0786
       9    C4      19.871238   19.372924   23.288171 C.3        1 MOL1        -0.1768
      10    H6      20.139599   18.584705   24.002508 H          1 MOL1         0.0829
      11    H7      19.695027   20.302991   23.839429 H          1 MOL1         0.0829
      12    O1      17.803681   18.059128   22.749921 O.3        1 MOL1        -0.5515
      13    H8      17.271309   17.763627   21.980205 H          1 MOL1         0.3773
@<TRIPOS>BOND
    1     1     2    1
    2     1     3    1
    3     1     4    1
    4     4     5    1
    5     4     6    1
    6     4     7    1
    7     7     8    1
    8     1     9    1
    9     7     9    1
   10     9    10    1
   11     9    11    1
   12     7    12    1
   13    12    13    1
@<TRIPOS>SUBSTRUCTURE
       1 MOL1            1 RESIDUE      1      MOL     
@<SCITEGIC>MOL_PROPERTY
VConf Rank
SciTegic.value.IntegerValue
182

@<SCITEGIC>MOL_PROPERTY
Conf_Id
SciTegic.value.IntegerValue
19

@<SCITEGIC>MOL_PROPERTY
Delta U+W
SciTegic.value.DoubleValue
-0.011

@<SCITEGIC>MOL_PROPERTY
U+W
SciTegic.value.DoubleValue
-3.142

@<SCITEGIC>MOL_PROPERTY
Grad RMS
SciTegic.value.DoubleValue
0.000000

@<SCITEGIC>MOL_PROPERTY
U
SciTegic.value.DoubleValue
-0.154

@<SCITEGIC>MOL_PROPERTY
W
SciTegic.value.DoubleValue
-2.989

@<SCITEGIC>MOL_PROPERTY
W(PB)
SciTegic.value.DoubleValue
-4.588

@<SCITEGIC>MOL_PROPERTY
W(SA)
SciTegic.value.DoubleValue
1.599

@<SCITEGIC>MOL_PROPERTY
Valence
SciTegic.value.DoubleValue
6.334

@<SCITEGIC>MOL_PROPERTY
Coulomb
SciTegic.value.DoubleValue
-7.439

@<SCITEGIC>MOL_PROPERTY
VdW
SciTegic.value.DoubleValue
0.951

@<SCITEGIC>MOL_PROPERTY
VdW6
SciTegic.value.DoubleValue
-2.120

@<SCITEGIC>MOL_PROPERTY
VdW12
SciTegic.value.DoubleValue
3.072

@<SCITEGIC>MOL_PROPERTY
Bond
SciTegic.value.DoubleValue
0.065

@<SCITEGIC>MOL_PROPERTY
Angle
SciTegic.value.DoubleValue
0.930

@<SCITEGIC>MOL_PROPERTY
Pdih
SciTegic.value.DoubleValue
5.339

@<SCITEGIC>MOL_PROPERTY
Idih
SciTegic.value.DoubleValue
0.000

@<SCITEGIC>MOL_PROPERTY
Tether
SciTegic.value.DoubleValue
0.000

@<TRIPOS>MOLECULE
guest-s16_confgen4.mol2 : confsearch ligand conformer 183
          13          13           1
SMALL
USER_CHARGES
 
@<TRIPOS>ATOM
       1    C1      19.425129   18.709636   23.444848 C.3        1 MOL1        -0.1693
       2    H1      19.485198   19.012693   24.496763 H          1 MOL1         0.0829
       3    H2      18.935605   17.728559   23.389537 H          1 MOL1         0.0829
       4    C2      20.749788   18.822012   22.619243 C.3        1 MOL1        -0.1768
       5    H3      21.419229   19.629019   22.940730 H          1 MOL1         0.0829
       6    H4      21.334223   17.900668   22.519477 H          1 MOL1         0.0829
       7    C3      19.847099   19.187665   21.399866 C.3        1 MOL1         0.1211
       8    H5      20.282383   19.925816   20.713957 H          1 MOL1         0.0786
       9    C4      18.856435   19.777195   22.452071 C.3        1 MOL1        -0.1768
      10    H6      17.791417   19.689291   22.210491 H          1 MOL1         0.0829
      11    H7      19.066599   20.816214   22.733576 H          1 MOL1         0.0829
      12    O1      19.355237   18.080949   20.670897 O.3        1 MOL1        -0.5515
      13    H8      18.673345   18.419980   20.052644 H          1 MOL1         0.3773
@<TRIPOS>BOND
    1     1     2    1
    2     1     3    1
    3     1     4    1
    4     4     5    1
    5     4     6    1
    6     4     7    1
    7     7     8    1
    8     1     9    1
    9     7     9    1
   10     9    10    1
   11     9    11    1
   12     7    12    1
   13    12    13    1
@<TRIPOS>SUBSTRUCTURE
       1 MOL1            1 RESIDUE      1      MOL     
@<SCITEGIC>MOL_PROPERTY
VConf Rank
SciTegic.value.IntegerValue
183

@<SCITEGIC>MOL_PROPERTY
Conf_Id
SciTegic.value.IntegerValue
20

@<SCITEGIC>MOL_PROPERTY
Delta U+W
SciTegic.value.DoubleValue
1.030

@<SCITEGIC>MOL_PROPERTY
U+W
SciTegic.value.DoubleValue
-2.101

@<SCITEGIC>MOL_PROPERTY
Grad RMS
SciTegic.value.DoubleValue
0.000000

@<SCITEGIC>MOL_PROPERTY
U
SciTegic.value.DoubleValue
0.841

@<SCITEGIC>MOL_PROPERTY
W
SciTegic.value.DoubleValue
-2.942

@<SCITEGIC>MOL_PROPERTY
W(PB)
SciTegic.value.DoubleValue
-4.530

@<SCITEGIC>MOL_PROPERTY
W(SA)
SciTegic.value.DoubleValue
1.587

@<SCITEGIC>MOL_PROPERTY
Valence
SciTegic.value.DoubleValue
6.736

@<SCITEGIC>MOL_PROPERTY
Coulomb
SciTegic.value.DoubleValue
-7.246

@<SCITEGIC>MOL_PROPERTY
VdW
SciTegic.value.DoubleValue
1.352

@<SCITEGIC>MOL_PROPERTY
VdW6
SciTegic.value.DoubleValue
-2.500

@<SCITEGIC>MOL_PROPERTY
VdW12
SciTegic.value.DoubleValue
3.851

@<SCITEGIC>MOL_PROPERTY
Bond
SciTegic.value.DoubleValue
0.063

@<SCITEGIC>MOL_PROPERTY
Angle
SciTegic.value.DoubleValue
0.687

@<SCITEGIC>MOL_PROPERTY
Pdih
SciTegic.value.DoubleValue
5.986

@<SCITEGIC>MOL_PROPERTY
Idih
SciTegic.value.DoubleValue
0.000

@<SCITEGIC>MOL_PROPERTY
Tether
SciTegic.value.DoubleValue
0.000

@<TRIPOS>MOLECULE
guest-s16_confgen4.mol2 : confsearch ligand conformer 184
          13          13           1
SMALL
USER_CHARGES
 
@<TRIPOS>ATOM
       1    C1      19.574625   17.879580   21.533718 C.3        1 MOL1        -0.1693
       2    H1      19.971926   16.941646   21.943718 H          1 MOL1         0.0829
       3    H2      19.090042   17.664430   20.573868 H          1 MOL1         0.0829
       4    C2      20.582829   19.075748   21.541680 C.3        1 MOL1        -0.1768
       5    H3      21.638901   18.817096   21.407131 H          1 MOL1         0.0829
       6    H4      20.329924   19.891820   20.853601 H          1 MOL1         0.0829
       7    C3      20.122005   19.294538   23.014408 C.3        1 MOL1         0.1211
       8    H5      20.637715   18.652256   23.741188 H          1 MOL1         0.0786
       9    C4      18.744413   18.736016   22.545954 C.3        1 MOL1        -0.1768
      10    H6      18.080599   19.476154   22.082343 H          1 MOL1         0.0829
      11    H7      18.176883   18.177332   23.298333 H          1 MOL1         0.0829
      12    O1      20.114367   20.632236   23.452954 O.3        1 MOL1        -0.5515
      13    H8      19.644373   21.153983   22.769138 H          1 MOL1         0.3773
@<TRIPOS>BOND
    1     1     2    1
    2     1     3    1
    3     1     4    1
    4     4     5    1
    5     4     6    1
    6     4     7    1
    7     7     8    1
    8     1     9    1
    9     7     9    1
   10     9    10    1
   11     9    11    1
   12     7    12    1
   13    12    13    1
@<TRIPOS>SUBSTRUCTURE
       1 MOL1            1 RESIDUE      1      MOL     
@<SCITEGIC>MOL_PROPERTY
VConf Rank
SciTegic.value.IntegerValue
184

@<SCITEGIC>MOL_PROPERTY
Conf_Id
SciTegic.value.IntegerValue
24

@<SCITEGIC>MOL_PROPERTY
Delta U+W
SciTegic.value.DoubleValue
0.356

@<SCITEGIC>MOL_PROPERTY
U+W
SciTegic.value.DoubleValue
-2.775

@<SCITEGIC>MOL_PROPERTY
Grad RMS
SciTegic.value.DoubleValue
0.000000

@<SCITEGIC>MOL_PROPERTY
U
SciTegic.value.DoubleValue
-0.184

@<SCITEGIC>MOL_PROPERTY
W
SciTegic.value.DoubleValue
-2.591

@<SCITEGIC>MOL_PROPERTY
W(PB)
SciTegic.value.DoubleValue
-4.184

@<SCITEGIC>MOL_PROPERTY
W(SA)
SciTegic.value.DoubleValue
1.593

@<SCITEGIC>MOL_PROPERTY
Valence
SciTegic.value.DoubleValue
6.840

@<SCITEGIC>MOL_PROPERTY
Coulomb
SciTegic.value.DoubleValue
-7.916

@<SCITEGIC>MOL_PROPERTY
VdW
SciTegic.value.DoubleValue
0.893

@<SCITEGIC>MOL_PROPERTY
VdW6
SciTegic.value.DoubleValue
-2.167

@<SCITEGIC>MOL_PROPERTY
VdW12
SciTegic.value.DoubleValue
3.060

@<SCITEGIC>MOL_PROPERTY
Bond
SciTegic.value.DoubleValue
0.059

@<SCITEGIC>MOL_PROPERTY
Angle
SciTegic.value.DoubleValue
0.918

@<SCITEGIC>MOL_PROPERTY
Pdih
SciTegic.value.DoubleValue
5.862

@<SCITEGIC>MOL_PROPERTY
Idih
SciTegic.value.DoubleValue
0.000

@<SCITEGIC>MOL_PROPERTY
Tether
SciTegic.value.DoubleValue
0.000

@<TRIPOS>MOLECULE
guest-s16_confgen4.mol2 : confsearch ligand conformer 185
          13          13           1
SMALL
USER_CHARGES
 
@<TRIPOS>ATOM
       1    C1      20.737476   18.656184   21.932321 C.3        1 MOL1        -0.1693
       2    H1      21.456418   17.829121   21.894106 H          1 MOL1         0.0829
       3    H2      21.225471   19.557915   21.541121 H          1 MOL1         0.0829
       4    C2      19.989529   18.850190   23.293598 C.3        1 MOL1        -0.1768
       5    H3      19.833420   17.924619   23.861016 H          1 MOL1         0.0829
       6    H4      20.403948   19.606936   23.969099 H          1 MOL1         0.0829
       7    C3      18.756028   19.293662   22.447549 C.3        1 MOL1         0.1211
       8    H5      17.783947   18.987572   22.854801 H          1 MOL1         0.0786
       9    C4      19.322136   18.360651   21.332646 C.3        1 MOL1        -0.1768
      10    H6      19.002393   17.315053   21.419268 H          1 MOL1         0.0829
      11    H7      19.155646   18.691294   20.301305 H          1 MOL1         0.0829
      12    O1      18.729272   20.664793   22.114365 O.3        1 MOL1        -0.5515
      13    H8      19.616171   20.879981   21.758813 H          1 MOL1         0.3773
@<TRIPOS>BOND
    1     1     2    1
    2     1     3    1
    3     1     4    1
    4     4     5    1
    5     4     6    1
    6     4     7    1
    7     7     8    1
    8     1     9    1
    9     7     9    1
   10     9    10    1
   11     9    11    1
   12     7    12    1
   13    12    13    1
@<TRIPOS>SUBSTRUCTURE
       1 MOL1            1 RESIDUE      1      MOL     
@<SCITEGIC>MOL_PROPERTY
VConf Rank
SciTegic.value.IntegerValue
185

@<SCITEGIC>MOL_PROPERTY
Conf_Id
SciTegic.value.IntegerValue
44

@<SCITEGIC>MOL_PROPERTY
Delta U+W
SciTegic.value.DoubleValue
0.823

@<SCITEGIC>MOL_PROPERTY
U+W
SciTegic.value.DoubleValue
-2.308

@<SCITEGIC>MOL_PROPERTY
Grad RMS
SciTegic.value.DoubleValue
0.000000

@<SCITEGIC>MOL_PROPERTY
U
SciTegic.value.DoubleValue
0.039

@<SCITEGIC>MOL_PROPERTY
W
SciTegic.value.DoubleValue
-2.348

@<SCITEGIC>MOL_PROPERTY
W(PB)
SciTegic.value.DoubleValue
-3.918

@<SCITEGIC>MOL_PROPERTY
W(SA)
SciTegic.value.DoubleValue
1.571

@<SCITEGIC>MOL_PROPERTY
Valence
SciTegic.value.DoubleValue
7.320

@<SCITEGIC>MOL_PROPERTY
Coulomb
SciTegic.value.DoubleValue
-8.530

@<SCITEGIC>MOL_PROPERTY
VdW
SciTegic.value.DoubleValue
1.249

@<SCITEGIC>MOL_PROPERTY
VdW6
SciTegic.value.DoubleValue
-2.615

@<SCITEGIC>MOL_PROPERTY
VdW12
SciTegic.value.DoubleValue
3.864

@<SCITEGIC>MOL_PROPERTY
Bond
SciTegic.value.DoubleValue
0.056

@<SCITEGIC>MOL_PROPERTY
Angle
SciTegic.value.DoubleValue
0.694

@<SCITEGIC>MOL_PROPERTY
Pdih
SciTegic.value.DoubleValue
6.570

@<SCITEGIC>MOL_PROPERTY
Idih
SciTegic.value.DoubleValue
0.000

@<SCITEGIC>MOL_PROPERTY
Tether
SciTegic.value.DoubleValue
0.000

@<TRIPOS>MOLECULE
guest-s16_confgen4.mol2 : confsearch ligand conformer 186
          13          13           1
SMALL
USER_CHARGES
 
@<TRIPOS>ATOM
       1    C1      19.646634   20.209024   22.865637 C.3        1 MOL1        -0.1693
       2    H1      18.634014   20.556125   23.109988 H          1 MOL1         0.0829
       3    H2      20.369949   20.930946   23.263107 H          1 MOL1         0.0829
       4    C2      19.850216   19.782720   21.374287 C.3        1 MOL1        -0.1768
       5    H3      19.261799   20.330323   20.630072 H          1 MOL1         0.0829
       6    H4      20.895843   19.751088   21.043758 H          1 MOL1         0.0829
       7    C3      19.270861   18.405011   21.816004 C.3        1 MOL1         0.1211
       8    H5      18.172881   18.372639   21.837322 H          1 MOL1         0.0786
       9    C4      19.921799   18.705725   23.199855 C.3        1 MOL1        -0.1768
      10    H6      19.397116   18.301904   24.072672 H          1 MOL1         0.0829
      11    H7      20.983722   18.439331   23.271604 H          1 MOL1         0.0829
      12    O1      19.791178   17.286710   21.135402 O.3        1 MOL1        -0.5515
      13    H8      19.476716   16.486362   21.608435 H          1 MOL1         0.3773
@<TRIPOS>BOND
    1     1     2    1
    2     1     3    1
    3     1     4    1
    4     4     5    1
    5     4     6    1
    6     4     7    1
    7     7     8    1
    8     1     9    1
    9     7     9    1
   10     9    10    1
   11     9    11    1
   12     7    12    1
   13    12    13    1
@<TRIPOS>SUBSTRUCTURE
       1 MOL1            1 RESIDUE      1      MOL     
@<SCITEGIC>MOL_PROPERTY
VConf Rank
SciTegic.value.IntegerValue
186

@<SCITEGIC>MOL_PROPERTY
Conf_Id
SciTegic.value.IntegerValue
22

@<SCITEGIC>MOL_PROPERTY
Delta U+W
SciTegic.value.DoubleValue
0.000

@<SCITEGIC>MOL_PROPERTY
U+W
SciTegic.value.DoubleValue
-3.131

@<SCITEGIC>MOL_PROPERTY
Grad RMS
SciTegic.value.DoubleValue
0.000000

@<SCITEGIC>MOL_PROPERTY
U
SciTegic.value.DoubleValue
-0.154

@<SCITEGIC>MOL_PROPERTY
W
SciTegic.value.DoubleValue
-2.978

@<SCITEGIC>MOL_PROPERTY
W(PB)
SciTegic.value.DoubleValue
-4.579

@<SCITEGIC>MOL_PROPERTY
W(SA)
SciTegic.value.DoubleValue
1.601

@<SCITEGIC>MOL_PROPERTY
Valence
SciTegic.value.DoubleValue
6.333

@<SCITEGIC>MOL_PROPERTY
Coulomb
SciTegic.value.DoubleValue
-7.439

@<SCITEGIC>MOL_PROPERTY
VdW
SciTegic.value.DoubleValue
0.952

@<SCITEGIC>MOL_PROPERTY
VdW6
SciTegic.value.DoubleValue
-2.120

@<SCITEGIC>MOL_PROPERTY
VdW12
SciTegic.value.DoubleValue
3.072

@<SCITEGIC>MOL_PROPERTY
Bond
SciTegic.value.DoubleValue
0.065

@<SCITEGIC>MOL_PROPERTY
Angle
SciTegic.value.DoubleValue
0.931

@<SCITEGIC>MOL_PROPERTY
Pdih
SciTegic.value.DoubleValue
5.338

@<SCITEGIC>MOL_PROPERTY
Idih
SciTegic.value.DoubleValue
0.000

@<SCITEGIC>MOL_PROPERTY
Tether
SciTegic.value.DoubleValue
0.000

@<TRIPOS>MOLECULE
guest-s16_confgen4.mol2 : confsearch ligand conformer 187
          13          13           1
SMALL
USER_CHARGES
 
@<TRIPOS>ATOM
       1    C1      19.134316   20.096568   22.599949 C.3        1 MOL1        -0.1693
       2    H1      19.118903   20.829490   21.782530 H          1 MOL1         0.0829
       3    H2      18.769382   20.582112   23.512862 H          1 MOL1         0.0829
       4    C2      20.470891   19.294963   22.735326 C.3        1 MOL1        -0.1768
       5    H3      20.621861   18.817532   23.711574 H          1 MOL1         0.0829
       6    H4      21.385258   19.831982   22.460161 H          1 MOL1         0.0829
       7    C3      19.877578   18.357304   21.640807 C.3        1 MOL1         0.1211
       8    H5      20.017680   18.724919   20.614994 H          1 MOL1         0.0786
       9    C4      18.489162   18.714542   22.251976 C.3        1 MOL1        -0.1768
      10    H6      18.205423   18.107772   23.120830 H          1 MOL1         0.0829
      11    H7      17.650171   18.735958   21.547991 H          1 MOL1         0.0829
      12    O1      20.249387   17.002272   21.741774 O.3        1 MOL1        -0.5515
      13    H8      21.192088   16.938968   21.476235 H          1 MOL1         0.3773
@<TRIPOS>BOND
    1     1     2    1
    2     1     3    1
    3     1     4    1
    4     4     5    1
    5     4     6    1
    6     4     7    1
    7     7     8    1
    8     1     9    1
    9     7     9    1
   10     9    10    1
   11     9    11    1
   12     7    12    1
   13    12    13    1
@<TRIPOS>SUBSTRUCTURE
       1 MOL1            1 RESIDUE      1      MOL     
@<SCITEGIC>MOL_PROPERTY
VConf Rank
SciTegic.value.IntegerValue
187

@<SCITEGIC>MOL_PROPERTY
Conf_Id
SciTegic.value.IntegerValue
19

@<SCITEGIC>MOL_PROPERTY
Delta U+W
SciTegic.value.DoubleValue
-0.011

@<SCITEGIC>MOL_PROPERTY
U+W
SciTegic.value.DoubleValue
-3.142

@<SCITEGIC>MOL_PROPERTY
Grad RMS
SciTegic.value.DoubleValue
0.000000

@<SCITEGIC>MOL_PROPERTY
U
SciTegic.value.DoubleValue
-0.154

@<SCITEGIC>MOL_PROPERTY
W
SciTegic.value.DoubleValue
-2.989

@<SCITEGIC>MOL_PROPERTY
W(PB)
SciTegic.value.DoubleValue
-4.588

@<SCITEGIC>MOL_PROPERTY
W(SA)
SciTegic.value.DoubleValue
1.599

@<SCITEGIC>MOL_PROPERTY
Valence
SciTegic.value.DoubleValue
6.334

@<SCITEGIC>MOL_PROPERTY
Coulomb
SciTegic.value.DoubleValue
-7.439

@<SCITEGIC>MOL_PROPERTY
VdW
SciTegic.value.DoubleValue
0.951

@<SCITEGIC>MOL_PROPERTY
VdW6
SciTegic.value.DoubleValue
-2.120

@<SCITEGIC>MOL_PROPERTY
VdW12
SciTegic.value.DoubleValue
3.072

@<SCITEGIC>MOL_PROPERTY
Bond
SciTegic.value.DoubleValue
0.065

@<SCITEGIC>MOL_PROPERTY
Angle
SciTegic.value.DoubleValue
0.930

@<SCITEGIC>MOL_PROPERTY
Pdih
SciTegic.value.DoubleValue
5.339

@<SCITEGIC>MOL_PROPERTY
Idih
SciTegic.value.DoubleValue
0.000

@<SCITEGIC>MOL_PROPERTY
Tether
SciTegic.value.DoubleValue
0.000

@<TRIPOS>MOLECULE
guest-s16_confgen4.mol2 : confsearch ligand conformer 188
          13          13           1
SMALL
USER_CHARGES
 
@<TRIPOS>ATOM
       1    C1      19.312658   18.207251   23.116159 C.3        1 MOL1        -0.1693
       2    H1      19.231586   17.985941   24.186872 H          1 MOL1         0.0829
       3    H2      18.893565   17.364684   22.550783 H          1 MOL1         0.0829
       4    C2      20.714904   18.690790   22.617291 C.3        1 MOL1        -0.1768
       5    H3      21.292056   19.255390   23.359508 H          1 MOL1         0.0829
       6    H4      21.362018   17.921663   22.181309 H          1 MOL1         0.0829
       7    C3      19.939333   19.582009   21.597660 C.3        1 MOL1         0.1211
       8    H5      20.405533   20.554515   21.393452 H          1 MOL1         0.0786
       9    C4      18.799114   19.614242   22.663003 C.3        1 MOL1        -0.1768
      10    H6      17.776704   19.648982   22.270800 H          1 MOL1         0.0829
      11    H7      18.911462   20.402857   23.416952 H          1 MOL1         0.0829
      12    O1      19.603809   18.941747   20.382904 O.3        1 MOL1        -0.5515
      13    H8      18.978944   19.529626   19.907408 H          1 MOL1         0.3773
@<TRIPOS>BOND
    1     1     2    1
    2     1     3    1
    3     1     4    1
    4     4     5    1
    5     4     6    1
    6     4     7    1
    7     7     8    1
    8     1     9    1
    9     7     9    1
   10     9    10    1
   11     9    11    1
   12     7    12    1
   13    12    13    1
@<TRIPOS>SUBSTRUCTURE
       1 MOL1            1 RESIDUE      1      MOL     
@<SCITEGIC>MOL_PROPERTY
VConf Rank
SciTegic.value.IntegerValue
188

@<SCITEGIC>MOL_PROPERTY
Conf_Id
SciTegic.value.IntegerValue
20

@<SCITEGIC>MOL_PROPERTY
Delta U+W
SciTegic.value.DoubleValue
1.030

@<SCITEGIC>MOL_PROPERTY
U+W
SciTegic.value.DoubleValue
-2.101

@<SCITEGIC>MOL_PROPERTY
Grad RMS
SciTegic.value.DoubleValue
0.000000

@<SCITEGIC>MOL_PROPERTY
U
SciTegic.value.DoubleValue
0.841

@<SCITEGIC>MOL_PROPERTY
W
SciTegic.value.DoubleValue
-2.942

@<SCITEGIC>MOL_PROPERTY
W(PB)
SciTegic.value.DoubleValue
-4.530

@<SCITEGIC>MOL_PROPERTY
W(SA)
SciTegic.value.DoubleValue
1.587

@<SCITEGIC>MOL_PROPERTY
Valence
SciTegic.value.DoubleValue
6.736

@<SCITEGIC>MOL_PROPERTY
Coulomb
SciTegic.value.DoubleValue
-7.246

@<SCITEGIC>MOL_PROPERTY
VdW
SciTegic.value.DoubleValue
1.352

@<SCITEGIC>MOL_PROPERTY
VdW6
SciTegic.value.DoubleValue
-2.500

@<SCITEGIC>MOL_PROPERTY
VdW12
SciTegic.value.DoubleValue
3.851

@<SCITEGIC>MOL_PROPERTY
Bond
SciTegic.value.DoubleValue
0.063

@<SCITEGIC>MOL_PROPERTY
Angle
SciTegic.value.DoubleValue
0.687

@<SCITEGIC>MOL_PROPERTY
Pdih
SciTegic.value.DoubleValue
5.986

@<SCITEGIC>MOL_PROPERTY
Idih
SciTegic.value.DoubleValue
0.000

@<SCITEGIC>MOL_PROPERTY
Tether
SciTegic.value.DoubleValue
0.000

@<TRIPOS>MOLECULE
guest-s16_confgen4.mol2 : confsearch ligand conformer 189
          13          13           1
SMALL
USER_CHARGES
 
@<TRIPOS>ATOM
       1    C1      20.270443   19.882632   21.501565 C.3        1 MOL1        -0.1693
       2    H1      21.315133   20.156400   21.699919 H          1 MOL1         0.0829
       3    H2      19.892781   20.510979   20.686106 H          1 MOL1         0.0829
       4    C2      19.365388   19.791125   22.774301 C.3        1 MOL1        -0.1768
       5    H3      19.611179   20.478606   23.591154 H          1 MOL1         0.0829
       6    H4      18.288351   19.851993   22.575118 H          1 MOL1         0.0829
       7    C3      19.924008   18.343136   22.917231 C.3        1 MOL1         0.1211
       8    H5      20.900640   18.291261   23.417422 H          1 MOL1         0.0786
       9    C4      20.012381   18.346061   21.361167 C.3        1 MOL1        -0.1768
      10    H6      19.079955   18.083940   20.846130 H          1 MOL1         0.0829
      11    H7      20.829564   17.757329   20.930007 H          1 MOL1         0.0829
      12    O1      19.033429   17.403557   23.470293 O.3        1 MOL1        -0.5515
      13    H8      18.185351   17.495820   22.987622 H          1 MOL1         0.3773
@<TRIPOS>BOND
    1     1     2    1
    2     1     3    1
    3     1     4    1
    4     4     5    1
    5     4     6    1
    6     4     7    1
    7     7     8    1
    8     1     9    1
    9     7     9    1
   10     9    10    1
   11     9    11    1
   12     7    12    1
   13    12    13    1
@<TRIPOS>SUBSTRUCTURE
       1 MOL1            1 RESIDUE      1      MOL     
@<SCITEGIC>MOL_PROPERTY
VConf Rank
SciTegic.value.IntegerValue
189

@<SCITEGIC>MOL_PROPERTY
Conf_Id
SciTegic.value.IntegerValue
24

@<SCITEGIC>MOL_PROPERTY
Delta U+W
SciTegic.value.DoubleValue
0.356

@<SCITEGIC>MOL_PROPERTY
U+W
SciTegic.value.DoubleValue
-2.775

@<SCITEGIC>MOL_PROPERTY
Grad RMS
SciTegic.value.DoubleValue
0.000000

@<SCITEGIC>MOL_PROPERTY
U
SciTegic.value.DoubleValue
-0.184

@<SCITEGIC>MOL_PROPERTY
W
SciTegic.value.DoubleValue
-2.591

@<SCITEGIC>MOL_PROPERTY
W(PB)
SciTegic.value.DoubleValue
-4.184

@<SCITEGIC>MOL_PROPERTY
W(SA)
SciTegic.value.DoubleValue
1.593

@<SCITEGIC>MOL_PROPERTY
Valence
SciTegic.value.DoubleValue
6.840

@<SCITEGIC>MOL_PROPERTY
Coulomb
SciTegic.value.DoubleValue
-7.916

@<SCITEGIC>MOL_PROPERTY
VdW
SciTegic.value.DoubleValue
0.893

@<SCITEGIC>MOL_PROPERTY
VdW6
SciTegic.value.DoubleValue
-2.167

@<SCITEGIC>MOL_PROPERTY
VdW12
SciTegic.value.DoubleValue
3.060

@<SCITEGIC>MOL_PROPERTY
Bond
SciTegic.value.DoubleValue
0.059

@<SCITEGIC>MOL_PROPERTY
Angle
SciTegic.value.DoubleValue
0.918

@<SCITEGIC>MOL_PROPERTY
Pdih
SciTegic.value.DoubleValue
5.862

@<SCITEGIC>MOL_PROPERTY
Idih
SciTegic.value.DoubleValue
0.000

@<SCITEGIC>MOL_PROPERTY
Tether
SciTegic.value.DoubleValue
0.000

@<TRIPOS>MOLECULE
guest-s16_confgen4.mol2 : confsearch ligand conformer 190
          13          13           1
SMALL
USER_CHARGES
 
@<TRIPOS>ATOM
       1    C1      19.875407   18.252895   23.056405 C.3        1 MOL1        -0.1693
       2    H1      19.625055   17.276934   23.489069 H          1 MOL1         0.0829
       3    H2      20.605945   18.745026   23.710942 H          1 MOL1         0.0829
       4    C2      18.661114   19.146596   22.635777 C.3        1 MOL1        -0.1768
       5    H3      17.774290   18.585523   22.316786 H          1 MOL1         0.0829
       6    H4      18.349306   19.909279   23.358133 H          1 MOL1         0.0829
       7    C3      19.554859   19.646987   21.458992 C.3        1 MOL1         0.1211
       8    H5      19.016747   19.842580   20.522688 H          1 MOL1         0.0786
       9    C4      20.248914   18.251888   21.536330 C.3        1 MOL1        -0.1768
      10    H6      19.751396   17.471445   20.947774 H          1 MOL1         0.0829
      11    H7      21.319150   18.235801   21.301714 H          1 MOL1         0.0829
      12    O1      20.389084   20.741016   21.773471 O.3        1 MOL1        -0.5515
      13    H8      20.840590   20.512001   22.611927 H          1 MOL1         0.3773
@<TRIPOS>BOND
    1     1     2    1
    2     1     3    1
    3     1     4    1
    4     4     5    1
    5     4     6    1
    6     4     7    1
    7     7     8    1
    8     1     9    1
    9     7     9    1
   10     9    10    1
   11     9    11    1
   12     7    12    1
   13    12    13    1
@<TRIPOS>SUBSTRUCTURE
       1 MOL1            1 RESIDUE      1      MOL     
@<SCITEGIC>MOL_PROPERTY
VConf Rank
SciTegic.value.IntegerValue
190

@<SCITEGIC>MOL_PROPERTY
Conf_Id
SciTegic.value.IntegerValue
44

@<SCITEGIC>MOL_PROPERTY
Delta U+W
SciTegic.value.DoubleValue
0.823

@<SCITEGIC>MOL_PROPERTY
U+W
SciTegic.value.DoubleValue
-2.308

@<SCITEGIC>MOL_PROPERTY
Grad RMS
SciTegic.value.DoubleValue
0.000000

@<SCITEGIC>MOL_PROPERTY
U
SciTegic.value.DoubleValue
0.039

@<SCITEGIC>MOL_PROPERTY
W
SciTegic.value.DoubleValue
-2.348

@<SCITEGIC>MOL_PROPERTY
W(PB)
SciTegic.value.DoubleValue
-3.918

@<SCITEGIC>MOL_PROPERTY
W(SA)
SciTegic.value.DoubleValue
1.571

@<SCITEGIC>MOL_PROPERTY
Valence
SciTegic.value.DoubleValue
7.320

@<SCITEGIC>MOL_PROPERTY
Coulomb
SciTegic.value.DoubleValue
-8.530

@<SCITEGIC>MOL_PROPERTY
VdW
SciTegic.value.DoubleValue
1.249

@<SCITEGIC>MOL_PROPERTY
VdW6
SciTegic.value.DoubleValue
-2.615

@<SCITEGIC>MOL_PROPERTY
VdW12
SciTegic.value.DoubleValue
3.864

@<SCITEGIC>MOL_PROPERTY
Bond
SciTegic.value.DoubleValue
0.056

@<SCITEGIC>MOL_PROPERTY
Angle
SciTegic.value.DoubleValue
0.694

@<SCITEGIC>MOL_PROPERTY
Pdih
SciTegic.value.DoubleValue
6.570

@<SCITEGIC>MOL_PROPERTY
Idih
SciTegic.value.DoubleValue
0.000

@<SCITEGIC>MOL_PROPERTY
Tether
SciTegic.value.DoubleValue
0.000

@<TRIPOS>MOLECULE
guest-s16_confgen4.mol2 : confsearch ligand conformer 191
          13          13           1
SMALL
USER_CHARGES
 
@<TRIPOS>ATOM
       1    C1      19.716586   20.324323   22.559545 C.3        1 MOL1        -0.1693
       2    H1      18.827970   20.885571   22.241820 H          1 MOL1         0.0829
       3    H2      20.383639   21.003201   23.104066 H          1 MOL1         0.0829
       4    C2      20.381803   19.461690   21.436755 C.3        1 MOL1        -0.1768
       5    H3      20.318066   19.860666   20.418562 H          1 MOL1         0.0829
       6    H4      21.419895   19.168362   21.636526 H          1 MOL1         0.0829
       7    C3      19.322576   18.380612   21.808450 C.3        1 MOL1         0.1211
       8    H5      18.346474   18.533379   21.327879 H          1 MOL1         0.0786
       9    C4      19.412803   18.955911   23.254162 C.3        1 MOL1        -0.1768
      10    H6      18.491734   18.909233   23.845453 H          1 MOL1         0.0829
      11    H7      20.238521   18.553465   23.854180 H          1 MOL1         0.0829
      12    O1      19.748132   17.045549   21.663344 O.3        1 MOL1        -0.5515
      13    H8      19.064529   16.475946   22.077400 H          1 MOL1         0.3773
@<TRIPOS>BOND
    1     1     2    1
    2     1     3    1
    3     1     4    1
    4     4     5    1
    5     4     6    1
    6     4     7    1
    7     7     8    1
    8     1     9    1
    9     7     9    1
   10     9    10    1
   11     9    11    1
   12     7    12    1
   13    12    13    1
@<TRIPOS>SUBSTRUCTURE
       1 MOL1            1 RESIDUE      1      MOL     
@<SCITEGIC>MOL_PROPERTY
VConf Rank
SciTegic.value.IntegerValue
191

@<SCITEGIC>MOL_PROPERTY
Conf_Id
SciTegic.value.IntegerValue
22

@<SCITEGIC>MOL_PROPERTY
Delta U+W
SciTegic.value.DoubleValue
0.000

@<SCITEGIC>MOL_PROPERTY
U+W
SciTegic.value.DoubleValue
-3.131

@<SCITEGIC>MOL_PROPERTY
Grad RMS
SciTegic.value.DoubleValue
0.000000

@<SCITEGIC>MOL_PROPERTY
U
SciTegic.value.DoubleValue
-0.154

@<SCITEGIC>MOL_PROPERTY
W
SciTegic.value.DoubleValue
-2.978

@<SCITEGIC>MOL_PROPERTY
W(PB)
SciTegic.value.DoubleValue
-4.579

@<SCITEGIC>MOL_PROPERTY
W(SA)
SciTegic.value.DoubleValue
1.601

@<SCITEGIC>MOL_PROPERTY
Valence
SciTegic.value.DoubleValue
6.333

@<SCITEGIC>MOL_PROPERTY
Coulomb
SciTegic.value.DoubleValue
-7.439

@<SCITEGIC>MOL_PROPERTY
VdW
SciTegic.value.DoubleValue
0.952

@<SCITEGIC>MOL_PROPERTY
VdW6
SciTegic.value.DoubleValue
-2.120

@<SCITEGIC>MOL_PROPERTY
VdW12
SciTegic.value.DoubleValue
3.072

@<SCITEGIC>MOL_PROPERTY
Bond
SciTegic.value.DoubleValue
0.065

@<SCITEGIC>MOL_PROPERTY
Angle
SciTegic.value.DoubleValue
0.931

@<SCITEGIC>MOL_PROPERTY
Pdih
SciTegic.value.DoubleValue
5.338

@<SCITEGIC>MOL_PROPERTY
Idih
SciTegic.value.DoubleValue
0.000

@<SCITEGIC>MOL_PROPERTY
Tether
SciTegic.value.DoubleValue
0.000

@<TRIPOS>MOLECULE
guest-s16_confgen4.mol2 : confsearch ligand conformer 192
          13          13           1
SMALL
USER_CHARGES
 
@<TRIPOS>ATOM
       1    C1      20.760290   18.728311   21.595220 C.3        1 MOL1        -0.1693
       2    H1      20.616448   18.355088   20.572674 H          1 MOL1         0.0829
       3    H2      21.836059   18.781666   21.800675 H          1 MOL1         0.0829
       4    C2      19.887951   18.015827   22.680909 C.3        1 MOL1        -0.1768
       5    H3      20.246995   18.139012   23.710330 H          1 MOL1         0.0829
       6    H4      19.672426   16.955885   22.507002 H          1 MOL1         0.0829
       7    C3      18.767643   19.015116   22.261951 C.3        1 MOL1         0.1211
       8    H5      18.200531   18.702642   21.374367 H          1 MOL1         0.0786
       9    C4      19.929240   20.005734   21.948564 C.3        1 MOL1        -0.1768
      10    H6      20.295166   20.566488   22.817608 H          1 MOL1         0.0829
      11    H7      19.748181   20.707477   21.127142 H          1 MOL1         0.0829
      12    O1      17.898301   19.414197   23.296131 O.3        1 MOL1        -0.5515
      13    H8      17.322867   18.646937   23.504435 H          1 MOL1         0.3773
@<TRIPOS>BOND
    1     1     2    1
    2     1     3    1
    3     1     4    1
    4     4     5    1
    5     4     6    1
    6     4     7    1
    7     7     8    1
    8     1     9    1
    9     7     9    1
   10     9    10    1
   11     9    11    1
   12     7    12    1
   13    12    13    1
@<TRIPOS>SUBSTRUCTURE
       1 MOL1            1 RESIDUE      1      MOL     
@<SCITEGIC>MOL_PROPERTY
VConf Rank
SciTegic.value.IntegerValue
192

@<SCITEGIC>MOL_PROPERTY
Conf_Id
SciTegic.value.IntegerValue
19

@<SCITEGIC>MOL_PROPERTY
Delta U+W
SciTegic.value.DoubleValue
-0.011

@<SCITEGIC>MOL_PROPERTY
U+W
SciTegic.value.DoubleValue
-3.142

@<SCITEGIC>MOL_PROPERTY
Grad RMS
SciTegic.value.DoubleValue
0.000000

@<SCITEGIC>MOL_PROPERTY
U
SciTegic.value.DoubleValue
-0.154

@<SCITEGIC>MOL_PROPERTY
W
SciTegic.value.DoubleValue
-2.989

@<SCITEGIC>MOL_PROPERTY
W(PB)
SciTegic.value.DoubleValue
-4.588

@<SCITEGIC>MOL_PROPERTY
W(SA)
SciTegic.value.DoubleValue
1.599

@<SCITEGIC>MOL_PROPERTY
Valence
SciTegic.value.DoubleValue
6.334

@<SCITEGIC>MOL_PROPERTY
Coulomb
SciTegic.value.DoubleValue
-7.439

@<SCITEGIC>MOL_PROPERTY
VdW
SciTegic.value.DoubleValue
0.951

@<SCITEGIC>MOL_PROPERTY
VdW6
SciTegic.value.DoubleValue
-2.120

@<SCITEGIC>MOL_PROPERTY
VdW12
SciTegic.value.DoubleValue
3.072

@<SCITEGIC>MOL_PROPERTY
Bond
SciTegic.value.DoubleValue
0.065

@<SCITEGIC>MOL_PROPERTY
Angle
SciTegic.value.DoubleValue
0.930

@<SCITEGIC>MOL_PROPERTY
Pdih
SciTegic.value.DoubleValue
5.339

@<SCITEGIC>MOL_PROPERTY
Idih
SciTegic.value.DoubleValue
0.000

@<SCITEGIC>MOL_PROPERTY
Tether
SciTegic.value.DoubleValue
0.000

@<TRIPOS>MOLECULE
guest-s16_confgen4.mol2 : confsearch ligand conformer 193
          13          13           1
SMALL
USER_CHARGES
 
@<TRIPOS>ATOM
       1    C1      19.858725   17.967987   21.744283 C.3        1 MOL1        -0.1693
       2    H1      19.780110   16.879455   21.848659 H          1 MOL1         0.0829
       3    H2      20.242026   18.197758   20.741540 H          1 MOL1         0.0829
       4    C2      20.588237   18.720198   22.906591 C.3        1 MOL1        -0.1768
       5    H3      20.479687   18.250187   23.891514 H          1 MOL1         0.0829
       6    H4      21.647077   18.948619   22.742048 H          1 MOL1         0.0829
       7    C3      19.592945   19.893345   22.644770 C.3        1 MOL1         0.1211
       8    H5      19.278532   20.435752   23.545741 H          1 MOL1         0.0786
       9    C4      18.596556   18.792831   22.162927 C.3        1 MOL1        -0.1768
      10    H6      17.919701   19.080546   21.350868 H          1 MOL1         0.0829
      11    H7      18.004706   18.339826   22.967585 H          1 MOL1         0.0829
      12    O1      20.000810   20.807935   21.647114 O.3        1 MOL1        -0.5515
      13    H8      19.232577   21.385256   21.450459 H          1 MOL1         0.3773
@<TRIPOS>BOND
    1     1     2    1
    2     1     3    1
    3     1     4    1
    4     4     5    1
    5     4     6    1
    6     4     7    1
    7     7     8    1
    8     1     9    1
    9     7     9    1
   10     9    10    1
   11     9    11    1
   12     7    12    1
   13    12    13    1
@<TRIPOS>SUBSTRUCTURE
       1 MOL1            1 RESIDUE      1      MOL     
@<SCITEGIC>MOL_PROPERTY
VConf Rank
SciTegic.value.IntegerValue
193

@<SCITEGIC>MOL_PROPERTY
Conf_Id
SciTegic.value.IntegerValue
20

@<SCITEGIC>MOL_PROPERTY
Delta U+W
SciTegic.value.DoubleValue
1.030

@<SCITEGIC>MOL_PROPERTY
U+W
SciTegic.value.DoubleValue
-2.101

@<SCITEGIC>MOL_PROPERTY
Grad RMS
SciTegic.value.DoubleValue
0.000000

@<SCITEGIC>MOL_PROPERTY
U
SciTegic.value.DoubleValue
0.841

@<SCITEGIC>MOL_PROPERTY
W
SciTegic.value.DoubleValue
-2.942

@<SCITEGIC>MOL_PROPERTY
W(PB)
SciTegic.value.DoubleValue
-4.530

@<SCITEGIC>MOL_PROPERTY
W(SA)
SciTegic.value.DoubleValue
1.587

@<SCITEGIC>MOL_PROPERTY
Valence
SciTegic.value.DoubleValue
6.736

@<SCITEGIC>MOL_PROPERTY
Coulomb
SciTegic.value.DoubleValue
-7.246

@<SCITEGIC>MOL_PROPERTY
VdW
SciTegic.value.DoubleValue
1.352

@<SCITEGIC>MOL_PROPERTY
VdW6
SciTegic.value.DoubleValue
-2.500

@<SCITEGIC>MOL_PROPERTY
VdW12
SciTegic.value.DoubleValue
3.851

@<SCITEGIC>MOL_PROPERTY
Bond
SciTegic.value.DoubleValue
0.063

@<SCITEGIC>MOL_PROPERTY
Angle
SciTegic.value.DoubleValue
0.687

@<SCITEGIC>MOL_PROPERTY
Pdih
SciTegic.value.DoubleValue
5.986

@<SCITEGIC>MOL_PROPERTY
Idih
SciTegic.value.DoubleValue
0.000

@<SCITEGIC>MOL_PROPERTY
Tether
SciTegic.value.DoubleValue
0.000

@<TRIPOS>MOLECULE
guest-s16_confgen4.mol2 : confsearch ligand conformer 194
          13          13           1
SMALL
USER_CHARGES
 
@<TRIPOS>ATOM
       1    C1      20.099358   18.919462   20.980344 C.3        1 MOL1        -0.1693
       2    H1      19.793051   18.052409   20.380291 H          1 MOL1         0.0829
       3    H2      20.674761   19.600885   20.342382 H          1 MOL1         0.0829
       4    C2      20.741771   18.564594   22.361912 C.3        1 MOL1        -0.1768
       5    H3      21.318573   17.633952   22.400617 H          1 MOL1         0.0829
       6    H4      21.340247   19.368401   22.808128 H          1 MOL1         0.0829
       7    C3      19.275374   18.474037   22.882138 C.3        1 MOL1         0.1211
       8    H5      18.792367   17.507741   22.682969 H          1 MOL1         0.0786
       9    C4      18.952555   19.570180   21.822227 C.3        1 MOL1        -0.1768
      10    H6      19.151119   20.598748   22.147816 H          1 MOL1         0.0829
      11    H7      17.949205   19.527625   21.384310 H          1 MOL1         0.0829
      12    O1      19.085317   18.855893   24.223735 O.3        1 MOL1        -0.5515
      13    H8      19.534905   19.718911   24.341165 H          1 MOL1         0.3773
@<TRIPOS>BOND
    1     1     2    1
    2     1     3    1
    3     1     4    1
    4     4     5    1
    5     4     6    1
    6     4     7    1
    7     7     8    1
    8     1     9    1
    9     7     9    1
   10     9    10    1
   11     9    11    1
   12     7    12    1
   13    12    13    1
@<TRIPOS>SUBSTRUCTURE
       1 MOL1            1 RESIDUE      1      MOL     
@<SCITEGIC>MOL_PROPERTY
VConf Rank
SciTegic.value.IntegerValue
194

@<SCITEGIC>MOL_PROPERTY
Conf_Id
SciTegic.value.IntegerValue
24

@<SCITEGIC>MOL_PROPERTY
Delta U+W
SciTegic.value.DoubleValue
0.356

@<SCITEGIC>MOL_PROPERTY
U+W
SciTegic.value.DoubleValue
-2.775

@<SCITEGIC>MOL_PROPERTY
Grad RMS
SciTegic.value.DoubleValue
0.000000

@<SCITEGIC>MOL_PROPERTY
U
SciTegic.value.DoubleValue
-0.184

@<SCITEGIC>MOL_PROPERTY
W
SciTegic.value.DoubleValue
-2.591

@<SCITEGIC>MOL_PROPERTY
W(PB)
SciTegic.value.DoubleValue
-4.184

@<SCITEGIC>MOL_PROPERTY
W(SA)
SciTegic.value.DoubleValue
1.593

@<SCITEGIC>MOL_PROPERTY
Valence
SciTegic.value.DoubleValue
6.840

@<SCITEGIC>MOL_PROPERTY
Coulomb
SciTegic.value.DoubleValue
-7.916

@<SCITEGIC>MOL_PROPERTY
VdW
SciTegic.value.DoubleValue
0.893

@<SCITEGIC>MOL_PROPERTY
VdW6
SciTegic.value.DoubleValue
-2.167

@<SCITEGIC>MOL_PROPERTY
VdW12
SciTegic.value.DoubleValue
3.060

@<SCITEGIC>MOL_PROPERTY
Bond
SciTegic.value.DoubleValue
0.059

@<SCITEGIC>MOL_PROPERTY
Angle
SciTegic.value.DoubleValue
0.918

@<SCITEGIC>MOL_PROPERTY
Pdih
SciTegic.value.DoubleValue
5.862

@<SCITEGIC>MOL_PROPERTY
Idih
SciTegic.value.DoubleValue
0.000

@<SCITEGIC>MOL_PROPERTY
Tether
SciTegic.value.DoubleValue
0.000

@<TRIPOS>MOLECULE
guest-s16_confgen4.mol2 : confsearch ligand conformer 195
          13          13           1
SMALL
USER_CHARGES
 
@<TRIPOS>ATOM
       1    C1      19.651736   18.927385   21.085654 C.3        1 MOL1        -0.1693
       2    H1      20.161675   18.604480   20.170194 H          1 MOL1         0.0829
       3    H2      18.707493   19.410652   20.804312 H          1 MOL1         0.0829
       4    C2      20.523762   19.730875   22.107473 C.3        1 MOL1        -0.1768
       5    H3      21.587486   19.463484   22.104401 H          1 MOL1         0.0829
       6    H4      20.439058   20.822405   22.061697 H          1 MOL1         0.0829
       7    C3      19.694414   19.029023   23.227107 C.3        1 MOL1         0.1211
       8    H5      20.261119   18.781782   24.133862 H          1 MOL1         0.0786
       9    C4      19.529654   17.851975   22.216461 C.3        1 MOL1        -0.1768
      10    H6      20.349637   17.123906   22.240109 H          1 MOL1         0.0829
      11    H7      18.579665   17.308082   22.265547 H          1 MOL1         0.0829
      12    O1      18.493339   19.684551   23.572690 O.3        1 MOL1        -0.5515
      13    H8      18.032819   19.879373   22.730502 H          1 MOL1         0.3773
@<TRIPOS>BOND
    1     1     2    1
    2     1     3    1
    3     1     4    1
    4     4     5    1
    5     4     6    1
    6     4     7    1
    7     7     8    1
    8     1     9    1
    9     7     9    1
   10     9    10    1
   11     9    11    1
   12     7    12    1
   13    12    13    1
@<TRIPOS>SUBSTRUCTURE
       1 MOL1            1 RESIDUE      1      MOL     
@<SCITEGIC>MOL_PROPERTY
VConf Rank
SciTegic.value.IntegerValue
195

@<SCITEGIC>MOL_PROPERTY
Conf_Id
SciTegic.value.IntegerValue
44

@<SCITEGIC>MOL_PROPERTY
Delta U+W
SciTegic.value.DoubleValue
0.823

@<SCITEGIC>MOL_PROPERTY
U+W
SciTegic.value.DoubleValue
-2.308

@<SCITEGIC>MOL_PROPERTY
Grad RMS
SciTegic.value.DoubleValue
0.000000

@<SCITEGIC>MOL_PROPERTY
U
SciTegic.value.DoubleValue
0.039

@<SCITEGIC>MOL_PROPERTY
W
SciTegic.value.DoubleValue
-2.348

@<SCITEGIC>MOL_PROPERTY
W(PB)
SciTegic.value.DoubleValue
-3.918

@<SCITEGIC>MOL_PROPERTY
W(SA)
SciTegic.value.DoubleValue
1.571

@<SCITEGIC>MOL_PROPERTY
Valence
SciTegic.value.DoubleValue
7.320

@<SCITEGIC>MOL_PROPERTY
Coulomb
SciTegic.value.DoubleValue
-8.530

@<SCITEGIC>MOL_PROPERTY
VdW
SciTegic.value.DoubleValue
1.249

@<SCITEGIC>MOL_PROPERTY
VdW6
SciTegic.value.DoubleValue
-2.615

@<SCITEGIC>MOL_PROPERTY
VdW12
SciTegic.value.DoubleValue
3.864

@<SCITEGIC>MOL_PROPERTY
Bond
SciTegic.value.DoubleValue
0.056

@<SCITEGIC>MOL_PROPERTY
Angle
SciTegic.value.DoubleValue
0.694

@<SCITEGIC>MOL_PROPERTY
Pdih
SciTegic.value.DoubleValue
6.570

@<SCITEGIC>MOL_PROPERTY
Idih
SciTegic.value.DoubleValue
0.000

@<SCITEGIC>MOL_PROPERTY
Tether
SciTegic.value.DoubleValue
0.000

@<TRIPOS>MOLECULE
guest-s16_confgen4.mol2 : confsearch ligand conformer 196
          13          13           1
SMALL
USER_CHARGES
 
@<TRIPOS>ATOM
       1    C1      20.510204   20.055803   22.180479 C.3        1 MOL1        -0.1693
       2    H1      20.124048   20.907727   21.605418 H          1 MOL1         0.0829
       3    H2      21.493491   20.323223   22.585413 H          1 MOL1         0.0829
       4    C2      20.421212   18.676909   21.446968 C.3        1 MOL1        -0.1768
       5    H3      20.531831   18.700637   20.357398 H          1 MOL1         0.0829
       6    H4      21.078875   17.897583   21.851586 H          1 MOL1         0.0829
       7    C3      18.957049   18.626013   21.978460 C.3        1 MOL1         0.1211
       8    H5      18.240390   19.178750   21.355610 H          1 MOL1         0.0786
       9    C4      19.493954   19.437125   23.196255 C.3        1 MOL1        -0.1768
      10    H6      18.785411   20.135282   23.655292 H          1 MOL1         0.0829
      11    H7      19.949599   18.826282   23.985592 H          1 MOL1         0.0829
      12    O1      18.469880   17.338842   22.279131 O.3        1 MOL1        -0.5515
      13    H8      17.616781   17.453730   22.750541 H          1 MOL1         0.3773
@<TRIPOS>BOND
    1     1     2    1
    2     1     3    1
    3     1     4    1
    4     4     5    1
    5     4     6    1
    6     4     7    1
    7     7     8    1
    8     1     9    1
    9     7     9    1
   10     9    10    1
   11     9    11    1
   12     7    12    1
   13    12    13    1
@<TRIPOS>SUBSTRUCTURE
       1 MOL1            1 RESIDUE      1      MOL     
@<SCITEGIC>MOL_PROPERTY
VConf Rank
SciTegic.value.IntegerValue
196

@<SCITEGIC>MOL_PROPERTY
Conf_Id
SciTegic.value.IntegerValue
22

@<SCITEGIC>MOL_PROPERTY
Delta U+W
SciTegic.value.DoubleValue
0.000

@<SCITEGIC>MOL_PROPERTY
U+W
SciTegic.value.DoubleValue
-3.131

@<SCITEGIC>MOL_PROPERTY
Grad RMS
SciTegic.value.DoubleValue
0.000000

@<SCITEGIC>MOL_PROPERTY
U
SciTegic.value.DoubleValue
-0.154

@<SCITEGIC>MOL_PROPERTY
W
SciTegic.value.DoubleValue
-2.978

@<SCITEGIC>MOL_PROPERTY
W(PB)
SciTegic.value.DoubleValue
-4.579

@<SCITEGIC>MOL_PROPERTY
W(SA)
SciTegic.value.DoubleValue
1.601

@<SCITEGIC>MOL_PROPERTY
Valence
SciTegic.value.DoubleValue
6.333

@<SCITEGIC>MOL_PROPERTY
Coulomb
SciTegic.value.DoubleValue
-7.439

@<SCITEGIC>MOL_PROPERTY
VdW
SciTegic.value.DoubleValue
0.952

@<SCITEGIC>MOL_PROPERTY
VdW6
SciTegic.value.DoubleValue
-2.120

@<SCITEGIC>MOL_PROPERTY
VdW12
SciTegic.value.DoubleValue
3.072

@<SCITEGIC>MOL_PROPERTY
Bond
SciTegic.value.DoubleValue
0.065

@<SCITEGIC>MOL_PROPERTY
Angle
SciTegic.value.DoubleValue
0.931

@<SCITEGIC>MOL_PROPERTY
Pdih
SciTegic.value.DoubleValue
5.338

@<SCITEGIC>MOL_PROPERTY
Idih
SciTegic.value.DoubleValue
0.000

@<SCITEGIC>MOL_PROPERTY
Tether
SciTegic.value.DoubleValue
0.000

@<TRIPOS>MOLECULE
guest-s16_confgen4.mol2 : confsearch ligand conformer 197
          13          13           1
SMALL
USER_CHARGES
 
@<TRIPOS>ATOM
       1    C1      19.818360   17.649349   21.969371 C.3        1 MOL1        -0.1693
       2    H1      20.398412   17.117716   22.735199 H          1 MOL1         0.0829
       3    H2      19.602041   16.954957   21.148785 H          1 MOL1         0.0829
       4    C2      20.400599   19.041303   21.556102 C.3        1 MOL1        -0.1768
       5    H3      20.037867   19.421983   20.593137 H          1 MOL1         0.0829
       6    H4      21.491738   19.135157   21.584050 H          1 MOL1         0.0829
       7    C3      19.638672   19.592815   22.798880 C.3        1 MOL1         0.1211
       8    H5      20.182027   19.469736   23.745812 H          1 MOL1         0.0786
       9    C4      18.601139   18.464155   22.518706 C.3        1 MOL1        -0.1768
      10    H6      17.842840   18.720032   21.768311 H          1 MOL1         0.0829
      11    H7      18.099273   18.049191   23.399556 H          1 MOL1         0.0829
      12    O1      19.148115   20.907157   22.670786 O.3        1 MOL1        -0.5515
      13    H8      19.921015   21.510829   22.708314 H          1 MOL1         0.3773
@<TRIPOS>BOND
    1     1     2    1
    2     1     3    1
    3     1     4    1
    4     4     5    1
    5     4     6    1
    6     4     7    1
    7     7     8    1
    8     1     9    1
    9     7     9    1
   10     9    10    1
   11     9    11    1
   12     7    12    1
   13    12    13    1
@<TRIPOS>SUBSTRUCTURE
       1 MOL1            1 RESIDUE      1      MOL     
@<SCITEGIC>MOL_PROPERTY
VConf Rank
SciTegic.value.IntegerValue
197

@<SCITEGIC>MOL_PROPERTY
Conf_Id
SciTegic.value.IntegerValue
19

@<SCITEGIC>MOL_PROPERTY
Delta U+W
SciTegic.value.DoubleValue
-0.011

@<SCITEGIC>MOL_PROPERTY
U+W
SciTegic.value.DoubleValue
-3.142

@<SCITEGIC>MOL_PROPERTY
Grad RMS
SciTegic.value.DoubleValue
0.000000

@<SCITEGIC>MOL_PROPERTY
U
SciTegic.value.DoubleValue
-0.154

@<SCITEGIC>MOL_PROPERTY
W
SciTegic.value.DoubleValue
-2.989

@<SCITEGIC>MOL_PROPERTY
W(PB)
SciTegic.value.DoubleValue
-4.588

@<SCITEGIC>MOL_PROPERTY
W(SA)
SciTegic.value.DoubleValue
1.599

@<SCITEGIC>MOL_PROPERTY
Valence
SciTegic.value.DoubleValue
6.334

@<SCITEGIC>MOL_PROPERTY
Coulomb
SciTegic.value.DoubleValue
-7.439

@<SCITEGIC>MOL_PROPERTY
VdW
SciTegic.value.DoubleValue
0.951

@<SCITEGIC>MOL_PROPERTY
VdW6
SciTegic.value.DoubleValue
-2.120

@<SCITEGIC>MOL_PROPERTY
VdW12
SciTegic.value.DoubleValue
3.072

@<SCITEGIC>MOL_PROPERTY
Bond
SciTegic.value.DoubleValue
0.065

@<SCITEGIC>MOL_PROPERTY
Angle
SciTegic.value.DoubleValue
0.930

@<SCITEGIC>MOL_PROPERTY
Pdih
SciTegic.value.DoubleValue
5.339

@<SCITEGIC>MOL_PROPERTY
Idih
SciTegic.value.DoubleValue
0.000

@<SCITEGIC>MOL_PROPERTY
Tether
SciTegic.value.DoubleValue
0.000

@<TRIPOS>MOLECULE
guest-s16_confgen4.mol2 : confsearch ligand conformer 198
          13          13           1
SMALL
USER_CHARGES
 
@<TRIPOS>ATOM
       1    C1      19.262585   20.209814   22.069436 C.3        1 MOL1        -0.1693
       2    H1      18.406457   20.894666   22.069889 H          1 MOL1         0.0829
       3    H2      20.171078   20.783629   21.844529 H          1 MOL1         0.0829
       4    C2      19.096491   18.900545   21.228485 C.3        1 MOL1        -0.1768
       5    H3      18.067933   18.524417   21.170506 H          1 MOL1         0.0829
       6    H4      19.519773   18.920669   20.218128 H          1 MOL1         0.0829
       7    C3      19.971752   18.203681   22.316478 C.3        1 MOL1         0.1211
       8    H5      19.691535   17.164524   22.531988 H          1 MOL1         0.0786
       9    C4      19.383753   19.258117   23.305677 C.3        1 MOL1        -0.1768
      10    H6      20.054141   19.592262   24.105227 H          1 MOL1         0.0829
      11    H7      18.424329   18.969055   23.751685 H          1 MOL1         0.0829
      12    O1      21.366565   18.294907   22.105962 O.3        1 MOL1        -0.5515
      13    H8      21.805293   17.983411   22.926110 H          1 MOL1         0.3773
@<TRIPOS>BOND
    1     1     2    1
    2     1     3    1
    3     1     4    1
    4     4     5    1
    5     4     6    1
    6     4     7    1
    7     7     8    1
    8     1     9    1
    9     7     9    1
   10     9    10    1
   11     9    11    1
   12     7    12    1
   13    12    13    1
@<TRIPOS>SUBSTRUCTURE
       1 MOL1            1 RESIDUE      1      MOL     
@<SCITEGIC>MOL_PROPERTY
VConf Rank
SciTegic.value.IntegerValue
198

@<SCITEGIC>MOL_PROPERTY
Conf_Id
SciTegic.value.IntegerValue
20

@<SCITEGIC>MOL_PROPERTY
Delta U+W
SciTegic.value.DoubleValue
1.030

@<SCITEGIC>MOL_PROPERTY
U+W
SciTegic.value.DoubleValue
-2.101

@<SCITEGIC>MOL_PROPERTY
Grad RMS
SciTegic.value.DoubleValue
0.000000

@<SCITEGIC>MOL_PROPERTY
U
SciTegic.value.DoubleValue
0.841

@<SCITEGIC>MOL_PROPERTY
W
SciTegic.value.DoubleValue
-2.942

@<SCITEGIC>MOL_PROPERTY
W(PB)
SciTegic.value.DoubleValue
-4.530

@<SCITEGIC>MOL_PROPERTY
W(SA)
SciTegic.value.DoubleValue
1.587

@<SCITEGIC>MOL_PROPERTY
Valence
SciTegic.value.DoubleValue
6.736

@<SCITEGIC>MOL_PROPERTY
Coulomb
SciTegic.value.DoubleValue
-7.246

@<SCITEGIC>MOL_PROPERTY
VdW
SciTegic.value.DoubleValue
1.352

@<SCITEGIC>MOL_PROPERTY
VdW6
SciTegic.value.DoubleValue
-2.500

@<SCITEGIC>MOL_PROPERTY
VdW12
SciTegic.value.DoubleValue
3.851

@<SCITEGIC>MOL_PROPERTY
Bond
SciTegic.value.DoubleValue
0.063

@<SCITEGIC>MOL_PROPERTY
Angle
SciTegic.value.DoubleValue
0.687

@<SCITEGIC>MOL_PROPERTY
Pdih
SciTegic.value.DoubleValue
5.986

@<SCITEGIC>MOL_PROPERTY
Idih
SciTegic.value.DoubleValue
0.000

@<SCITEGIC>MOL_PROPERTY
Tether
SciTegic.value.DoubleValue
0.000

@<TRIPOS>MOLECULE
guest-s16_confgen4.mol2 : confsearch ligand conformer 199
          13          13           1
SMALL
USER_CHARGES
 
@<TRIPOS>ATOM
       1    C1      19.736287   18.812529   20.938239 C.3        1 MOL1        -0.1693
       2    H1      19.608959   17.800117   20.532680 H          1 MOL1         0.0829
       3    H2      19.831246   19.515212   20.101793 H          1 MOL1         0.0829
       4    C2      20.815137   18.934981   22.064491 C.3        1 MOL1        -0.1768
       5    H3      21.673810   18.259200   21.985153 H          1 MOL1         0.0829
       6    H4      21.183784   19.953830   22.236057 H          1 MOL1         0.0829
       7    C3      19.681047   18.477628   23.030836 C.3        1 MOL1         0.1211
       8    H5      19.541303   17.388682   23.067735 H          1 MOL1         0.0786
       9    C4      18.710176   19.204690   22.052090 C.3        1 MOL1        -0.1768
      10    H6      18.608337   20.283822   22.220884 H          1 MOL1         0.0829
      11    H7      17.709847   18.767104   21.961803 H          1 MOL1         0.0829
      12    O1      19.742083   19.013779   24.331080 O.3        1 MOL1        -0.5515
      13    H8      19.866586   19.981262   24.235196 H          1 MOL1         0.3773
@<TRIPOS>BOND
    1     1     2    1
    2     1     3    1
    3     1     4    1
    4     4     5    1
    5     4     6    1
    6     4     7    1
    7     7     8    1
    8     1     9    1
    9     7     9    1
   10     9    10    1
   11     9    11    1
   12     7    12    1
   13    12    13    1
@<TRIPOS>SUBSTRUCTURE
       1 MOL1            1 RESIDUE      1      MOL     
@<SCITEGIC>MOL_PROPERTY
VConf Rank
SciTegic.value.IntegerValue
199

@<SCITEGIC>MOL_PROPERTY
Conf_Id
SciTegic.value.IntegerValue
24

@<SCITEGIC>MOL_PROPERTY
Delta U+W
SciTegic.value.DoubleValue
0.356

@<SCITEGIC>MOL_PROPERTY
U+W
SciTegic.value.DoubleValue
-2.775

@<SCITEGIC>MOL_PROPERTY
Grad RMS
SciTegic.value.DoubleValue
0.000000

@<SCITEGIC>MOL_PROPERTY
U
SciTegic.value.DoubleValue
-0.184

@<SCITEGIC>MOL_PROPERTY
W
SciTegic.value.DoubleValue
-2.591

@<SCITEGIC>MOL_PROPERTY
W(PB)
SciTegic.value.DoubleValue
-4.184

@<SCITEGIC>MOL_PROPERTY
W(SA)
SciTegic.value.DoubleValue
1.593

@<SCITEGIC>MOL_PROPERTY
Valence
SciTegic.value.DoubleValue
6.840

@<SCITEGIC>MOL_PROPERTY
Coulomb
SciTegic.value.DoubleValue
-7.916

@<SCITEGIC>MOL_PROPERTY
VdW
SciTegic.value.DoubleValue
0.893

@<SCITEGIC>MOL_PROPERTY
VdW6
SciTegic.value.DoubleValue
-2.167

@<SCITEGIC>MOL_PROPERTY
VdW12
SciTegic.value.DoubleValue
3.060

@<SCITEGIC>MOL_PROPERTY
Bond
SciTegic.value.DoubleValue
0.059

@<SCITEGIC>MOL_PROPERTY
Angle
SciTegic.value.DoubleValue
0.918

@<SCITEGIC>MOL_PROPERTY
Pdih
SciTegic.value.DoubleValue
5.862

@<SCITEGIC>MOL_PROPERTY
Idih
SciTegic.value.DoubleValue
0.000

@<SCITEGIC>MOL_PROPERTY
Tether
SciTegic.value.DoubleValue
0.000

@<TRIPOS>MOLECULE
guest-s16_confgen4.mol2 : confsearch ligand conformer 200
          13          13           1
SMALL
USER_CHARGES
 
@<TRIPOS>ATOM
       1    C1      20.661891   18.761646   21.676292 C.3        1 MOL1        -0.1693
       2    H1      21.714004   19.047792   21.559884 H          1 MOL1         0.0829
       3    H2      20.452978   17.925454   20.997002 H          1 MOL1         0.0829
       4    C2      19.624127   19.932047   21.618449 C.3        1 MOL1        -0.1768
       5    H3      20.003740   20.893112   21.986230 H          1 MOL1         0.0829
       6    H4      19.135888   20.097621   20.651538 H          1 MOL1         0.0829
       7    C3      18.798088   19.129379   22.670769 C.3        1 MOL1         0.1211
       8    H5      18.274133   19.745603   23.412541 H          1 MOL1         0.0786
       9    C4      20.167944   18.554378   23.147071 C.3        1 MOL1        -0.1768
      10    H6      20.680894   19.177659   23.889647 H          1 MOL1         0.0829
      11    H7      20.153053   17.520810   23.510696 H          1 MOL1         0.0829
      12    O1      17.913326   18.174776   22.125189 O.3        1 MOL1        -0.5515
      13    H8      18.431790   17.657694   21.474701 H          1 MOL1         0.3773
@<TRIPOS>BOND
    1     1     2    1
    2     1     3    1
    3     1     4    1
    4     4     5    1
    5     4     6    1
    6     4     7    1
    7     7     8    1
    8     1     9    1
    9     7     9    1
   10     9    10    1
   11     9    11    1
   12     7    12    1
   13    12    13    1
@<TRIPOS>SUBSTRUCTURE
       1 MOL1            1 RESIDUE      1      MOL     
@<SCITEGIC>MOL_PROPERTY
VConf Rank
SciTegic.value.IntegerValue
200

@<SCITEGIC>MOL_PROPERTY
Conf_Id
SciTegic.value.IntegerValue
44

@<SCITEGIC>MOL_PROPERTY
Delta U+W
SciTegic.value.DoubleValue
0.823

@<SCITEGIC>MOL_PROPERTY
U+W
SciTegic.value.DoubleValue
-2.308

@<SCITEGIC>MOL_PROPERTY
Grad RMS
SciTegic.value.DoubleValue
0.000000

@<SCITEGIC>MOL_PROPERTY
U
SciTegic.value.DoubleValue
0.039

@<SCITEGIC>MOL_PROPERTY
W
SciTegic.value.DoubleValue
-2.348

@<SCITEGIC>MOL_PROPERTY
W(PB)
SciTegic.value.DoubleValue
-3.918

@<SCITEGIC>MOL_PROPERTY
W(SA)
SciTegic.value.DoubleValue
1.571

@<SCITEGIC>MOL_PROPERTY
Valence
SciTegic.value.DoubleValue
7.320

@<SCITEGIC>MOL_PROPERTY
Coulomb
SciTegic.value.DoubleValue
-8.530

@<SCITEGIC>MOL_PROPERTY
VdW
SciTegic.value.DoubleValue
1.249

@<SCITEGIC>MOL_PROPERTY
VdW6
SciTegic.value.DoubleValue
-2.615

@<SCITEGIC>MOL_PROPERTY
VdW12
SciTegic.value.DoubleValue
3.864

@<SCITEGIC>MOL_PROPERTY
Bond
SciTegic.value.DoubleValue
0.056

@<SCITEGIC>MOL_PROPERTY
Angle
SciTegic.value.DoubleValue
0.694

@<SCITEGIC>MOL_PROPERTY
Pdih
SciTegic.value.DoubleValue
6.570

@<SCITEGIC>MOL_PROPERTY
Idih
SciTegic.value.DoubleValue
0.000

@<SCITEGIC>MOL_PROPERTY
Tether
SciTegic.value.DoubleValue
0.000

@<TRIPOS>MOLECULE
guest-s16_confgen4.mol2 : confsearch ligand conformer 201
          13          13           1
SMALL
USER_CHARGES
 
@<TRIPOS>ATOM
       1    C1      20.637567   18.772226   23.100548 C.3        1 MOL1        -0.1693
       2    H1      21.126347   17.806950   22.913672 H          1 MOL1         0.0829
       3    H2      21.147634   19.267469   23.935356 H          1 MOL1         0.0829
       4    C2      19.076961   18.709228   23.189121 C.3        1 MOL1        -0.1768
       5    H3      18.652835   17.788359   23.603946 H          1 MOL1         0.0829
       6    H4      18.609597   19.568274   23.686310 H          1 MOL1         0.0829
       7    C3      19.106319   18.801056   21.633630 C.3        1 MOL1         0.1211
       8    H5      19.271816   17.835593   21.136082 H          1 MOL1         0.0786
       9    C4      20.402705   19.645114   21.823742 C.3        1 MOL1        -0.1768
      10    H6      21.153694   19.552608   21.031510 H          1 MOL1         0.0829
      11    H7      20.228269   20.709941   22.022511 H          1 MOL1         0.0829
      12    O1      18.021832   19.485130   21.050127 O.3        1 MOL1        -0.5515
      13    H8      18.237150   19.615960   20.101588 H          1 MOL1         0.3773
@<TRIPOS>BOND
    1     1     2    1
    2     1     3    1
    3     1     4    1
    4     4     5    1
    5     4     6    1
    6     4     7    1
    7     7     8    1
    8     1     9    1
    9     7     9    1
   10     9    10    1
   11     9    11    1
   12     7    12    1
   13    12    13    1
@<TRIPOS>SUBSTRUCTURE
       1 MOL1            1 RESIDUE      1      MOL     
@<SCITEGIC>MOL_PROPERTY
VConf Rank
SciTegic.value.IntegerValue
201

@<SCITEGIC>MOL_PROPERTY
Conf_Id
SciTegic.value.IntegerValue
22

@<SCITEGIC>MOL_PROPERTY
Delta U+W
SciTegic.value.DoubleValue
0.000

@<SCITEGIC>MOL_PROPERTY
U+W
SciTegic.value.DoubleValue
-3.131

@<SCITEGIC>MOL_PROPERTY
Grad RMS
SciTegic.value.DoubleValue
0.000000

@<SCITEGIC>MOL_PROPERTY
U
SciTegic.value.DoubleValue
-0.154

@<SCITEGIC>MOL_PROPERTY
W
SciTegic.value.DoubleValue
-2.978

@<SCITEGIC>MOL_PROPERTY
W(PB)
SciTegic.value.DoubleValue
-4.579

@<SCITEGIC>MOL_PROPERTY
W(SA)
SciTegic.value.DoubleValue
1.601

@<SCITEGIC>MOL_PROPERTY
Valence
SciTegic.value.DoubleValue
6.333

@<SCITEGIC>MOL_PROPERTY
Coulomb
SciTegic.value.DoubleValue
-7.439

@<SCITEGIC>MOL_PROPERTY
VdW
SciTegic.value.DoubleValue
0.952

@<SCITEGIC>MOL_PROPERTY
VdW6
SciTegic.value.DoubleValue
-2.120

@<SCITEGIC>MOL_PROPERTY
VdW12
SciTegic.value.DoubleValue
3.072

@<SCITEGIC>MOL_PROPERTY
Bond
SciTegic.value.DoubleValue
0.065

@<SCITEGIC>MOL_PROPERTY
Angle
SciTegic.value.DoubleValue
0.931

@<SCITEGIC>MOL_PROPERTY
Pdih
SciTegic.value.DoubleValue
5.338

@<SCITEGIC>MOL_PROPERTY
Idih
SciTegic.value.DoubleValue
0.000

@<SCITEGIC>MOL_PROPERTY
Tether
SciTegic.value.DoubleValue
0.000

@<TRIPOS>MOLECULE
guest-s16_confgen4.mol2 : confsearch ligand conformer 202
          13          13           1
SMALL
USER_CHARGES
 
@<TRIPOS>ATOM
       1    C1      20.598039   19.264586   21.416339 C.3        1 MOL1        -0.1693
       2    H1      20.420585   20.219612   20.904458 H          1 MOL1         0.0829
       3    H2      21.533120   18.833444   21.039407 H          1 MOL1         0.0829
       4    C2      19.364483   18.303228   21.454534 C.3        1 MOL1        -0.1768
       5    H3      19.608336   17.252936   21.657556 H          1 MOL1         0.0829
       6    H4      18.690920   18.348507   20.591728 H          1 MOL1         0.0829
       7    C3      18.921324   19.118773   22.706609 C.3        1 MOL1         0.1211
       8    H5      18.388449   20.049200   22.467003 H          1 MOL1         0.0786
       9    C4      20.444078   19.317544   22.972230 C.3        1 MOL1        -0.1768
      10    H6      20.923335   18.490154   23.510117 H          1 MOL1         0.0829
      11    H7      20.724372   20.260473   23.454184 H          1 MOL1         0.0829
      12    O1      18.229212   18.384913   23.689961 O.3        1 MOL1        -0.5515
      13    H8      17.335847   18.191010   23.332883 H          1 MOL1         0.3773
@<TRIPOS>BOND
    1     1     2    1
    2     1     3    1
    3     1     4    1
    4     4     5    1
    5     4     6    1
    6     4     7    1
    7     7     8    1
    8     1     9    1
    9     7     9    1
   10     9    10    1
   11     9    11    1
   12     7    12    1
   13    12    13    1
@<TRIPOS>SUBSTRUCTURE
       1 MOL1            1 RESIDUE      1      MOL     
@<SCITEGIC>MOL_PROPERTY
VConf Rank
SciTegic.value.IntegerValue
202

@<SCITEGIC>MOL_PROPERTY
Conf_Id
SciTegic.value.IntegerValue
19

@<SCITEGIC>MOL_PROPERTY
Delta U+W
SciTegic.value.DoubleValue
-0.011

@<SCITEGIC>MOL_PROPERTY
U+W
SciTegic.value.DoubleValue
-3.142

@<SCITEGIC>MOL_PROPERTY
Grad RMS
SciTegic.value.DoubleValue
0.000000

@<SCITEGIC>MOL_PROPERTY
U
SciTegic.value.DoubleValue
-0.154

@<SCITEGIC>MOL_PROPERTY
W
SciTegic.value.DoubleValue
-2.989

@<SCITEGIC>MOL_PROPERTY
W(PB)
SciTegic.value.DoubleValue
-4.588

@<SCITEGIC>MOL_PROPERTY
W(SA)
SciTegic.value.DoubleValue
1.599

@<SCITEGIC>MOL_PROPERTY
Valence
SciTegic.value.DoubleValue
6.334

@<SCITEGIC>MOL_PROPERTY
Coulomb
SciTegic.value.DoubleValue
-7.439

@<SCITEGIC>MOL_PROPERTY
VdW
SciTegic.value.DoubleValue
0.951

@<SCITEGIC>MOL_PROPERTY
VdW6
SciTegic.value.DoubleValue
-2.120

@<SCITEGIC>MOL_PROPERTY
VdW12
SciTegic.value.DoubleValue
3.072

@<SCITEGIC>MOL_PROPERTY
Bond
SciTegic.value.DoubleValue
0.065

@<SCITEGIC>MOL_PROPERTY
Angle
SciTegic.value.DoubleValue
0.930

@<SCITEGIC>MOL_PROPERTY
Pdih
SciTegic.value.DoubleValue
5.339

@<SCITEGIC>MOL_PROPERTY
Idih
SciTegic.value.DoubleValue
0.000

@<SCITEGIC>MOL_PROPERTY
Tether
SciTegic.value.DoubleValue
0.000

@<TRIPOS>MOLECULE
guest-s16_confgen4.mol2 : confsearch ligand conformer 203
          13          13           1
SMALL
USER_CHARGES
 
@<TRIPOS>ATOM
       1    C1      18.646105   19.773664   22.117358 C.3        1 MOL1        -0.1693
       2    H1      17.653756   19.849378   21.657481 H          1 MOL1         0.0829
       3    H2      18.821531   20.671886   22.723682 H          1 MOL1         0.0829
       4    C2      19.823216   19.398268   21.156910 C.3        1 MOL1        -0.1768
       5    H3      19.536582   18.756390   20.315127 H          1 MOL1         0.0829
       6    H4      20.416717   20.235418   20.773074 H          1 MOL1         0.0829
       7    C3      20.439365   18.628886   22.366802 C.3        1 MOL1         0.1211
       8    H5      20.968013   17.704805   22.099560 H          1 MOL1         0.0786
       9    C4      18.967281   18.425487   22.843971 C.3        1 MOL1        -0.1768
      10    H6      18.811356   18.415253   23.928376 H          1 MOL1         0.0829
      11    H7      18.472424   17.547541   22.411186 H          1 MOL1         0.0829
      12    O1      21.242171   19.414657   23.224831 O.3        1 MOL1        -0.5515
      13    H8      21.423171   18.878063   24.025743 H          1 MOL1         0.3773
@<TRIPOS>BOND
    1     1     2    1
    2     1     3    1
    3     1     4    1
    4     4     5    1
    5     4     6    1
    6     4     7    1
    7     7     8    1
    8     1     9    1
    9     7     9    1
   10     9    10    1
   11     9    11    1
   12     7    12    1
   13    12    13    1
@<TRIPOS>SUBSTRUCTURE
       1 MOL1            1 RESIDUE      1      MOL     
@<SCITEGIC>MOL_PROPERTY
VConf Rank
SciTegic.value.IntegerValue
203

@<SCITEGIC>MOL_PROPERTY
Conf_Id
SciTegic.value.IntegerValue
20

@<SCITEGIC>MOL_PROPERTY
Delta U+W
SciTegic.value.DoubleValue
1.030

@<SCITEGIC>MOL_PROPERTY
U+W
SciTegic.value.DoubleValue
-2.101

@<SCITEGIC>MOL_PROPERTY
Grad RMS
SciTegic.value.DoubleValue
0.000000

@<SCITEGIC>MOL_PROPERTY
U
SciTegic.value.DoubleValue
0.841

@<SCITEGIC>MOL_PROPERTY
W
SciTegic.value.DoubleValue
-2.942

@<SCITEGIC>MOL_PROPERTY
W(PB)
SciTegic.value.DoubleValue
-4.530

@<SCITEGIC>MOL_PROPERTY
W(SA)
SciTegic.value.DoubleValue
1.587

@<SCITEGIC>MOL_PROPERTY
Valence
SciTegic.value.DoubleValue
6.736

@<SCITEGIC>MOL_PROPERTY
Coulomb
SciTegic.value.DoubleValue
-7.246

@<SCITEGIC>MOL_PROPERTY
VdW
SciTegic.value.DoubleValue
1.352

@<SCITEGIC>MOL_PROPERTY
VdW6
SciTegic.value.DoubleValue
-2.500

@<SCITEGIC>MOL_PROPERTY
VdW12
SciTegic.value.DoubleValue
3.851

@<SCITEGIC>MOL_PROPERTY
Bond
SciTegic.value.DoubleValue
0.063

@<SCITEGIC>MOL_PROPERTY
Angle
SciTegic.value.DoubleValue
0.687

@<SCITEGIC>MOL_PROPERTY
Pdih
SciTegic.value.DoubleValue
5.986

@<SCITEGIC>MOL_PROPERTY
Idih
SciTegic.value.DoubleValue
0.000

@<SCITEGIC>MOL_PROPERTY
Tether
SciTegic.value.DoubleValue
0.000

@<TRIPOS>MOLECULE
guest-s16_confgen4.mol2 : confsearch ligand conformer 204
          13          13           1
SMALL
USER_CHARGES
 
@<TRIPOS>ATOM
       1    C1      18.789896   19.773422   21.978727 C.3        1 MOL1        -0.1693
       2    H1      17.921154   19.756217   22.650039 H          1 MOL1         0.0829
       3    H2      18.625132   20.540600   21.212755 H          1 MOL1         0.0829
       4    C2      19.242424   18.369108   21.458653 C.3        1 MOL1        -0.1768
       5    H3      18.447501   17.628967   21.315194 H          1 MOL1         0.0829
       6    H4      19.866540   18.394547   20.556866 H          1 MOL1         0.0829
       7    C3      20.031727   18.263414   22.798424 C.3        1 MOL1         0.1211
       8    H5      19.422222   17.925289   23.647464 H          1 MOL1         0.0786
       9    C4      20.175756   19.812410   22.703455 C.3        1 MOL1        -0.1768
      10    H6      21.008483   20.160446   22.079896 H          1 MOL1         0.0829
      11    H7      20.205109   20.346924   23.659344 H          1 MOL1         0.0829
      12    O1      21.237231   17.539220   22.734236 O.3        1 MOL1        -0.5515
      13    H8      21.735427   17.882273   21.962981 H          1 MOL1         0.3773
@<TRIPOS>BOND
    1     1     2    1
    2     1     3    1
    3     1     4    1
    4     4     5    1
    5     4     6    1
    6     4     7    1
    7     7     8    1
    8     1     9    1
    9     7     9    1
   10     9    10    1
   11     9    11    1
   12     7    12    1
   13    12    13    1
@<TRIPOS>SUBSTRUCTURE
       1 MOL1            1 RESIDUE      1      MOL     
@<SCITEGIC>MOL_PROPERTY
VConf Rank
SciTegic.value.IntegerValue
204

@<SCITEGIC>MOL_PROPERTY
Conf_Id
SciTegic.value.IntegerValue
24

@<SCITEGIC>MOL_PROPERTY
Delta U+W
SciTegic.value.DoubleValue
0.356

@<SCITEGIC>MOL_PROPERTY
U+W
SciTegic.value.DoubleValue
-2.775

@<SCITEGIC>MOL_PROPERTY
Grad RMS
SciTegic.value.DoubleValue
0.000000

@<SCITEGIC>MOL_PROPERTY
U
SciTegic.value.DoubleValue
-0.184

@<SCITEGIC>MOL_PROPERTY
W
SciTegic.value.DoubleValue
-2.591

@<SCITEGIC>MOL_PROPERTY
W(PB)
SciTegic.value.DoubleValue
-4.184

@<SCITEGIC>MOL_PROPERTY
W(SA)
SciTegic.value.DoubleValue
1.593

@<SCITEGIC>MOL_PROPERTY
Valence
SciTegic.value.DoubleValue
6.840

@<SCITEGIC>MOL_PROPERTY
Coulomb
SciTegic.value.DoubleValue
-7.916

@<SCITEGIC>MOL_PROPERTY
VdW
SciTegic.value.DoubleValue
0.893

@<SCITEGIC>MOL_PROPERTY
VdW6
SciTegic.value.DoubleValue
-2.167

@<SCITEGIC>MOL_PROPERTY
VdW12
SciTegic.value.DoubleValue
3.060

@<SCITEGIC>MOL_PROPERTY
Bond
SciTegic.value.DoubleValue
0.059

@<SCITEGIC>MOL_PROPERTY
Angle
SciTegic.value.DoubleValue
0.918

@<SCITEGIC>MOL_PROPERTY
Pdih
SciTegic.value.DoubleValue
5.862

@<SCITEGIC>MOL_PROPERTY
Idih
SciTegic.value.DoubleValue
0.000

@<SCITEGIC>MOL_PROPERTY
Tether
SciTegic.value.DoubleValue
0.000

@<TRIPOS>MOLECULE
guest-s16_confgen4.mol2 : confsearch ligand conformer 205
          13          13           1
SMALL
USER_CHARGES
 
@<TRIPOS>ATOM
       1    C1      20.425278   19.049938   23.060004 C.3        1 MOL1        -0.1693
       2    H1      20.811176   18.579735   23.972345 H          1 MOL1         0.0829
       3    H2      20.970222   19.988365   22.896644 H          1 MOL1         0.0829
       4    C2      18.867757   19.166379   22.956520 C.3        1 MOL1        -0.1768
       5    H3      18.318356   18.367622   23.469511 H          1 MOL1         0.0829
       6    H4      18.434743   20.129708   23.248418 H          1 MOL1         0.0829
       7    C3      19.044123   18.934539   21.423830 C.3        1 MOL1         0.1211
       8    H5      18.246842   18.346024   20.952152 H          1 MOL1         0.0786
       9    C4      20.320634   18.122029   21.803751 C.3        1 MOL1        -0.1768
      10    H6      20.127458   17.067213   22.034101 H          1 MOL1         0.0829
      11    H7      21.152226   18.176339   21.092264 H          1 MOL1         0.0829
      12    O1      19.289017   20.104106   20.672919 O.3        1 MOL1        -0.5515
      13    H8      20.004025   20.585975   21.137548 H          1 MOL1         0.3773
@<TRIPOS>BOND
    1     1     2    1
    2     1     3    1
    3     1     4    1
    4     4     5    1
    5     4     6    1
    6     4     7    1
    7     7     8    1
    8     1     9    1
    9     7     9    1
   10     9    10    1
   11     9    11    1
   12     7    12    1
   13    12    13    1
@<TRIPOS>SUBSTRUCTURE
       1 MOL1            1 RESIDUE      1      MOL     
@<SCITEGIC>MOL_PROPERTY
VConf Rank
SciTegic.value.IntegerValue
205

@<SCITEGIC>MOL_PROPERTY
Conf_Id
SciTegic.value.IntegerValue
44

@<SCITEGIC>MOL_PROPERTY
Delta U+W
SciTegic.value.DoubleValue
0.823

@<SCITEGIC>MOL_PROPERTY
U+W
SciTegic.value.DoubleValue
-2.308

@<SCITEGIC>MOL_PROPERTY
Grad RMS
SciTegic.value.DoubleValue
0.000000

@<SCITEGIC>MOL_PROPERTY
U
SciTegic.value.DoubleValue
0.039

@<SCITEGIC>MOL_PROPERTY
W
SciTegic.value.DoubleValue
-2.348

@<SCITEGIC>MOL_PROPERTY
W(PB)
SciTegic.value.DoubleValue
-3.918

@<SCITEGIC>MOL_PROPERTY
W(SA)
SciTegic.value.DoubleValue
1.571

@<SCITEGIC>MOL_PROPERTY
Valence
SciTegic.value.DoubleValue
7.320

@<SCITEGIC>MOL_PROPERTY
Coulomb
SciTegic.value.DoubleValue
-8.530

@<SCITEGIC>MOL_PROPERTY
VdW
SciTegic.value.DoubleValue
1.249

@<SCITEGIC>MOL_PROPERTY
VdW6
SciTegic.value.DoubleValue
-2.615

@<SCITEGIC>MOL_PROPERTY
VdW12
SciTegic.value.DoubleValue
3.864

@<SCITEGIC>MOL_PROPERTY
Bond
SciTegic.value.DoubleValue
0.056

@<SCITEGIC>MOL_PROPERTY
Angle
SciTegic.value.DoubleValue
0.694

@<SCITEGIC>MOL_PROPERTY
Pdih
SciTegic.value.DoubleValue
6.570

@<SCITEGIC>MOL_PROPERTY
Idih
SciTegic.value.DoubleValue
0.000

@<SCITEGIC>MOL_PROPERTY
Tether
SciTegic.value.DoubleValue
0.000

@<TRIPOS>MOLECULE
guest-s16_confgen4.mol2 : confsearch ligand conformer 206
          13          13           1
SMALL
USER_CHARGES
 
@<TRIPOS>ATOM
       1    C1      20.565664   19.458713   23.120709 C.3        1 MOL1        -0.1693
       2    H1      21.583096   19.506522   22.710669 H          1 MOL1         0.0829
       3    H2      20.585798   19.829976   24.152260 H          1 MOL1         0.0829
       4    C2      19.832780   18.095079   22.895564 C.3        1 MOL1        -0.1768
       5    H3      20.465798   17.201097   22.888846 H          1 MOL1         0.0829
       6    H4      18.978027   17.917295   23.559925 H          1 MOL1         0.0829
       7    C3      19.454683   18.668163   21.496470 C.3        1 MOL1         0.1211
       8    H5      20.242587   18.546638   20.740493 H          1 MOL1         0.0786
       9    C4      19.457842   20.061413   22.195068 C.3        1 MOL1        -0.1768
      10    H6      19.760162   20.908788   21.569984 H          1 MOL1         0.0829
      11    H7      18.521748   20.316589   22.707325 H          1 MOL1         0.0829
      12    O1      18.207899   18.250026   20.991261 O.3        1 MOL1        -0.5515
      13    H8      18.016643   18.797606   20.199567 H          1 MOL1         0.3773
@<TRIPOS>BOND
    1     1     2    1
    2     1     3    1
    3     1     4    1
    4     4     5    1
    5     4     6    1
    6     4     7    1
    7     7     8    1
    8     1     9    1
    9     7     9    1
   10     9    10    1
   11     9    11    1
   12     7    12    1
   13    12    13    1
@<TRIPOS>SUBSTRUCTURE
       1 MOL1            1 RESIDUE      1      MOL     
@<SCITEGIC>MOL_PROPERTY
VConf Rank
SciTegic.value.IntegerValue
206

@<SCITEGIC>MOL_PROPERTY
Conf_Id
SciTegic.value.IntegerValue
22

@<SCITEGIC>MOL_PROPERTY
Delta U+W
SciTegic.value.DoubleValue
0.000

@<SCITEGIC>MOL_PROPERTY
U+W
SciTegic.value.DoubleValue
-3.131

@<SCITEGIC>MOL_PROPERTY
Grad RMS
SciTegic.value.DoubleValue
0.000000

@<SCITEGIC>MOL_PROPERTY
U
SciTegic.value.DoubleValue
-0.154

@<SCITEGIC>MOL_PROPERTY
W
SciTegic.value.DoubleValue
-2.978

@<SCITEGIC>MOL_PROPERTY
W(PB)
SciTegic.value.DoubleValue
-4.579

@<SCITEGIC>MOL_PROPERTY
W(SA)
SciTegic.value.DoubleValue
1.601

@<SCITEGIC>MOL_PROPERTY
Valence
SciTegic.value.DoubleValue
6.333

@<SCITEGIC>MOL_PROPERTY
Coulomb
SciTegic.value.DoubleValue
-7.439

@<SCITEGIC>MOL_PROPERTY
VdW
SciTegic.value.DoubleValue
0.952

@<SCITEGIC>MOL_PROPERTY
VdW6
SciTegic.value.DoubleValue
-2.120

@<SCITEGIC>MOL_PROPERTY
VdW12
SciTegic.value.DoubleValue
3.072

@<SCITEGIC>MOL_PROPERTY
Bond
SciTegic.value.DoubleValue
0.065

@<SCITEGIC>MOL_PROPERTY
Angle
SciTegic.value.DoubleValue
0.931

@<SCITEGIC>MOL_PROPERTY
Pdih
SciTegic.value.DoubleValue
5.338

@<SCITEGIC>MOL_PROPERTY
Idih
SciTegic.value.DoubleValue
0.000

@<SCITEGIC>MOL_PROPERTY
Tether
SciTegic.value.DoubleValue
0.000

@<TRIPOS>MOLECULE
guest-s16_confgen4.mol2 : confsearch ligand conformer 207
          13          13           1
SMALL
USER_CHARGES
 
@<TRIPOS>ATOM
       1    C1      20.713812   19.420870   22.811767 C.3        1 MOL1        -0.1693
       2    H1      21.567249   18.730164   22.799221 H          1 MOL1         0.0829
       3    H2      21.005969   20.329068   23.352284 H          1 MOL1         0.0829
       4    C2      19.354705   18.774437   23.238714 C.3        1 MOL1        -0.1768
       5    H3      18.590633   19.489694   23.567946 H          1 MOL1         0.0829
       6    H4      19.416128   17.961947   23.971011 H          1 MOL1         0.0829
       7    C3      19.233309   18.337945   21.747429 C.3        1 MOL1         0.1211
       8    H5      19.778237   17.414660   21.507304 H          1 MOL1         0.0786
       9    C4      20.027829   19.638789   21.422795 C.3        1 MOL1        -0.1768
      10    H6      19.410205   20.542715   21.351788 H          1 MOL1         0.0829
      11    H7      20.683498   19.590268   20.546608 H          1 MOL1         0.0829
      12    O1      17.920721   18.291001   21.238059 O.3        1 MOL1        -0.5515
      13    H8      17.479806   17.512822   21.642084 H          1 MOL1         0.3773
@<TRIPOS>BOND
    1     1     2    1
    2     1     3    1
    3     1     4    1
    4     4     5    1
    5     4     6    1
    6     4     7    1
    7     7     8    1
    8     1     9    1
    9     7     9    1
   10     9    10    1
   11     9    11    1
   12     7    12    1
   13    12    13    1
@<TRIPOS>SUBSTRUCTURE
       1 MOL1            1 RESIDUE      1      MOL     
@<SCITEGIC>MOL_PROPERTY
VConf Rank
SciTegic.value.IntegerValue
207

@<SCITEGIC>MOL_PROPERTY
Conf_Id
SciTegic.value.IntegerValue
19

@<SCITEGIC>MOL_PROPERTY
Delta U+W
SciTegic.value.DoubleValue
-0.011

@<SCITEGIC>MOL_PROPERTY
U+W
SciTegic.value.DoubleValue
-3.142

@<SCITEGIC>MOL_PROPERTY
Grad RMS
SciTegic.value.DoubleValue
0.000000

@<SCITEGIC>MOL_PROPERTY
U
SciTegic.value.DoubleValue
-0.154

@<SCITEGIC>MOL_PROPERTY
W
SciTegic.value.DoubleValue
-2.989

@<SCITEGIC>MOL_PROPERTY
W(PB)
SciTegic.value.DoubleValue
-4.588

@<SCITEGIC>MOL_PROPERTY
W(SA)
SciTegic.value.DoubleValue
1.599

@<SCITEGIC>MOL_PROPERTY
Valence
SciTegic.value.DoubleValue
6.334

@<SCITEGIC>MOL_PROPERTY
Coulomb
SciTegic.value.DoubleValue
-7.439

@<SCITEGIC>MOL_PROPERTY
VdW
SciTegic.value.DoubleValue
0.951

@<SCITEGIC>MOL_PROPERTY
VdW6
SciTegic.value.DoubleValue
-2.120

@<SCITEGIC>MOL_PROPERTY
VdW12
SciTegic.value.DoubleValue
3.072

@<SCITEGIC>MOL_PROPERTY
Bond
SciTegic.value.DoubleValue
0.065

@<SCITEGIC>MOL_PROPERTY
Angle
SciTegic.value.DoubleValue
0.930

@<SCITEGIC>MOL_PROPERTY
Pdih
SciTegic.value.DoubleValue
5.339

@<SCITEGIC>MOL_PROPERTY
Idih
SciTegic.value.DoubleValue
0.000

@<SCITEGIC>MOL_PROPERTY
Tether
SciTegic.value.DoubleValue
0.000

@<TRIPOS>MOLECULE
guest-s16_confgen4.mol2 : confsearch ligand conformer 208
          13          13           1
SMALL
USER_CHARGES
 
@<TRIPOS>ATOM
       1    C1      20.267121   18.045993   21.965620 C.3        1 MOL1        -0.1693
       2    H1      20.225559   16.956682   21.848786 H          1 MOL1         0.0829
       3    H2      21.244529   18.399915   21.612604 H          1 MOL1         0.0829
       4    C2      19.839880   18.605335   23.363323 C.3        1 MOL1        -0.1768
       5    H3      19.079524   18.007072   23.879760 H          1 MOL1         0.0829
       6    H4      20.653549   18.819461   24.065097 H          1 MOL1         0.0829
       7    C3      19.269502   19.835516   22.590826 C.3        1 MOL1         0.1211
       8    H5      18.350812   20.257742   23.018080 H          1 MOL1         0.0786
       9    C4      19.044497   18.845810   21.405099 C.3        1 MOL1        -0.1768
      10    H6      19.164918   19.265463   20.400240 H          1 MOL1         0.0829
      11    H7      18.091042   18.305263   21.446409 H          1 MOL1         0.0829
      12    O1      20.204225   20.865751   22.339716 O.3        1 MOL1        -0.5515
      13    H8      19.786530   21.489693   21.708541 H          1 MOL1         0.3773
@<TRIPOS>BOND
    1     1     2    1
    2     1     3    1
    3     1     4    1
    4     4     5    1
    5     4     6    1
    6     4     7    1
    7     7     8    1
    8     1     9    1
    9     7     9    1
   10     9    10    1
   11     9    11    1
   12     7    12    1
   13    12    13    1
@<TRIPOS>SUBSTRUCTURE
       1 MOL1            1 RESIDUE      1      MOL     
@<SCITEGIC>MOL_PROPERTY
VConf Rank
SciTegic.value.IntegerValue
208

@<SCITEGIC>MOL_PROPERTY
Conf_Id
SciTegic.value.IntegerValue
20

@<SCITEGIC>MOL_PROPERTY
Delta U+W
SciTegic.value.DoubleValue
1.030

@<SCITEGIC>MOL_PROPERTY
U+W
SciTegic.value.DoubleValue
-2.101

@<SCITEGIC>MOL_PROPERTY
Grad RMS
SciTegic.value.DoubleValue
0.000000

@<SCITEGIC>MOL_PROPERTY
U
SciTegic.value.DoubleValue
0.841

@<SCITEGIC>MOL_PROPERTY
W
SciTegic.value.DoubleValue
-2.942

@<SCITEGIC>MOL_PROPERTY
W(PB)
SciTegic.value.DoubleValue
-4.530

@<SCITEGIC>MOL_PROPERTY
W(SA)
SciTegic.value.DoubleValue
1.587

@<SCITEGIC>MOL_PROPERTY
Valence
SciTegic.value.DoubleValue
6.736

@<SCITEGIC>MOL_PROPERTY
Coulomb
SciTegic.value.DoubleValue
-7.246

@<SCITEGIC>MOL_PROPERTY
VdW
SciTegic.value.DoubleValue
1.352

@<SCITEGIC>MOL_PROPERTY
VdW6
SciTegic.value.DoubleValue
-2.500

@<SCITEGIC>MOL_PROPERTY
VdW12
SciTegic.value.DoubleValue
3.851

@<SCITEGIC>MOL_PROPERTY
Bond
SciTegic.value.DoubleValue
0.063

@<SCITEGIC>MOL_PROPERTY
Angle
SciTegic.value.DoubleValue
0.687

@<SCITEGIC>MOL_PROPERTY
Pdih
SciTegic.value.DoubleValue
5.986

@<SCITEGIC>MOL_PROPERTY
Idih
SciTegic.value.DoubleValue
0.000

@<SCITEGIC>MOL_PROPERTY
Tether
SciTegic.value.DoubleValue
0.000

@<TRIPOS>MOLECULE
guest-s16_confgen4.mol2 : confsearch ligand conformer 209
          13          13           1
SMALL
USER_CHARGES
 
@<TRIPOS>ATOM
       1    C1      19.669074   18.715553   20.955085 C.3        1 MOL1        -0.1693
       2    H1      20.331963   17.948256   20.533775 H          1 MOL1         0.0829
       3    H2      19.052973   19.127772   20.147053 H          1 MOL1         0.0829
       4    C2      20.380573   19.759503   21.877742 C.3        1 MOL1        -0.1768
       5    H3      21.416161   20.005534   21.618286 H          1 MOL1         0.0829
       6    H4      19.823807   20.692891   22.026692 H          1 MOL1         0.0829
       7    C3      20.199105   18.701428   23.007655 C.3        1 MOL1         0.1211
       8    H5      20.978128   17.927051   23.020214 H          1 MOL1         0.0786
       9    C4      18.904474   18.280566   22.248735 C.3        1 MOL1        -0.1768
      10    H6      18.017781   18.883393   22.480606 H          1 MOL1         0.0829
      11    H7      18.636442   17.220471   22.316924 H          1 MOL1         0.0829
      12    O1      19.999536   19.224615   24.299268 O.3        1 MOL1        -0.5515
      13    H8      19.298586   19.905805   24.226000 H          1 MOL1         0.3773
@<TRIPOS>BOND
    1     1     2    1
    2     1     3    1
    3     1     4    1
    4     4     5    1
    5     4     6    1
    6     4     7    1
    7     7     8    1
    8     1     9    1
    9     7     9    1
   10     9    10    1
   11     9    11    1
   12     7    12    1
   13    12    13    1
@<TRIPOS>SUBSTRUCTURE
       1 MOL1            1 RESIDUE      1      MOL     
@<SCITEGIC>MOL_PROPERTY
VConf Rank
SciTegic.value.IntegerValue
209

@<SCITEGIC>MOL_PROPERTY
Conf_Id
SciTegic.value.IntegerValue
24

@<SCITEGIC>MOL_PROPERTY
Delta U+W
SciTegic.value.DoubleValue
0.356

@<SCITEGIC>MOL_PROPERTY
U+W
SciTegic.value.DoubleValue
-2.775

@<SCITEGIC>MOL_PROPERTY
Grad RMS
SciTegic.value.DoubleValue
0.000000

@<SCITEGIC>MOL_PROPERTY
U
SciTegic.value.DoubleValue
-0.184

@<SCITEGIC>MOL_PROPERTY
W
SciTegic.value.DoubleValue
-2.591

@<SCITEGIC>MOL_PROPERTY
W(PB)
SciTegic.value.DoubleValue
-4.184

@<SCITEGIC>MOL_PROPERTY
W(SA)
SciTegic.value.DoubleValue
1.593

@<SCITEGIC>MOL_PROPERTY
Valence
SciTegic.value.DoubleValue
6.840

@<SCITEGIC>MOL_PROPERTY
Coulomb
SciTegic.value.DoubleValue
-7.916

@<SCITEGIC>MOL_PROPERTY
VdW
SciTegic.value.DoubleValue
0.893

@<SCITEGIC>MOL_PROPERTY
VdW6
SciTegic.value.DoubleValue
-2.167

@<SCITEGIC>MOL_PROPERTY
VdW12
SciTegic.value.DoubleValue
3.060

@<SCITEGIC>MOL_PROPERTY
Bond
SciTegic.value.DoubleValue
0.059

@<SCITEGIC>MOL_PROPERTY
Angle
SciTegic.value.DoubleValue
0.918

@<SCITEGIC>MOL_PROPERTY
Pdih
SciTegic.value.DoubleValue
5.862

@<SCITEGIC>MOL_PROPERTY
Idih
SciTegic.value.DoubleValue
0.000

@<SCITEGIC>MOL_PROPERTY
Tether
SciTegic.value.DoubleValue
0.000

@<TRIPOS>MOLECULE
guest-s16_confgen4.mol2 : confsearch ligand conformer 210
          13          13           1
SMALL
USER_CHARGES
 
@<TRIPOS>ATOM
       1    C1      19.825640   18.316790   23.115319 C.3        1 MOL1        -0.1693
       2    H1      20.258618   18.233651   24.119307 H          1 MOL1         0.0829
       3    H2      19.300474   17.380936   22.885816 H          1 MOL1         0.0829
       4    C2      20.792792   18.821456   21.992792 C.3        1 MOL1        -0.1768
       5    H3      21.573548   19.508094   22.342024 H          1 MOL1         0.0829
       6    H4      21.261037   18.047460   21.374420 H          1 MOL1         0.0829
       7    C3      19.551501   19.532844   21.370604 C.3        1 MOL1         0.1211
       8    H5      19.763432   20.501384   20.899965 H          1 MOL1         0.0786
       9    C4      19.005638   19.619126   22.829570 C.3        1 MOL1        -0.1768
      10    H6      19.348210   20.501340   23.383969 H          1 MOL1         0.0829
      11    H7      17.918319   19.539433   22.939545 H          1 MOL1         0.0829
      12    O1      18.785060   18.730305   20.498694 O.3        1 MOL1        -0.5515
      13    H8      18.627586   17.885152   20.967983 H          1 MOL1         0.3773
@<TRIPOS>BOND
    1     1     2    1
    2     1     3    1
    3     1     4    1
    4     4     5    1
    5     4     6    1
    6     4     7    1
    7     7     8    1
    8     1     9    1
    9     7     9    1
   10     9    10    1
   11     9    11    1
   12     7    12    1
   13    12    13    1
@<TRIPOS>SUBSTRUCTURE
       1 MOL1            1 RESIDUE      1      MOL     
@<SCITEGIC>MOL_PROPERTY
VConf Rank
SciTegic.value.IntegerValue
210

@<SCITEGIC>MOL_PROPERTY
Conf_Id
SciTegic.value.IntegerValue
44

@<SCITEGIC>MOL_PROPERTY
Delta U+W
SciTegic.value.DoubleValue
0.823

@<SCITEGIC>MOL_PROPERTY
U+W
SciTegic.value.DoubleValue
-2.308

@<SCITEGIC>MOL_PROPERTY
Grad RMS
SciTegic.value.DoubleValue
0.000000

@<SCITEGIC>MOL_PROPERTY
U
SciTegic.value.DoubleValue
0.039

@<SCITEGIC>MOL_PROPERTY
W
SciTegic.value.DoubleValue
-2.348

@<SCITEGIC>MOL_PROPERTY
W(PB)
SciTegic.value.DoubleValue
-3.918

@<SCITEGIC>MOL_PROPERTY
W(SA)
SciTegic.value.DoubleValue
1.571

@<SCITEGIC>MOL_PROPERTY
Valence
SciTegic.value.DoubleValue
7.320

@<SCITEGIC>MOL_PROPERTY
Coulomb
SciTegic.value.DoubleValue
-8.530

@<SCITEGIC>MOL_PROPERTY
VdW
SciTegic.value.DoubleValue
1.249

@<SCITEGIC>MOL_PROPERTY
VdW6
SciTegic.value.DoubleValue
-2.615

@<SCITEGIC>MOL_PROPERTY
VdW12
SciTegic.value.DoubleValue
3.864

@<SCITEGIC>MOL_PROPERTY
Bond
SciTegic.value.DoubleValue
0.056

@<SCITEGIC>MOL_PROPERTY
Angle
SciTegic.value.DoubleValue
0.694

@<SCITEGIC>MOL_PROPERTY
Pdih
SciTegic.value.DoubleValue
6.570

@<SCITEGIC>MOL_PROPERTY
Idih
SciTegic.value.DoubleValue
0.000

@<SCITEGIC>MOL_PROPERTY
Tether
SciTegic.value.DoubleValue
0.000

@<TRIPOS>MOLECULE
guest-s16_confgen4.mol2 : confsearch ligand conformer 211
          13          13           1
SMALL
USER_CHARGES
 
@<TRIPOS>ATOM
       1    C1      20.817739   19.557467   21.857611 C.3        1 MOL1        -0.1693
       2    H1      20.724081   20.567038   21.436207 H          1 MOL1         0.0829
       3    H2      21.879223   19.283271   21.877791 H          1 MOL1         0.0829
       4    C2      19.846158   18.498006   21.240458 C.3        1 MOL1        -0.1768
       5    H3      19.593546   18.631497   20.182948 H          1 MOL1         0.0829
       6    H4      20.140571   17.453883   21.403906 H          1 MOL1         0.0829
       7    C3      18.800706   19.041204   22.260661 C.3        1 MOL1         0.1211
       8    H5      18.278699   19.946079   21.920410 H          1 MOL1         0.0786
       9    C4      20.022917   19.325835   23.184988 C.3        1 MOL1        -0.1768
      10    H6      19.928872   20.192654   23.848277 H          1 MOL1         0.0829
      11    H7      20.358382   18.464036   23.775377 H          1 MOL1         0.0829
      12    O1      17.884575   18.088915   22.748919 O.3        1 MOL1        -0.5515
      13    H8      17.397259   18.508021   23.490591 H          1 MOL1         0.3773
@<TRIPOS>BOND
    1     1     2    1
    2     1     3    1
    3     1     4    1
    4     4     5    1
    5     4     6    1
    6     4     7    1
    7     7     8    1
    8     1     9    1
    9     7     9    1
   10     9    10    1
   11     9    11    1
   12     7    12    1
   13    12    13    1
@<TRIPOS>SUBSTRUCTURE
       1 MOL1            1 RESIDUE      1      MOL     
@<SCITEGIC>MOL_PROPERTY
VConf Rank
SciTegic.value.IntegerValue
211

@<SCITEGIC>MOL_PROPERTY
Conf_Id
SciTegic.value.IntegerValue
22

@<SCITEGIC>MOL_PROPERTY
Delta U+W
SciTegic.value.DoubleValue
0.000

@<SCITEGIC>MOL_PROPERTY
U+W
SciTegic.value.DoubleValue
-3.131

@<SCITEGIC>MOL_PROPERTY
Grad RMS
SciTegic.value.DoubleValue
0.000000

@<SCITEGIC>MOL_PROPERTY
U
SciTegic.value.DoubleValue
-0.154

@<SCITEGIC>MOL_PROPERTY
W
SciTegic.value.DoubleValue
-2.978

@<SCITEGIC>MOL_PROPERTY
W(PB)
SciTegic.value.DoubleValue
-4.579

@<SCITEGIC>MOL_PROPERTY
W(SA)
SciTegic.value.DoubleValue
1.601

@<SCITEGIC>MOL_PROPERTY
Valence
SciTegic.value.DoubleValue
6.333

@<SCITEGIC>MOL_PROPERTY
Coulomb
SciTegic.value.DoubleValue
-7.439

@<SCITEGIC>MOL_PROPERTY
VdW
SciTegic.value.DoubleValue
0.952

@<SCITEGIC>MOL_PROPERTY
VdW6
SciTegic.value.DoubleValue
-2.120

@<SCITEGIC>MOL_PROPERTY
VdW12
SciTegic.value.DoubleValue
3.072

@<SCITEGIC>MOL_PROPERTY
Bond
SciTegic.value.DoubleValue
0.065

@<SCITEGIC>MOL_PROPERTY
Angle
SciTegic.value.DoubleValue
0.931

@<SCITEGIC>MOL_PROPERTY
Pdih
SciTegic.value.DoubleValue
5.338

@<SCITEGIC>MOL_PROPERTY
Idih
SciTegic.value.DoubleValue
0.000

@<SCITEGIC>MOL_PROPERTY
Tether
SciTegic.value.DoubleValue
0.000

@<TRIPOS>MOLECULE
guest-s16_confgen4.mol2 : confsearch ligand conformer 212
          13          13           1
SMALL
USER_CHARGES
 
@<TRIPOS>ATOM
       1    C1      20.745885   19.285820   22.850151 C.3        1 MOL1        -0.1693
       2    H1      21.640037   19.163476   22.224763 H          1 MOL1         0.0829
       3    H2      21.057070   19.634606   23.842043 H          1 MOL1         0.0829
       4    C2      19.759668   18.071666   22.826949 C.3        1 MOL1        -0.1768
       5    H3      19.057399   18.035751   23.669162 H          1 MOL1         0.0829
       6    H4      20.215059   17.082765   22.705026 H          1 MOL1         0.0829
       7    C3      19.184474   18.719747   21.531443 C.3        1 MOL1         0.1211
       8    H5      19.752329   18.478724   20.622317 H          1 MOL1         0.0786
       9    C4      19.580055   20.082223   22.176439 C.3        1 MOL1        -0.1768
      10    H6      18.836750   20.487525   22.874159 H          1 MOL1         0.0829
      11    H7      19.874802   20.872387   21.477350 H          1 MOL1         0.0829
      12    O1      17.804080   18.529786   21.324137 O.3        1 MOL1        -0.5515
      13    H8      17.674491   17.589905   21.073070 H          1 MOL1         0.3773
@<TRIPOS>BOND
    1     1     2    1
    2     1     3    1
    3     1     4    1
    4     4     5    1
    5     4     6    1
    6     4     7    1
    7     7     8    1
    8     1     9    1
    9     7     9    1
   10     9    10    1
   11     9    11    1
   12     7    12    1
   13    12    13    1
@<TRIPOS>SUBSTRUCTURE
       1 MOL1            1 RESIDUE      1      MOL     
@<SCITEGIC>MOL_PROPERTY
VConf Rank
SciTegic.value.IntegerValue
212

@<SCITEGIC>MOL_PROPERTY
Conf_Id
SciTegic.value.IntegerValue
19

@<SCITEGIC>MOL_PROPERTY
Delta U+W
SciTegic.value.DoubleValue
-0.011

@<SCITEGIC>MOL_PROPERTY
U+W
SciTegic.value.DoubleValue
-3.142

@<SCITEGIC>MOL_PROPERTY
Grad RMS
SciTegic.value.DoubleValue
0.000000

@<SCITEGIC>MOL_PROPERTY
U
SciTegic.value.DoubleValue
-0.154

@<SCITEGIC>MOL_PROPERTY
W
SciTegic.value.DoubleValue
-2.989

@<SCITEGIC>MOL_PROPERTY
W(PB)
SciTegic.value.DoubleValue
-4.588

@<SCITEGIC>MOL_PROPERTY
W(SA)
SciTegic.value.DoubleValue
1.599

@<SCITEGIC>MOL_PROPERTY
Valence
SciTegic.value.DoubleValue
6.334

@<SCITEGIC>MOL_PROPERTY
Coulomb
SciTegic.value.DoubleValue
-7.439

@<SCITEGIC>MOL_PROPERTY
VdW
SciTegic.value.DoubleValue
0.951

@<SCITEGIC>MOL_PROPERTY
VdW6
SciTegic.value.DoubleValue
-2.120

@<SCITEGIC>MOL_PROPERTY
VdW12
SciTegic.value.DoubleValue
3.072

@<SCITEGIC>MOL_PROPERTY
Bond
SciTegic.value.DoubleValue
0.065

@<SCITEGIC>MOL_PROPERTY
Angle
SciTegic.value.DoubleValue
0.930

@<SCITEGIC>MOL_PROPERTY
Pdih
SciTegic.value.DoubleValue
5.339

@<SCITEGIC>MOL_PROPERTY
Idih
SciTegic.value.DoubleValue
0.000

@<SCITEGIC>MOL_PROPERTY
Tether
SciTegic.value.DoubleValue
0.000

@<TRIPOS>MOLECULE
guest-s16_confgen4.mol2 : confsearch ligand conformer 213
          13          13           1
SMALL
USER_CHARGES
 
@<TRIPOS>ATOM
       1    C1      20.401224   18.116526   22.499450 C.3        1 MOL1        -0.1693
       2    H1      20.530709   17.163331   23.025405 H          1 MOL1         0.0829
       3    H2      21.282208   18.291746   21.868283 H          1 MOL1         0.0829
       4    C2      19.981305   19.338514   23.382278 C.3        1 MOL1        -0.1768
       5    H3      19.364688   19.081050   24.251911 H          1 MOL1         0.0829
       6    H4      20.793459   19.996381   23.710928 H          1 MOL1         0.0829
       7    C3      19.167841   19.831681   22.145148 C.3        1 MOL1         0.1211
       8    H5      18.222651   20.333185   22.389940 H          1 MOL1         0.0786
       9    C4      19.030052   18.321945   21.773921 C.3        1 MOL1        -0.1768
      10    H6      19.013777   18.090568   20.703150 H          1 MOL1         0.0829
      11    H7      18.182623   17.817308   22.253691 H          1 MOL1         0.0829
      12    O1      19.902949   20.609180   21.221429 O.3        1 MOL1        -0.5515
      13    H8      19.348203   20.708280   20.418565 H          1 MOL1         0.3773
@<TRIPOS>BOND
    1     1     2    1
    2     1     3    1
    3     1     4    1
    4     4     5    1
    5     4     6    1
    6     4     7    1
    7     7     8    1
    8     1     9    1
    9     7     9    1
   10     9    10    1
   11     9    11    1
   12     7    12    1
   13    12    13    1
@<TRIPOS>SUBSTRUCTURE
       1 MOL1            1 RESIDUE      1      MOL     
@<SCITEGIC>MOL_PROPERTY
VConf Rank
SciTegic.value.IntegerValue
213

@<SCITEGIC>MOL_PROPERTY
Conf_Id
SciTegic.value.IntegerValue
20

@<SCITEGIC>MOL_PROPERTY
Delta U+W
SciTegic.value.DoubleValue
1.030

@<SCITEGIC>MOL_PROPERTY
U+W
SciTegic.value.DoubleValue
-2.101

@<SCITEGIC>MOL_PROPERTY
Grad RMS
SciTegic.value.DoubleValue
0.000000

@<SCITEGIC>MOL_PROPERTY
U
SciTegic.value.DoubleValue
0.841

@<SCITEGIC>MOL_PROPERTY
W
SciTegic.value.DoubleValue
-2.942

@<SCITEGIC>MOL_PROPERTY
W(PB)
SciTegic.value.DoubleValue
-4.530

@<SCITEGIC>MOL_PROPERTY
W(SA)
SciTegic.value.DoubleValue
1.587

@<SCITEGIC>MOL_PROPERTY
Valence
SciTegic.value.DoubleValue
6.736

@<SCITEGIC>MOL_PROPERTY
Coulomb
SciTegic.value.DoubleValue
-7.246

@<SCITEGIC>MOL_PROPERTY
VdW
SciTegic.value.DoubleValue
1.352

@<SCITEGIC>MOL_PROPERTY
VdW6
SciTegic.value.DoubleValue
-2.500

@<SCITEGIC>MOL_PROPERTY
VdW12
SciTegic.value.DoubleValue
3.851

@<SCITEGIC>MOL_PROPERTY
Bond
SciTegic.value.DoubleValue
0.063

@<SCITEGIC>MOL_PROPERTY
Angle
SciTegic.value.DoubleValue
0.687

@<SCITEGIC>MOL_PROPERTY
Pdih
SciTegic.value.DoubleValue
5.986

@<SCITEGIC>MOL_PROPERTY
Idih
SciTegic.value.DoubleValue
0.000

@<SCITEGIC>MOL_PROPERTY
Tether
SciTegic.value.DoubleValue
0.000

@<TRIPOS>MOLECULE
guest-s16_confgen4.mol2 : confsearch ligand conformer 214
          13          13           1
SMALL
USER_CHARGES
 
@<TRIPOS>ATOM
       1    C1      20.126486   17.929428   21.541083 C.3        1 MOL1        -0.1693
       2    H1      21.171890   17.608047   21.638626 H          1 MOL1         0.0829
       3    H2      19.616055   17.253406   20.844753 H          1 MOL1         0.0829
       4    C2      19.934501   19.459627   21.278425 C.3        1 MOL1        -0.1768
       5    H3      20.720674   19.950986   20.694653 H          1 MOL1         0.0829
       6    H4      18.959667   19.732490   20.855775 H          1 MOL1         0.0829
       7    C3      20.043755   19.613956   22.825488 C.3        1 MOL1         0.1211
       8    H5      21.077133   19.648775   23.196448 H          1 MOL1         0.0786
       9    C4      19.395648   18.198374   22.897881 C.3        1 MOL1        -0.1768
      10    H6      18.300375   18.189331   22.837199 H          1 MOL1         0.0829
      11    H7      19.705932   17.575856   23.744337 H          1 MOL1         0.0829
      12    O1      19.281230   20.657128   23.384205 O.3        1 MOL1        -0.5515
      13    H8      18.375257   20.575431   23.019161 H          1 MOL1         0.3773
@<TRIPOS>BOND
    1     1     2    1
    2     1     3    1
    3     1     4    1
    4     4     5    1
    5     4     6    1
    6     4     7    1
    7     7     8    1
    8     1     9    1
    9     7     9    1
   10     9    10    1
   11     9    11    1
   12     7    12    1
   13    12    13    1
@<TRIPOS>SUBSTRUCTURE
       1 MOL1            1 RESIDUE      1      MOL     
@<SCITEGIC>MOL_PROPERTY
VConf Rank
SciTegic.value.IntegerValue
214

@<SCITEGIC>MOL_PROPERTY
Conf_Id
SciTegic.value.IntegerValue
24

@<SCITEGIC>MOL_PROPERTY
Delta U+W
SciTegic.value.DoubleValue
0.356

@<SCITEGIC>MOL_PROPERTY
U+W
SciTegic.value.DoubleValue
-2.775

@<SCITEGIC>MOL_PROPERTY
Grad RMS
SciTegic.value.DoubleValue
0.000000

@<SCITEGIC>MOL_PROPERTY
U
SciTegic.value.DoubleValue
-0.184

@<SCITEGIC>MOL_PROPERTY
W
SciTegic.value.DoubleValue
-2.591

@<SCITEGIC>MOL_PROPERTY
W(PB)
SciTegic.value.DoubleValue
-4.184

@<SCITEGIC>MOL_PROPERTY
W(SA)
SciTegic.value.DoubleValue
1.593

@<SCITEGIC>MOL_PROPERTY
Valence
SciTegic.value.DoubleValue
6.840

@<SCITEGIC>MOL_PROPERTY
Coulomb
SciTegic.value.DoubleValue
-7.916

@<SCITEGIC>MOL_PROPERTY
VdW
SciTegic.value.DoubleValue
0.893

@<SCITEGIC>MOL_PROPERTY
VdW6
SciTegic.value.DoubleValue
-2.167

@<SCITEGIC>MOL_PROPERTY
VdW12
SciTegic.value.DoubleValue
3.060

@<SCITEGIC>MOL_PROPERTY
Bond
SciTegic.value.DoubleValue
0.059

@<SCITEGIC>MOL_PROPERTY
Angle
SciTegic.value.DoubleValue
0.918

@<SCITEGIC>MOL_PROPERTY
Pdih
SciTegic.value.DoubleValue
5.862

@<SCITEGIC>MOL_PROPERTY
Idih
SciTegic.value.DoubleValue
0.000

@<SCITEGIC>MOL_PROPERTY
Tether
SciTegic.value.DoubleValue
0.000

@<TRIPOS>MOLECULE
guest-s16_confgen4.mol2 : confsearch ligand conformer 215
          13          13           1
SMALL
USER_CHARGES
 
@<TRIPOS>ATOM
       1    C1      19.973776   18.522767   21.215885 C.3        1 MOL1        -0.1693
       2    H1      20.746274   17.995434   20.643575 H          1 MOL1         0.0829
       3    H2      19.109876   18.689614   20.560038 H          1 MOL1         0.0829
       4    C2      20.451735   19.784711   22.009100 C.3        1 MOL1        -0.1768
       5    H3      21.491800   19.736324   22.353977 H          1 MOL1         0.0829
       6    H4      20.291817   20.752121   21.519966 H          1 MOL1         0.0829
       7    C3      19.402660   19.387196   23.093266 C.3        1 MOL1         0.1211
       8    H5      19.709639   19.589315   24.127384 H          1 MOL1         0.0786
       9    C4      19.628986   17.918533   22.618082 C.3        1 MOL1        -0.1768
      10    H6      20.467325   17.412587   23.112270 H          1 MOL1         0.0829
      11    H7      18.752937   17.261593   22.659013 H          1 MOL1         0.0829
      12    O1      18.102150   19.887579   22.869620 O.3        1 MOL1        -0.5515
      13    H8      17.882881   19.680200   21.937832 H          1 MOL1         0.3773
@<TRIPOS>BOND
    1     1     2    1
    2     1     3    1
    3     1     4    1
    4     4     5    1
    5     4     6    1
    6     4     7    1
    7     7     8    1
    8     1     9    1
    9     7     9    1
   10     9    10    1
   11     9    11    1
   12     7    12    1
   13    12    13    1
@<TRIPOS>SUBSTRUCTURE
       1 MOL1            1 RESIDUE      1      MOL     
@<SCITEGIC>MOL_PROPERTY
VConf Rank
SciTegic.value.IntegerValue
215

@<SCITEGIC>MOL_PROPERTY
Conf_Id
SciTegic.value.IntegerValue
44

@<SCITEGIC>MOL_PROPERTY
Delta U+W
SciTegic.value.DoubleValue
0.823

@<SCITEGIC>MOL_PROPERTY
U+W
SciTegic.value.DoubleValue
-2.308

@<SCITEGIC>MOL_PROPERTY
Grad RMS
SciTegic.value.DoubleValue
0.000000

@<SCITEGIC>MOL_PROPERTY
U
SciTegic.value.DoubleValue
0.039

@<SCITEGIC>MOL_PROPERTY
W
SciTegic.value.DoubleValue
-2.348

@<SCITEGIC>MOL_PROPERTY
W(PB)
SciTegic.value.DoubleValue
-3.918

@<SCITEGIC>MOL_PROPERTY
W(SA)
SciTegic.value.DoubleValue
1.571

@<SCITEGIC>MOL_PROPERTY
Valence
SciTegic.value.DoubleValue
7.320

@<SCITEGIC>MOL_PROPERTY
Coulomb
SciTegic.value.DoubleValue
-8.530

@<SCITEGIC>MOL_PROPERTY
VdW
SciTegic.value.DoubleValue
1.249

@<SCITEGIC>MOL_PROPERTY
VdW6
SciTegic.value.DoubleValue
-2.615

@<SCITEGIC>MOL_PROPERTY
VdW12
SciTegic.value.DoubleValue
3.864

@<SCITEGIC>MOL_PROPERTY
Bond
SciTegic.value.DoubleValue
0.056

@<SCITEGIC>MOL_PROPERTY
Angle
SciTegic.value.DoubleValue
0.694

@<SCITEGIC>MOL_PROPERTY
Pdih
SciTegic.value.DoubleValue
6.570

@<SCITEGIC>MOL_PROPERTY
Idih
SciTegic.value.DoubleValue
0.000

@<SCITEGIC>MOL_PROPERTY
Tether
SciTegic.value.DoubleValue
0.000

@<TRIPOS>MOLECULE
guest-s16_confgen4.mol2 : confsearch ligand conformer 216
          13          13           1
SMALL
USER_CHARGES
 
@<TRIPOS>ATOM
       1    C1      20.264571   19.901462   21.443783 C.3        1 MOL1        -0.1693
       2    H1      20.244515   20.934603   21.815003 H          1 MOL1         0.0829
       3    H2      20.836781   19.876135   20.508758 H          1 MOL1         0.0829
       4    C2      18.872256   19.188699   21.416646 C.3        1 MOL1        -0.1768
       5    H3      18.005366   19.828095   21.217560 H          1 MOL1         0.0829
       6    H4      18.818942   18.308540   20.763912 H          1 MOL1         0.0829
       7    C3      19.144980   18.864552   22.916445 C.3        1 MOL1         0.1211
       8    H5      18.885641   19.683941   23.600847 H          1 MOL1         0.0786
       9    C4      20.650483   18.828427   22.514761 C.3        1 MOL1        -0.1768
      10    H6      21.358786   19.150028   23.286156 H          1 MOL1         0.0829
      11    H7      20.989159   17.870065   22.101680 H          1 MOL1         0.0829
      12    O1      18.613951   17.642886   23.374798 O.3        1 MOL1        -0.5515
      13    H8      18.987295   17.480474   24.267793 H          1 MOL1         0.3773
@<TRIPOS>BOND
    1     1     2    1
    2     1     3    1
    3     1     4    1
    4     4     5    1
    5     4     6    1
    6     4     7    1
    7     7     8    1
    8     1     9    1
    9     7     9    1
   10     9    10    1
   11     9    11    1
   12     7    12    1
   13    12    13    1
@<TRIPOS>SUBSTRUCTURE
       1 MOL1            1 RESIDUE      1      MOL     
@<SCITEGIC>MOL_PROPERTY
VConf Rank
SciTegic.value.IntegerValue
216

@<SCITEGIC>MOL_PROPERTY
Conf_Id
SciTegic.value.IntegerValue
22

@<SCITEGIC>MOL_PROPERTY
Delta U+W
SciTegic.value.DoubleValue
0.000

@<SCITEGIC>MOL_PROPERTY
U+W
SciTegic.value.DoubleValue
-3.131

@<SCITEGIC>MOL_PROPERTY
Grad RMS
SciTegic.value.DoubleValue
0.000000

@<SCITEGIC>MOL_PROPERTY
U
SciTegic.value.DoubleValue
-0.154

@<SCITEGIC>MOL_PROPERTY
W
SciTegic.value.DoubleValue
-2.978

@<SCITEGIC>MOL_PROPERTY
W(PB)
SciTegic.value.DoubleValue
-4.579

@<SCITEGIC>MOL_PROPERTY
W(SA)
SciTegic.value.DoubleValue
1.601

@<SCITEGIC>MOL_PROPERTY
Valence
SciTegic.value.DoubleValue
6.333

@<SCITEGIC>MOL_PROPERTY
Coulomb
SciTegic.value.DoubleValue
-7.439

@<SCITEGIC>MOL_PROPERTY
VdW
SciTegic.value.DoubleValue
0.952

@<SCITEGIC>MOL_PROPERTY
VdW6
SciTegic.value.DoubleValue
-2.120

@<SCITEGIC>MOL_PROPERTY
VdW12
SciTegic.value.DoubleValue
3.072

@<SCITEGIC>MOL_PROPERTY
Bond
SciTegic.value.DoubleValue
0.065

@<SCITEGIC>MOL_PROPERTY
Angle
SciTegic.value.DoubleValue
0.931

@<SCITEGIC>MOL_PROPERTY
Pdih
SciTegic.value.DoubleValue
5.338

@<SCITEGIC>MOL_PROPERTY
Idih
SciTegic.value.DoubleValue
0.000

@<SCITEGIC>MOL_PROPERTY
Tether
SciTegic.value.DoubleValue
0.000

@<TRIPOS>MOLECULE
guest-s16_confgen4.mol2 : confsearch ligand conformer 217
          13          13           1
SMALL
USER_CHARGES
 
@<TRIPOS>ATOM
       1    C1      20.437034   18.980659   23.288043 C.3        1 MOL1        -0.1693
       2    H1      21.108957   19.848948   23.274617 H          1 MOL1         0.0829
       3    H2      20.675352   18.366690   24.164733 H          1 MOL1         0.0829
       4    C2      20.324062   18.219219   21.926141 C.3        1 MOL1        -0.1768
       5    H3      19.936140   17.195886   22.004249 H          1 MOL1         0.0829
       6    H4      21.225464   18.208155   21.303628 H          1 MOL1         0.0829
       7    C3      19.254590   19.290537   21.555060 C.3        1 MOL1         0.1211
       8    H5      19.678107   20.230457   21.175264 H          1 MOL1         0.0786
       9    C4      18.924504   19.320348   23.077885 C.3        1 MOL1        -0.1768
      10    H6      18.227821   18.539478   23.407218 H          1 MOL1         0.0829
      11    H7      18.585825   20.284255   23.473030 H          1 MOL1         0.0829
      12    O1      18.212580   18.838574   20.721696 O.3        1 MOL1        -0.5515
      13    H8      18.591665   18.711176   19.825444 H          1 MOL1         0.3773
@<TRIPOS>BOND
    1     1     2    1
    2     1     3    1
    3     1     4    1
    4     4     5    1
    5     4     6    1
    6     4     7    1
    7     7     8    1
    8     1     9    1
    9     7     9    1
   10     9    10    1
   11     9    11    1
   12     7    12    1
   13    12    13    1
@<TRIPOS>SUBSTRUCTURE
       1 MOL1            1 RESIDUE      1      MOL     
@<SCITEGIC>MOL_PROPERTY
VConf Rank
SciTegic.value.IntegerValue
217

@<SCITEGIC>MOL_PROPERTY
Conf_Id
SciTegic.value.IntegerValue
19

@<SCITEGIC>MOL_PROPERTY
Delta U+W
SciTegic.value.DoubleValue
-0.011

@<SCITEGIC>MOL_PROPERTY
U+W
SciTegic.value.DoubleValue
-3.142

@<SCITEGIC>MOL_PROPERTY
Grad RMS
SciTegic.value.DoubleValue
0.000000

@<SCITEGIC>MOL_PROPERTY
U
SciTegic.value.DoubleValue
-0.154

@<SCITEGIC>MOL_PROPERTY
W
SciTegic.value.DoubleValue
-2.989

@<SCITEGIC>MOL_PROPERTY
W(PB)
SciTegic.value.DoubleValue
-4.588

@<SCITEGIC>MOL_PROPERTY
W(SA)
SciTegic.value.DoubleValue
1.599

@<SCITEGIC>MOL_PROPERTY
Valence
SciTegic.value.DoubleValue
6.334

@<SCITEGIC>MOL_PROPERTY
Coulomb
SciTegic.value.DoubleValue
-7.439

@<SCITEGIC>MOL_PROPERTY
VdW
SciTegic.value.DoubleValue
0.951

@<SCITEGIC>MOL_PROPERTY
VdW6
SciTegic.value.DoubleValue
-2.120

@<SCITEGIC>MOL_PROPERTY
VdW12
SciTegic.value.DoubleValue
3.072

@<SCITEGIC>MOL_PROPERTY
Bond
SciTegic.value.DoubleValue
0.065

@<SCITEGIC>MOL_PROPERTY
Angle
SciTegic.value.DoubleValue
0.930

@<SCITEGIC>MOL_PROPERTY
Pdih
SciTegic.value.DoubleValue
5.339

@<SCITEGIC>MOL_PROPERTY
Idih
SciTegic.value.DoubleValue
0.000

@<SCITEGIC>MOL_PROPERTY
Tether
SciTegic.value.DoubleValue
0.000

@<TRIPOS>MOLECULE
guest-s16_confgen4.mol2 : confsearch ligand conformer 218
          13          13           1
SMALL
USER_CHARGES
 
@<TRIPOS>ATOM
       1    C1      20.045770   18.297375   23.160383 C.3        1 MOL1        -0.1693
       2    H1      20.027887   17.271258   23.546053 H          1 MOL1         0.0829
       3    H2      20.755609   18.884550   23.757510 H          1 MOL1         0.0829
       4    C2      18.652581   18.979018   22.952153 C.3        1 MOL1        -0.1768
       5    H3      17.842356   18.287725   22.690589 H          1 MOL1         0.0829
       6    H4      18.309393   19.630192   23.763687 H          1 MOL1         0.0829
       7    C3      19.295763   19.702661   21.728189 C.3        1 MOL1         0.1211
       8    H5      18.617321   19.854929   20.878870 H          1 MOL1         0.0786
       9    C4      20.217267   18.448269   21.612313 C.3        1 MOL1        -0.1768
      10    H6      21.237299   18.633206   21.257793 H          1 MOL1         0.0829
      11    H7      19.786578   17.627589   21.025828 H          1 MOL1         0.0829
      12    O1      19.965205   20.909255   22.034983 O.3        1 MOL1        -0.5515
      13    H8      20.468657   21.173669   21.235748 H          1 MOL1         0.3773
@<TRIPOS>BOND
    1     1     2    1
    2     1     3    1
    3     1     4    1
    4     4     5    1
    5     4     6    1
    6     4     7    1
    7     7     8    1
    8     1     9    1
    9     7     9    1
   10     9    10    1
   11     9    11    1
   12     7    12    1
   13    12    13    1
@<TRIPOS>SUBSTRUCTURE
       1 MOL1            1 RESIDUE      1      MOL     
@<SCITEGIC>MOL_PROPERTY
VConf Rank
SciTegic.value.IntegerValue
218

@<SCITEGIC>MOL_PROPERTY
Conf_Id
SciTegic.value.IntegerValue
20

@<SCITEGIC>MOL_PROPERTY
Delta U+W
SciTegic.value.DoubleValue
1.030

@<SCITEGIC>MOL_PROPERTY
U+W
SciTegic.value.DoubleValue
-2.101

@<SCITEGIC>MOL_PROPERTY
Grad RMS
SciTegic.value.DoubleValue
0.000000

@<SCITEGIC>MOL_PROPERTY
U
SciTegic.value.DoubleValue
0.841

@<SCITEGIC>MOL_PROPERTY
W
SciTegic.value.DoubleValue
-2.942

@<SCITEGIC>MOL_PROPERTY
W(PB)
SciTegic.value.DoubleValue
-4.530

@<SCITEGIC>MOL_PROPERTY
W(SA)
SciTegic.value.DoubleValue
1.587

@<SCITEGIC>MOL_PROPERTY
Valence
SciTegic.value.DoubleValue
6.736

@<SCITEGIC>MOL_PROPERTY
Coulomb
SciTegic.value.DoubleValue
-7.246

@<SCITEGIC>MOL_PROPERTY
VdW
SciTegic.value.DoubleValue
1.352

@<SCITEGIC>MOL_PROPERTY
VdW6
SciTegic.value.DoubleValue
-2.500

@<SCITEGIC>MOL_PROPERTY
VdW12
SciTegic.value.DoubleValue
3.851

@<SCITEGIC>MOL_PROPERTY
Bond
SciTegic.value.DoubleValue
0.063

@<SCITEGIC>MOL_PROPERTY
Angle
SciTegic.value.DoubleValue
0.687

@<SCITEGIC>MOL_PROPERTY
Pdih
SciTegic.value.DoubleValue
5.986

@<SCITEGIC>MOL_PROPERTY
Idih
SciTegic.value.DoubleValue
0.000

@<SCITEGIC>MOL_PROPERTY
Tether
SciTegic.value.DoubleValue
0.000

@<TRIPOS>MOLECULE
guest-s16_confgen4.mol2 : confsearch ligand conformer 219
          13          13           1
SMALL
USER_CHARGES
 
@<TRIPOS>ATOM
       1    C1      20.491514   19.658195   21.443175 C.3        1 MOL1        -0.1693
       2    H1      20.821302   19.212747   20.495290 H          1 MOL1         0.0829
       3    H2      20.904293   20.671472   21.516005 H          1 MOL1         0.0829
       4    C2      20.686952   18.744701   22.698041 C.3        1 MOL1        -0.1768
       5    H3      21.551117   18.071676   22.674596 H          1 MOL1         0.0829
       6    H4      20.681653   19.277403   23.656993 H          1 MOL1         0.0829
       7    C3      19.322482   18.108368   22.294981 C.3        1 MOL1         0.1211
       8    H5      19.405637   17.331264   21.523043 H          1 MOL1         0.0786
       9    C4      18.960984   19.517066   21.734585 C.3        1 MOL1        -0.1768
      10    H6      18.569910   20.222401   22.478192 H          1 MOL1         0.0829
      11    H7      18.300855   19.526156   20.860263 H          1 MOL1         0.0829
      12    O1      18.524792   17.660607   23.365036 O.3        1 MOL1        -0.5515
      13    H8      18.487111   18.390781   24.017835 H          1 MOL1         0.3773
@<TRIPOS>BOND
    1     1     2    1
    2     1     3    1
    3     1     4    1
    4     4     5    1
    5     4     6    1
    6     4     7    1
    7     7     8    1
    8     1     9    1
    9     7     9    1
   10     9    10    1
   11     9    11    1
   12     7    12    1
   13    12    13    1
@<TRIPOS>SUBSTRUCTURE
       1 MOL1            1 RESIDUE      1      MOL     
@<SCITEGIC>MOL_PROPERTY
VConf Rank
SciTegic.value.IntegerValue
219

@<SCITEGIC>MOL_PROPERTY
Conf_Id
SciTegic.value.IntegerValue
24

@<SCITEGIC>MOL_PROPERTY
Delta U+W
SciTegic.value.DoubleValue
0.356

@<SCITEGIC>MOL_PROPERTY
U+W
SciTegic.value.DoubleValue
-2.775

@<SCITEGIC>MOL_PROPERTY
Grad RMS
SciTegic.value.DoubleValue
0.000000

@<SCITEGIC>MOL_PROPERTY
U
SciTegic.value.DoubleValue
-0.184

@<SCITEGIC>MOL_PROPERTY
W
SciTegic.value.DoubleValue
-2.591

@<SCITEGIC>MOL_PROPERTY
W(PB)
SciTegic.value.DoubleValue
-4.184

@<SCITEGIC>MOL_PROPERTY
W(SA)
SciTegic.value.DoubleValue
1.593

@<SCITEGIC>MOL_PROPERTY
Valence
SciTegic.value.DoubleValue
6.840

@<SCITEGIC>MOL_PROPERTY
Coulomb
SciTegic.value.DoubleValue
-7.916

@<SCITEGIC>MOL_PROPERTY
VdW
SciTegic.value.DoubleValue
0.893

@<SCITEGIC>MOL_PROPERTY
VdW6
SciTegic.value.DoubleValue
-2.167

@<SCITEGIC>MOL_PROPERTY
VdW12
SciTegic.value.DoubleValue
3.060

@<SCITEGIC>MOL_PROPERTY
Bond
SciTegic.value.DoubleValue
0.059

@<SCITEGIC>MOL_PROPERTY
Angle
SciTegic.value.DoubleValue
0.918

@<SCITEGIC>MOL_PROPERTY
Pdih
SciTegic.value.DoubleValue
5.862

@<SCITEGIC>MOL_PROPERTY
Idih
SciTegic.value.DoubleValue
0.000

@<SCITEGIC>MOL_PROPERTY
Tether
SciTegic.value.DoubleValue
0.000

@<TRIPOS>MOLECULE
guest-s16_confgen4.mol2 : confsearch ligand conformer 220
          13          13           1
SMALL
USER_CHARGES
 
@<TRIPOS>ATOM
       1    C1      20.636020   19.048521   22.818390 C.3        1 MOL1        -0.1693
       2    H1      21.420220   19.715398   23.196117 H          1 MOL1         0.0829
       3    H2      20.844561   18.031706   23.174611 H          1 MOL1         0.0829
       4    C2      20.322189   19.158953   21.288863 C.3        1 MOL1        -0.1768
       5    H3      20.483380   20.157180   20.863921 H          1 MOL1         0.0829
       6    H4      20.809885   18.421927   20.641055 H          1 MOL1         0.0829
       7    C3      18.838041   18.859658   21.665318 C.3        1 MOL1         0.1211
       8    H5      18.092898   19.388521   21.057410 H          1 MOL1         0.0786
       9    C4      19.163337   19.532865   23.034614 C.3        1 MOL1        -0.1768
      10    H6      19.040396   20.622769   23.037705 H          1 MOL1         0.0829
      11    H7      18.642353   19.121299   23.906335 H          1 MOL1         0.0829
      12    O1      18.512273   17.488668   21.742709 O.3        1 MOL1        -0.5515
      13    H8      19.206304   17.070508   22.292960 H          1 MOL1         0.3773
@<TRIPOS>BOND
    1     1     2    1
    2     1     3    1
    3     1     4    1
    4     4     5    1
    5     4     6    1
    6     4     7    1
    7     7     8    1
    8     1     9    1
    9     7     9    1
   10     9    10    1
   11     9    11    1
   12     7    12    1
   13    12    13    1
@<TRIPOS>SUBSTRUCTURE
       1 MOL1            1 RESIDUE      1      MOL     
@<SCITEGIC>MOL_PROPERTY
VConf Rank
SciTegic.value.IntegerValue
220

@<SCITEGIC>MOL_PROPERTY
Conf_Id
SciTegic.value.IntegerValue
44

@<SCITEGIC>MOL_PROPERTY
Delta U+W
SciTegic.value.DoubleValue
0.823

@<SCITEGIC>MOL_PROPERTY
U+W
SciTegic.value.DoubleValue
-2.308

@<SCITEGIC>MOL_PROPERTY
Grad RMS
SciTegic.value.DoubleValue
0.000000

@<SCITEGIC>MOL_PROPERTY
U
SciTegic.value.DoubleValue
0.039

@<SCITEGIC>MOL_PROPERTY
W
SciTegic.value.DoubleValue
-2.348

@<SCITEGIC>MOL_PROPERTY
W(PB)
SciTegic.value.DoubleValue
-3.918

@<SCITEGIC>MOL_PROPERTY
W(SA)
SciTegic.value.DoubleValue
1.571

@<SCITEGIC>MOL_PROPERTY
Valence
SciTegic.value.DoubleValue
7.320

@<SCITEGIC>MOL_PROPERTY
Coulomb
SciTegic.value.DoubleValue
-8.530

@<SCITEGIC>MOL_PROPERTY
VdW
SciTegic.value.DoubleValue
1.249

@<SCITEGIC>MOL_PROPERTY
VdW6
SciTegic.value.DoubleValue
-2.615

@<SCITEGIC>MOL_PROPERTY
VdW12
SciTegic.value.DoubleValue
3.864

@<SCITEGIC>MOL_PROPERTY
Bond
SciTegic.value.DoubleValue
0.056

@<SCITEGIC>MOL_PROPERTY
Angle
SciTegic.value.DoubleValue
0.694

@<SCITEGIC>MOL_PROPERTY
Pdih
SciTegic.value.DoubleValue
6.570

@<SCITEGIC>MOL_PROPERTY
Idih
SciTegic.value.DoubleValue
0.000

@<SCITEGIC>MOL_PROPERTY
Tether
SciTegic.value.DoubleValue
0.000

@<TRIPOS>MOLECULE
guest-s16_confgen4.mol2 : confsearch ligand conformer 221
          13          13           1
SMALL
USER_CHARGES
 
@<TRIPOS>ATOM
       1    C1      20.593104   19.980080   22.323239 C.3        1 MOL1        -0.1693
       2    H1      20.987096   20.284040   21.344482 H          1 MOL1         0.0829
       3    H2      21.062359   20.598821   23.097382 H          1 MOL1         0.0829
       4    C2      20.598462   18.436967   22.580299 C.3        1 MOL1        -0.1768
       5    H3      21.414187   17.872126   22.116070 H          1 MOL1         0.0829
       6    H4      20.523854   18.146370   23.635559 H          1 MOL1         0.0829
       7    C3      19.243382   18.426757   21.810558 C.3        1 MOL1         0.1211
       8    H5      19.354972   18.401633   20.717865 H          1 MOL1         0.0786
       9    C4      19.035047   19.857586   22.392381 C.3        1 MOL1        -0.1768
      10    H6      18.468310   20.551859   21.762327 H          1 MOL1         0.0829
      11    H7      18.618282   19.880818   23.407054 H          1 MOL1         0.0829
      12    O1      18.313599   17.459843   22.240820 O.3        1 MOL1        -0.5515
      13    H8      17.460073   17.661007   21.800106 H          1 MOL1         0.3773
@<TRIPOS>BOND
    1     1     2    1
    2     1     3    1
    3     1     4    1
    4     4     5    1
    5     4     6    1
    6     4     7    1
    7     7     8    1
    8     1     9    1
    9     7     9    1
   10     9    10    1
   11     9    11    1
   12     7    12    1
   13    12    13    1
@<TRIPOS>SUBSTRUCTURE
       1 MOL1            1 RESIDUE      1      MOL     
@<SCITEGIC>MOL_PROPERTY
VConf Rank
SciTegic.value.IntegerValue
221

@<SCITEGIC>MOL_PROPERTY
Conf_Id
SciTegic.value.IntegerValue
22

@<SCITEGIC>MOL_PROPERTY
Delta U+W
SciTegic.value.DoubleValue
0.000

@<SCITEGIC>MOL_PROPERTY
U+W
SciTegic.value.DoubleValue
-3.131

@<SCITEGIC>MOL_PROPERTY
Grad RMS
SciTegic.value.DoubleValue
0.000000

@<SCITEGIC>MOL_PROPERTY
U
SciTegic.value.DoubleValue
-0.154

@<SCITEGIC>MOL_PROPERTY
W
SciTegic.value.DoubleValue
-2.978

@<SCITEGIC>MOL_PROPERTY
W(PB)
SciTegic.value.DoubleValue
-4.579

@<SCITEGIC>MOL_PROPERTY
W(SA)
SciTegic.value.DoubleValue
1.601

@<SCITEGIC>MOL_PROPERTY
Valence
SciTegic.value.DoubleValue
6.333

@<SCITEGIC>MOL_PROPERTY
Coulomb
SciTegic.value.DoubleValue
-7.439

@<SCITEGIC>MOL_PROPERTY
VdW
SciTegic.value.DoubleValue
0.952

@<SCITEGIC>MOL_PROPERTY
VdW6
SciTegic.value.DoubleValue
-2.120

@<SCITEGIC>MOL_PROPERTY
VdW12
SciTegic.value.DoubleValue
3.072

@<SCITEGIC>MOL_PROPERTY
Bond
SciTegic.value.DoubleValue
0.065

@<SCITEGIC>MOL_PROPERTY
Angle
SciTegic.value.DoubleValue
0.931

@<SCITEGIC>MOL_PROPERTY
Pdih
SciTegic.value.DoubleValue
5.338

@<SCITEGIC>MOL_PROPERTY
Idih
SciTegic.value.DoubleValue
0.000

@<SCITEGIC>MOL_PROPERTY
Tether
SciTegic.value.DoubleValue
0.000

@<TRIPOS>MOLECULE
guest-s16_confgen4.mol2 : confsearch ligand conformer 222
          13          13           1
SMALL
USER_CHARGES
 
@<TRIPOS>ATOM
       1    C1      19.338994   20.094702   22.784876 C.3        1 MOL1        -0.1693
       2    H1      18.263623   20.245815   22.947133 H          1 MOL1         0.0829
       3    H2      19.869655   21.007575   23.080511 H          1 MOL1         0.0829
       4    C2      19.713327   19.505157   21.385004 C.3        1 MOL1        -0.1768
       5    H3      20.759427   19.654639   21.089839 H          1 MOL1         0.0829
       6    H4      19.066275   19.796515   20.550374 H          1 MOL1         0.0829
       7    C3      19.413316   18.116132   22.025160 C.3        1 MOL1         0.1211
       8    H5      18.347933   17.847797   22.029220 H          1 MOL1         0.0786
       9    C4      19.905453   18.754294   23.359100 C.3        1 MOL1        -0.1768
      10    H6      20.993692   18.736630   23.496973 H          1 MOL1         0.0829
      11    H7      19.428568   18.378946   24.271052 H          1 MOL1         0.0829
      12    O1      20.196222   17.048661   21.543381 O.3        1 MOL1        -0.5515
      13    H8      19.885617   16.847519   20.634387 H          1 MOL1         0.3773
@<TRIPOS>BOND
    1     1     2    1
    2     1     3    1
    3     1     4    1
    4     4     5    1
    5     4     6    1
    6     4     7    1
    7     7     8    1
    8     1     9    1
    9     7     9    1
   10     9    10    1
   11     9    11    1
   12     7    12    1
   13    12    13    1
@<TRIPOS>SUBSTRUCTURE
       1 MOL1            1 RESIDUE      1      MOL     
@<SCITEGIC>MOL_PROPERTY
VConf Rank
SciTegic.value.IntegerValue
222

@<SCITEGIC>MOL_PROPERTY
Conf_Id
SciTegic.value.IntegerValue
19

@<SCITEGIC>MOL_PROPERTY
Delta U+W
SciTegic.value.DoubleValue
-0.011

@<SCITEGIC>MOL_PROPERTY
U+W
SciTegic.value.DoubleValue
-3.142

@<SCITEGIC>MOL_PROPERTY
Grad RMS
SciTegic.value.DoubleValue
0.000000

@<SCITEGIC>MOL_PROPERTY
U
SciTegic.value.DoubleValue
-0.154

@<SCITEGIC>MOL_PROPERTY
W
SciTegic.value.DoubleValue
-2.989

@<SCITEGIC>MOL_PROPERTY
W(PB)
SciTegic.value.DoubleValue
-4.588

@<SCITEGIC>MOL_PROPERTY
W(SA)
SciTegic.value.DoubleValue
1.599

@<SCITEGIC>MOL_PROPERTY
Valence
SciTegic.value.DoubleValue
6.334

@<SCITEGIC>MOL_PROPERTY
Coulomb
SciTegic.value.DoubleValue
-7.439

@<SCITEGIC>MOL_PROPERTY
VdW
SciTegic.value.DoubleValue
0.951

@<SCITEGIC>MOL_PROPERTY
VdW6
SciTegic.value.DoubleValue
-2.120

@<SCITEGIC>MOL_PROPERTY
VdW12
SciTegic.value.DoubleValue
3.072

@<SCITEGIC>MOL_PROPERTY
Bond
SciTegic.value.DoubleValue
0.065

@<SCITEGIC>MOL_PROPERTY
Angle
SciTegic.value.DoubleValue
0.930

@<SCITEGIC>MOL_PROPERTY
Pdih
SciTegic.value.DoubleValue
5.339

@<SCITEGIC>MOL_PROPERTY
Idih
SciTegic.value.DoubleValue
0.000

@<SCITEGIC>MOL_PROPERTY
Tether
SciTegic.value.DoubleValue
0.000

@<TRIPOS>MOLECULE
guest-s16_confgen4.mol2 : confsearch ligand conformer 223
          13          13           1
SMALL
USER_CHARGES
 
@<TRIPOS>ATOM
       1    C1      18.407581   18.946149   22.355877 C.3        1 MOL1        -0.1693
       2    H1      17.571304   18.246285   22.469048 H          1 MOL1         0.0829
       3    H2      18.012294   19.970273   22.367081 H          1 MOL1         0.0829
       4    C2      19.402431   18.646699   21.185589 C.3        1 MOL1        -0.1768
       5    H3      19.515593   17.582564   20.945637 H          1 MOL1         0.0829
       6    H4      19.231314   19.199480   20.255242 H          1 MOL1         0.0829
       7    C3      20.519197   19.214616   22.116037 C.3        1 MOL1         0.1211
       8    H5      21.490819   18.712512   22.023008 H          1 MOL1         0.0786
       9    C4      19.633977   18.711950   23.299172 C.3        1 MOL1        -0.1768
      10    H6      19.661582   19.318961   24.210834 H          1 MOL1         0.0829
      11    H7      19.802903   17.663160   23.572073 H          1 MOL1         0.0829
      12    O1      20.690867   20.616252   22.052072 O.3        1 MOL1        -0.5515
      13    H8      21.281825   20.870796   22.792431 H          1 MOL1         0.3773
@<TRIPOS>BOND
    1     1     2    1
    2     1     3    1
    3     1     4    1
    4     4     5    1
    5     4     6    1
    6     4     7    1
    7     7     8    1
    8     1     9    1
    9     7     9    1
   10     9    10    1
   11     9    11    1
   12     7    12    1
   13    12    13    1
@<TRIPOS>SUBSTRUCTURE
       1 MOL1            1 RESIDUE      1      MOL     
@<SCITEGIC>MOL_PROPERTY
VConf Rank
SciTegic.value.IntegerValue
223

@<SCITEGIC>MOL_PROPERTY
Conf_Id
SciTegic.value.IntegerValue
20

@<SCITEGIC>MOL_PROPERTY
Delta U+W
SciTegic.value.DoubleValue
1.030

@<SCITEGIC>MOL_PROPERTY
U+W
SciTegic.value.DoubleValue
-2.101

@<SCITEGIC>MOL_PROPERTY
Grad RMS
SciTegic.value.DoubleValue
0.000000

@<SCITEGIC>MOL_PROPERTY
U
SciTegic.value.DoubleValue
0.841

@<SCITEGIC>MOL_PROPERTY
W
SciTegic.value.DoubleValue
-2.942

@<SCITEGIC>MOL_PROPERTY
W(PB)
SciTegic.value.DoubleValue
-4.530

@<SCITEGIC>MOL_PROPERTY
W(SA)
SciTegic.value.DoubleValue
1.587

@<SCITEGIC>MOL_PROPERTY
Valence
SciTegic.value.DoubleValue
6.736

@<SCITEGIC>MOL_PROPERTY
Coulomb
SciTegic.value.DoubleValue
-7.246

@<SCITEGIC>MOL_PROPERTY
VdW
SciTegic.value.DoubleValue
1.352

@<SCITEGIC>MOL_PROPERTY
VdW6
SciTegic.value.DoubleValue
-2.500

@<SCITEGIC>MOL_PROPERTY
VdW12
SciTegic.value.DoubleValue
3.851

@<SCITEGIC>MOL_PROPERTY
Bond
SciTegic.value.DoubleValue
0.063

@<SCITEGIC>MOL_PROPERTY
Angle
SciTegic.value.DoubleValue
0.687

@<SCITEGIC>MOL_PROPERTY
Pdih
SciTegic.value.DoubleValue
5.986

@<SCITEGIC>MOL_PROPERTY
Idih
SciTegic.value.DoubleValue
0.000

@<SCITEGIC>MOL_PROPERTY
Tether
SciTegic.value.DoubleValue
0.000

@<TRIPOS>MOLECULE
guest-s16_confgen4.mol2 : confsearch ligand conformer 224
          13          13           1
SMALL
USER_CHARGES
 
@<TRIPOS>ATOM
       1    C1      19.379129   18.271092   21.191276 C.3        1 MOL1        -0.1693
       2    H1      20.028248   18.278279   20.305690 H          1 MOL1         0.0829
       3    H2      18.508119   17.638788   20.981623 H          1 MOL1         0.0829
       4    C2      19.074550   19.683777   21.790366 C.3        1 MOL1        -0.1768
       5    H3      19.022347   20.510512   21.073375 H          1 MOL1         0.0829
       6    H4      18.191237   19.724640   22.439577 H          1 MOL1         0.0829
       7    C3      20.431386   19.522989   22.540232 C.3        1 MOL1         0.1211
       8    H5      21.307527   19.796200   21.936555 H          1 MOL1         0.0786
       9    C4      20.118772   17.996089   22.542075 C.3        1 MOL1        -0.1768
      10    H6      19.468855   17.659732   23.359302 H          1 MOL1         0.0829
      11    H7      20.988776   17.332339   22.488960 H          1 MOL1         0.0829
      12    O1      20.495895   20.128283   23.809592 O.3        1 MOL1        -0.5515
      13    H8      19.693762   19.850119   24.299414 H          1 MOL1         0.3773
@<TRIPOS>BOND
    1     1     2    1
    2     1     3    1
    3     1     4    1
    4     4     5    1
    5     4     6    1
    6     4     7    1
    7     7     8    1
    8     1     9    1
    9     7     9    1
   10     9    10    1
   11     9    11    1
   12     7    12    1
   13    12    13    1
@<TRIPOS>SUBSTRUCTURE
       1 MOL1            1 RESIDUE      1      MOL     
@<SCITEGIC>MOL_PROPERTY
VConf Rank
SciTegic.value.IntegerValue
224

@<SCITEGIC>MOL_PROPERTY
Conf_Id
SciTegic.value.IntegerValue
24

@<SCITEGIC>MOL_PROPERTY
Delta U+W
SciTegic.value.DoubleValue
0.356

@<SCITEGIC>MOL_PROPERTY
U+W
SciTegic.value.DoubleValue
-2.775

@<SCITEGIC>MOL_PROPERTY
Grad RMS
SciTegic.value.DoubleValue
0.000000

@<SCITEGIC>MOL_PROPERTY
U
SciTegic.value.DoubleValue
-0.184

@<SCITEGIC>MOL_PROPERTY
W
SciTegic.value.DoubleValue
-2.591

@<SCITEGIC>MOL_PROPERTY
W(PB)
SciTegic.value.DoubleValue
-4.184

@<SCITEGIC>MOL_PROPERTY
W(SA)
SciTegic.value.DoubleValue
1.593

@<SCITEGIC>MOL_PROPERTY
Valence
SciTegic.value.DoubleValue
6.840

@<SCITEGIC>MOL_PROPERTY
Coulomb
SciTegic.value.DoubleValue
-7.916

@<SCITEGIC>MOL_PROPERTY
VdW
SciTegic.value.DoubleValue
0.893

@<SCITEGIC>MOL_PROPERTY
VdW6
SciTegic.value.DoubleValue
-2.167

@<SCITEGIC>MOL_PROPERTY
VdW12
SciTegic.value.DoubleValue
3.060

@<SCITEGIC>MOL_PROPERTY
Bond
SciTegic.value.DoubleValue
0.059

@<SCITEGIC>MOL_PROPERTY
Angle
SciTegic.value.DoubleValue
0.918

@<SCITEGIC>MOL_PROPERTY
Pdih
SciTegic.value.DoubleValue
5.862

@<SCITEGIC>MOL_PROPERTY
Idih
SciTegic.value.DoubleValue
0.000

@<SCITEGIC>MOL_PROPERTY
Tether
SciTegic.value.DoubleValue
0.000

@<TRIPOS>MOLECULE
guest-s16_confgen4.mol2 : confsearch ligand conformer 225
          13          13           1
SMALL
USER_CHARGES
 
@<TRIPOS>ATOM
       1    C1      19.357232   17.897666   22.165501 C.3        1 MOL1        -0.1693
       2    H1      18.593983   17.199555   21.801544 H          1 MOL1         0.0829
       3    H2      20.113796   17.326560   22.718442 H          1 MOL1         0.0829
       4    C2      18.823744   19.170767   22.903568 C.3        1 MOL1        -0.1768
       5    H3      17.843546   19.519022   22.555798 H          1 MOL1         0.0829
       6    H4      18.808212   19.123781   23.998219 H          1 MOL1         0.0829
       7    C3      20.030356   19.930837   22.270816 C.3        1 MOL1         0.1211
       8    H5      19.821474   20.969425   21.984125 H          1 MOL1         0.0786
       9    C4      19.930847   18.897330   21.106362 C.3        1 MOL1        -0.1768
      10    H6      19.222093   19.178540   20.317943 H          1 MOL1         0.0829
      11    H7      20.878951   18.612338   20.636696 H          1 MOL1         0.0829
      12    O1      21.226440   19.867731   23.017226 O.3        1 MOL1        -0.5515
      13    H8      21.361182   18.924420   23.243768 H          1 MOL1         0.3773
@<TRIPOS>BOND
    1     1     2    1
    2     1     3    1
    3     1     4    1
    4     4     5    1
    5     4     6    1
    6     4     7    1
    7     7     8    1
    8     1     9    1
    9     7     9    1
   10     9    10    1
   11     9    11    1
   12     7    12    1
   13    12    13    1
@<TRIPOS>SUBSTRUCTURE
       1 MOL1            1 RESIDUE      1      MOL     
@<SCITEGIC>MOL_PROPERTY
VConf Rank
SciTegic.value.IntegerValue
225

@<SCITEGIC>MOL_PROPERTY
Conf_Id
SciTegic.value.IntegerValue
44

@<SCITEGIC>MOL_PROPERTY
Delta U+W
SciTegic.value.DoubleValue
0.823

@<SCITEGIC>MOL_PROPERTY
U+W
SciTegic.value.DoubleValue
-2.308

@<SCITEGIC>MOL_PROPERTY
Grad RMS
SciTegic.value.DoubleValue
0.000000

@<SCITEGIC>MOL_PROPERTY
U
SciTegic.value.DoubleValue
0.039

@<SCITEGIC>MOL_PROPERTY
W
SciTegic.value.DoubleValue
-2.348

@<SCITEGIC>MOL_PROPERTY
W(PB)
SciTegic.value.DoubleValue
-3.918

@<SCITEGIC>MOL_PROPERTY
W(SA)
SciTegic.value.DoubleValue
1.571

@<SCITEGIC>MOL_PROPERTY
Valence
SciTegic.value.DoubleValue
7.320

@<SCITEGIC>MOL_PROPERTY
Coulomb
SciTegic.value.DoubleValue
-8.530

@<SCITEGIC>MOL_PROPERTY
VdW
SciTegic.value.DoubleValue
1.249

@<SCITEGIC>MOL_PROPERTY
VdW6
SciTegic.value.DoubleValue
-2.615

@<SCITEGIC>MOL_PROPERTY
VdW12
SciTegic.value.DoubleValue
3.864

@<SCITEGIC>MOL_PROPERTY
Bond
SciTegic.value.DoubleValue
0.056

@<SCITEGIC>MOL_PROPERTY
Angle
SciTegic.value.DoubleValue
0.694

@<SCITEGIC>MOL_PROPERTY
Pdih
SciTegic.value.DoubleValue
6.570

@<SCITEGIC>MOL_PROPERTY
Idih
SciTegic.value.DoubleValue
0.000

@<SCITEGIC>MOL_PROPERTY
Tether
SciTegic.value.DoubleValue
0.000

@<TRIPOS>MOLECULE
guest-s16_confgen4.mol2 : confsearch ligand conformer 226
          13          13           1
SMALL
USER_CHARGES
 
@<TRIPOS>ATOM
       1    C1      20.025480   20.280101   22.535151 C.3        1 MOL1        -0.1693
       2    H1      19.498464   20.697326   23.403347 H          1 MOL1         0.0829
       3    H2      20.754543   21.018077   22.179913 H          1 MOL1         0.0829
       4    C2      19.095692   19.652939   21.444523 C.3        1 MOL1        -0.1768
       5    H3      18.113347   20.121127   21.318993 H          1 MOL1         0.0829
       6    H4      19.559412   19.535458   20.457230 H          1 MOL1         0.0829
       7    C3      19.126922   18.370242   22.329148 C.3        1 MOL1         0.1211
       8    H5      18.404990   18.385692   23.157180 H          1 MOL1         0.0786
       9    C4      20.562289   18.824051   22.732848 C.3        1 MOL1        -0.1768
      10    H6      20.879052   18.560543   23.747932 H          1 MOL1         0.0829
      11    H7      21.349356   18.526434   22.028757 H          1 MOL1         0.0829
      12    O1      19.055481   17.151715   21.625847 O.3        1 MOL1        -0.5515
      13    H8      19.247700   16.434200   22.267273 H          1 MOL1         0.3773
@<TRIPOS>BOND
    1     1     2    1
    2     1     3    1
    3     1     4    1
    4     4     5    1
    5     4     6    1
    6     4     7    1
    7     7     8    1
    8     1     9    1
    9     7     9    1
   10     9    10    1
   11     9    11    1
   12     7    12    1
   13    12    13    1
@<TRIPOS>SUBSTRUCTURE
       1 MOL1            1 RESIDUE      1      MOL     
@<SCITEGIC>MOL_PROPERTY
VConf Rank
SciTegic.value.IntegerValue
226

@<SCITEGIC>MOL_PROPERTY
Conf_Id
SciTegic.value.IntegerValue
22

@<SCITEGIC>MOL_PROPERTY
Delta U+W
SciTegic.value.DoubleValue
0.000

@<SCITEGIC>MOL_PROPERTY
U+W
SciTegic.value.DoubleValue
-3.131

@<SCITEGIC>MOL_PROPERTY
Grad RMS
SciTegic.value.DoubleValue
0.000000

@<SCITEGIC>MOL_PROPERTY
U
SciTegic.value.DoubleValue
-0.154

@<SCITEGIC>MOL_PROPERTY
W
SciTegic.value.DoubleValue
-2.978

@<SCITEGIC>MOL_PROPERTY
W(PB)
SciTegic.value.DoubleValue
-4.579

@<SCITEGIC>MOL_PROPERTY
W(SA)
SciTegic.value.DoubleValue
1.601

@<SCITEGIC>MOL_PROPERTY
Valence
SciTegic.value.DoubleValue
6.333

@<SCITEGIC>MOL_PROPERTY
Coulomb
SciTegic.value.DoubleValue
-7.439

@<SCITEGIC>MOL_PROPERTY
VdW
SciTegic.value.DoubleValue
0.952

@<SCITEGIC>MOL_PROPERTY
VdW6
SciTegic.value.DoubleValue
-2.120

@<SCITEGIC>MOL_PROPERTY
VdW12
SciTegic.value.DoubleValue
3.072

@<SCITEGIC>MOL_PROPERTY
Bond
SciTegic.value.DoubleValue
0.065

@<SCITEGIC>MOL_PROPERTY
Angle
SciTegic.value.DoubleValue
0.931

@<SCITEGIC>MOL_PROPERTY
Pdih
SciTegic.value.DoubleValue
5.338

@<SCITEGIC>MOL_PROPERTY
Idih
SciTegic.value.DoubleValue
0.000

@<SCITEGIC>MOL_PROPERTY
Tether
SciTegic.value.DoubleValue
0.000

@<TRIPOS>MOLECULE
guest-s16_confgen4.mol2 : confsearch ligand conformer 227
          13          13           1
SMALL
USER_CHARGES
 
@<TRIPOS>ATOM
       1    C1      19.253048   20.107155   22.697474 C.3        1 MOL1        -0.1693
       2    H1      18.174068   20.287382   22.603105 H          1 MOL1         0.0829
       3    H2      19.724595   21.009093   23.105502 H          1 MOL1         0.0829
       4    C2      19.927980   19.494064   21.426286 C.3        1 MOL1        -0.1768
       5    H3      21.017768   19.613720   21.383426 H          1 MOL1         0.0829
       6    H4      19.502109   19.793417   20.462339 H          1 MOL1         0.0829
       7    C3      19.448912   18.119733   21.983874 C.3        1 MOL1         0.1211
       8    H5      18.405180   17.878813   21.739656 H          1 MOL1         0.0786
       9    C4      19.632856   18.758573   23.393446 C.3        1 MOL1        -0.1768
      10    H6      20.657833   18.714456   23.782110 H          1 MOL1         0.0829
      11    H7      18.945988   18.404817   24.169996 H          1 MOL1         0.0829
      12    O1      20.293340   17.027743   21.702720 O.3        1 MOL1        -0.5515
      13    H8      20.198424   16.825416   20.747075 H          1 MOL1         0.3773
@<TRIPOS>BOND
    1     1     2    1
    2     1     3    1
    3     1     4    1
    4     4     5    1
    5     4     6    1
    6     4     7    1
    7     7     8    1
    8     1     9    1
    9     7     9    1
   10     9    10    1
   11     9    11    1
   12     7    12    1
   13    12    13    1
@<TRIPOS>SUBSTRUCTURE
       1 MOL1            1 RESIDUE      1      MOL     
@<SCITEGIC>MOL_PROPERTY
VConf Rank
SciTegic.value.IntegerValue
227

@<SCITEGIC>MOL_PROPERTY
Conf_Id
SciTegic.value.IntegerValue
19

@<SCITEGIC>MOL_PROPERTY
Delta U+W
SciTegic.value.DoubleValue
-0.011

@<SCITEGIC>MOL_PROPERTY
U+W
SciTegic.value.DoubleValue
-3.142

@<SCITEGIC>MOL_PROPERTY
Grad RMS
SciTegic.value.DoubleValue
0.000000

@<SCITEGIC>MOL_PROPERTY
U
SciTegic.value.DoubleValue
-0.154

@<SCITEGIC>MOL_PROPERTY
W
SciTegic.value.DoubleValue
-2.989

@<SCITEGIC>MOL_PROPERTY
W(PB)
SciTegic.value.DoubleValue
-4.588

@<SCITEGIC>MOL_PROPERTY
W(SA)
SciTegic.value.DoubleValue
1.599

@<SCITEGIC>MOL_PROPERTY
Valence
SciTegic.value.DoubleValue
6.334

@<SCITEGIC>MOL_PROPERTY
Coulomb
SciTegic.value.DoubleValue
-7.439

@<SCITEGIC>MOL_PROPERTY
VdW
SciTegic.value.DoubleValue
0.951

@<SCITEGIC>MOL_PROPERTY
VdW6
SciTegic.value.DoubleValue
-2.120

@<SCITEGIC>MOL_PROPERTY
VdW12
SciTegic.value.DoubleValue
3.072

@<SCITEGIC>MOL_PROPERTY
Bond
SciTegic.value.DoubleValue
0.065

@<SCITEGIC>MOL_PROPERTY
Angle
SciTegic.value.DoubleValue
0.930

@<SCITEGIC>MOL_PROPERTY
Pdih
SciTegic.value.DoubleValue
5.339

@<SCITEGIC>MOL_PROPERTY
Idih
SciTegic.value.DoubleValue
0.000

@<SCITEGIC>MOL_PROPERTY
Tether
SciTegic.value.DoubleValue
0.000

@<TRIPOS>MOLECULE
guest-s16_confgen4.mol2 : confsearch ligand conformer 228
          13          13           1
SMALL
USER_CHARGES
 
@<TRIPOS>ATOM
       1    C1      20.656193   18.624180   21.746548 C.3        1 MOL1        -0.1693
       2    H1      21.068685   17.862277   21.074736 H          1 MOL1         0.0829
       3    H2      21.457212   19.324422   22.017169 H          1 MOL1         0.0829
       4    C2      19.820309   18.093704   22.958516 C.3        1 MOL1        -0.1768
       5    H3      19.285404   17.155730   22.766560 H          1 MOL1         0.0829
       6    H4      20.356233   18.003172   23.909822 H          1 MOL1         0.0829
       7    C3      18.944422   19.374667   22.793032 C.3        1 MOL1         0.1211
       8    H5      17.877273   19.229236   23.004823 H          1 MOL1         0.0786
       9    C4      19.326450   19.305371   21.281295 C.3        1 MOL1        -0.1768
      10    H6      19.433517   20.267752   20.768741 H          1 MOL1         0.0829
      11    H7      18.671865   18.660882   20.682023 H          1 MOL1         0.0829
      12    O1      19.422642   20.514804   23.478260 O.3        1 MOL1        -0.5515
      13    H8      18.901482   21.283498   23.162576 H          1 MOL1         0.3773
@<TRIPOS>BOND
    1     1     2    1
    2     1     3    1
    3     1     4    1
    4     4     5    1
    5     4     6    1
    6     4     7    1
    7     7     8    1
    8     1     9    1
    9     7     9    1
   10     9    10    1
   11     9    11    1
   12     7    12    1
   13    12    13    1
@<TRIPOS>SUBSTRUCTURE
       1 MOL1            1 RESIDUE      1      MOL     
@<SCITEGIC>MOL_PROPERTY
VConf Rank
SciTegic.value.IntegerValue
228

@<SCITEGIC>MOL_PROPERTY
Conf_Id
SciTegic.value.IntegerValue
20

@<SCITEGIC>MOL_PROPERTY
Delta U+W
SciTegic.value.DoubleValue
1.030

@<SCITEGIC>MOL_PROPERTY
U+W
SciTegic.value.DoubleValue
-2.101

@<SCITEGIC>MOL_PROPERTY
Grad RMS
SciTegic.value.DoubleValue
0.000000

@<SCITEGIC>MOL_PROPERTY
U
SciTegic.value.DoubleValue
0.841

@<SCITEGIC>MOL_PROPERTY
W
SciTegic.value.DoubleValue
-2.942

@<SCITEGIC>MOL_PROPERTY
W(PB)
SciTegic.value.DoubleValue
-4.530

@<SCITEGIC>MOL_PROPERTY
W(SA)
SciTegic.value.DoubleValue
1.587

@<SCITEGIC>MOL_PROPERTY
Valence
SciTegic.value.DoubleValue
6.736

@<SCITEGIC>MOL_PROPERTY
Coulomb
SciTegic.value.DoubleValue
-7.246

@<SCITEGIC>MOL_PROPERTY
VdW
SciTegic.value.DoubleValue
1.352

@<SCITEGIC>MOL_PROPERTY
VdW6
SciTegic.value.DoubleValue
-2.500

@<SCITEGIC>MOL_PROPERTY
VdW12
SciTegic.value.DoubleValue
3.851

@<SCITEGIC>MOL_PROPERTY
Bond
SciTegic.value.DoubleValue
0.063

@<SCITEGIC>MOL_PROPERTY
Angle
SciTegic.value.DoubleValue
0.687

@<SCITEGIC>MOL_PROPERTY
Pdih
SciTegic.value.DoubleValue
5.986

@<SCITEGIC>MOL_PROPERTY
Idih
SciTegic.value.DoubleValue
0.000

@<SCITEGIC>MOL_PROPERTY
Tether
SciTegic.value.DoubleValue
0.000

@<TRIPOS>MOLECULE
guest-s16_confgen4.mol2 : confsearch ligand conformer 229
          13          13           1
SMALL
USER_CHARGES
 
@<TRIPOS>ATOM
       1    C1      20.473314   18.185616   21.487131 C.3        1 MOL1        -0.1693
       2    H1      20.264660   18.145175   20.409868 H          1 MOL1         0.0829
       3    H2      21.311843   17.513970   21.706639 H          1 MOL1         0.0829
       4    C2      19.214195   18.035011   22.403260 C.3        1 MOL1        -0.1768
       5    H3      18.412214   17.395030   22.019145 H          1 MOL1         0.0829
       6    H4      19.433306   17.742185   23.437490 H          1 MOL1         0.0829
       7    C3      19.022529   19.565970   22.182846 C.3        1 MOL1         0.1211
       8    H5      18.504521   19.818599   21.247677 H          1 MOL1         0.0786
       9    C4      20.576366   19.629836   22.079557 C.3        1 MOL1        -0.1768
      10    H6      21.099940   19.693472   23.041435 H          1 MOL1         0.0829
      11    H7      20.977389   20.398329   21.409565 H          1 MOL1         0.0829
      12    O1      18.459464   20.266785   23.266190 O.3        1 MOL1        -0.5515
      13    H8      18.958862   20.002860   24.067229 H          1 MOL1         0.3773
@<TRIPOS>BOND
    1     1     2    1
    2     1     3    1
    3     1     4    1
    4     4     5    1
    5     4     6    1
    6     4     7    1
    7     7     8    1
    8     1     9    1
    9     7     9    1
   10     9    10    1
   11     9    11    1
   12     7    12    1
   13    12    13    1
@<TRIPOS>SUBSTRUCTURE
       1 MOL1            1 RESIDUE      1      MOL     
@<SCITEGIC>MOL_PROPERTY
VConf Rank
SciTegic.value.IntegerValue
229

@<SCITEGIC>MOL_PROPERTY
Conf_Id
SciTegic.value.IntegerValue
24

@<SCITEGIC>MOL_PROPERTY
Delta U+W
SciTegic.value.DoubleValue
0.356

@<SCITEGIC>MOL_PROPERTY
U+W
SciTegic.value.DoubleValue
-2.775

@<SCITEGIC>MOL_PROPERTY
Grad RMS
SciTegic.value.DoubleValue
0.000000

@<SCITEGIC>MOL_PROPERTY
U
SciTegic.value.DoubleValue
-0.184

@<SCITEGIC>MOL_PROPERTY
W
SciTegic.value.DoubleValue
-2.591

@<SCITEGIC>MOL_PROPERTY
W(PB)
SciTegic.value.DoubleValue
-4.184

@<SCITEGIC>MOL_PROPERTY
W(SA)
SciTegic.value.DoubleValue
1.593

@<SCITEGIC>MOL_PROPERTY
Valence
SciTegic.value.DoubleValue
6.840

@<SCITEGIC>MOL_PROPERTY
Coulomb
SciTegic.value.DoubleValue
-7.916

@<SCITEGIC>MOL_PROPERTY
VdW
SciTegic.value.DoubleValue
0.893

@<SCITEGIC>MOL_PROPERTY
VdW6
SciTegic.value.DoubleValue
-2.167

@<SCITEGIC>MOL_PROPERTY
VdW12
SciTegic.value.DoubleValue
3.060

@<SCITEGIC>MOL_PROPERTY
Bond
SciTegic.value.DoubleValue
0.059

@<SCITEGIC>MOL_PROPERTY
Angle
SciTegic.value.DoubleValue
0.918

@<SCITEGIC>MOL_PROPERTY
Pdih
SciTegic.value.DoubleValue
5.862

@<SCITEGIC>MOL_PROPERTY
Idih
SciTegic.value.DoubleValue
0.000

@<SCITEGIC>MOL_PROPERTY
Tether
SciTegic.value.DoubleValue
0.000

@<TRIPOS>MOLECULE
guest-s16_confgen4.mol2 : confsearch ligand conformer 230
          13          13           1
SMALL
USER_CHARGES
 
@<TRIPOS>ATOM
       1    C1      19.068851   18.217306   21.653618 C.3        1 MOL1        -0.1693
       2    H1      18.377873   18.049849   20.818824 H          1 MOL1         0.0829
       3    H2      19.225534   17.262141   22.170730 H          1 MOL1         0.0829
       4    C2      18.730647   19.425233   22.589923 C.3        1 MOL1        -0.1768
       5    H3      18.218770   20.256690   22.090247 H          1 MOL1         0.0829
       6    H4      18.187829   19.185416   23.511088 H          1 MOL1         0.0829
       7    C3      20.271048   19.623186   22.738142 C.3        1 MOL1         0.1211
       8    H5      20.596197   20.668813   22.811825 H          1 MOL1         0.0786
       9    C4      20.378529   19.002957   21.310641 C.3        1 MOL1        -0.1768
      10    H6      20.270687   19.730877   20.497304 H          1 MOL1         0.0829
      11    H7      21.270050   18.395584   21.118299 H          1 MOL1         0.0829
      12    O1      20.869957   18.858529   23.762025 O.3        1 MOL1        -0.5515
      13    H8      20.545887   17.941392   23.647342 H          1 MOL1         0.3773
@<TRIPOS>BOND
    1     1     2    1
    2     1     3    1
    3     1     4    1
    4     4     5    1
    5     4     6    1
    6     4     7    1
    7     7     8    1
    8     1     9    1
    9     7     9    1
   10     9    10    1
   11     9    11    1
   12     7    12    1
   13    12    13    1
@<TRIPOS>SUBSTRUCTURE
       1 MOL1            1 RESIDUE      1      MOL     
@<SCITEGIC>MOL_PROPERTY
VConf Rank
SciTegic.value.IntegerValue
230

@<SCITEGIC>MOL_PROPERTY
Conf_Id
SciTegic.value.IntegerValue
44

@<SCITEGIC>MOL_PROPERTY
Delta U+W
SciTegic.value.DoubleValue
0.823

@<SCITEGIC>MOL_PROPERTY
U+W
SciTegic.value.DoubleValue
-2.308

@<SCITEGIC>MOL_PROPERTY
Grad RMS
SciTegic.value.DoubleValue
0.000000

@<SCITEGIC>MOL_PROPERTY
U
SciTegic.value.DoubleValue
0.039

@<SCITEGIC>MOL_PROPERTY
W
SciTegic.value.DoubleValue
-2.348

@<SCITEGIC>MOL_PROPERTY
W(PB)
SciTegic.value.DoubleValue
-3.918

@<SCITEGIC>MOL_PROPERTY
W(SA)
SciTegic.value.DoubleValue
1.571

@<SCITEGIC>MOL_PROPERTY
Valence
SciTegic.value.DoubleValue
7.320

@<SCITEGIC>MOL_PROPERTY
Coulomb
SciTegic.value.DoubleValue
-8.530

@<SCITEGIC>MOL_PROPERTY
VdW
SciTegic.value.DoubleValue
1.249

@<SCITEGIC>MOL_PROPERTY
VdW6
SciTegic.value.DoubleValue
-2.615

@<SCITEGIC>MOL_PROPERTY
VdW12
SciTegic.value.DoubleValue
3.864

@<SCITEGIC>MOL_PROPERTY
Bond
SciTegic.value.DoubleValue
0.056

@<SCITEGIC>MOL_PROPERTY
Angle
SciTegic.value.DoubleValue
0.694

@<SCITEGIC>MOL_PROPERTY
Pdih
SciTegic.value.DoubleValue
6.570

@<SCITEGIC>MOL_PROPERTY
Idih
SciTegic.value.DoubleValue
0.000

@<SCITEGIC>MOL_PROPERTY
Tether
SciTegic.value.DoubleValue
0.000

@<TRIPOS>MOLECULE
guest-s16_confgen4.mol2 : confsearch ligand conformer 231
          13          13           1
SMALL
USER_CHARGES
 
@<TRIPOS>ATOM
       1    C1      18.587238   19.799917   22.202617 C.3        1 MOL1        -0.1693
       2    H1      18.786762   20.858690   22.414220 H          1 MOL1         0.0829
       3    H2      17.524489   19.685701   21.957962 H          1 MOL1         0.0829
       4    C2      19.159315   18.801628   23.262548 C.3        1 MOL1        -0.1768
       5    H3      19.189443   19.159669   24.297372 H          1 MOL1         0.0829
       6    H4      18.703468   17.803850   23.247452 H          1 MOL1         0.0829
       7    C3      20.495278   18.913088   22.467798 C.3        1 MOL1         0.1211
       8    H5      21.100008   19.789378   22.738869 H          1 MOL1         0.0786
       9    C4      19.596069   19.128687   21.213153 C.3        1 MOL1        -0.1768
      10    H6      20.010805   19.777179   20.433651 H          1 MOL1         0.0829
      11    H7      19.234092   18.203582   20.747376 H          1 MOL1         0.0829
      12    O1      21.284759   17.746487   22.450279 O.3        1 MOL1        -0.5515
      13    H8      22.001001   17.890049   21.794847 H          1 MOL1         0.3773
@<TRIPOS>BOND
    1     1     2    1
    2     1     3    1
    3     1     4    1
    4     4     5    1
    5     4     6    1
    6     4     7    1
    7     7     8    1
    8     1     9    1
    9     7     9    1
   10     9    10    1
   11     9    11    1
   12     7    12    1
   13    12    13    1
@<TRIPOS>SUBSTRUCTURE
       1 MOL1            1 RESIDUE      1      MOL     
@<SCITEGIC>MOL_PROPERTY
VConf Rank
SciTegic.value.IntegerValue
231

@<SCITEGIC>MOL_PROPERTY
Conf_Id
SciTegic.value.IntegerValue
22

@<SCITEGIC>MOL_PROPERTY
Delta U+W
SciTegic.value.DoubleValue
0.000

@<SCITEGIC>MOL_PROPERTY
U+W
SciTegic.value.DoubleValue
-3.131

@<SCITEGIC>MOL_PROPERTY
Grad RMS
SciTegic.value.DoubleValue
0.000000

@<SCITEGIC>MOL_PROPERTY
U
SciTegic.value.DoubleValue
-0.154

@<SCITEGIC>MOL_PROPERTY
W
SciTegic.value.DoubleValue
-2.978

@<SCITEGIC>MOL_PROPERTY
W(PB)
SciTegic.value.DoubleValue
-4.579

@<SCITEGIC>MOL_PROPERTY
W(SA)
SciTegic.value.DoubleValue
1.601

@<SCITEGIC>MOL_PROPERTY
Valence
SciTegic.value.DoubleValue
6.333

@<SCITEGIC>MOL_PROPERTY
Coulomb
SciTegic.value.DoubleValue
-7.439

@<SCITEGIC>MOL_PROPERTY
VdW
SciTegic.value.DoubleValue
0.952

@<SCITEGIC>MOL_PROPERTY
VdW6
SciTegic.value.DoubleValue
-2.120

@<SCITEGIC>MOL_PROPERTY
VdW12
SciTegic.value.DoubleValue
3.072

@<SCITEGIC>MOL_PROPERTY
Bond
SciTegic.value.DoubleValue
0.065

@<SCITEGIC>MOL_PROPERTY
Angle
SciTegic.value.DoubleValue
0.931

@<SCITEGIC>MOL_PROPERTY
Pdih
SciTegic.value.DoubleValue
5.338

@<SCITEGIC>MOL_PROPERTY
Idih
SciTegic.value.DoubleValue
0.000

@<SCITEGIC>MOL_PROPERTY
Tether
SciTegic.value.DoubleValue
0.000

@<TRIPOS>MOLECULE
guest-s16_confgen4.mol2 : confsearch ligand conformer 232
          13          13           1
SMALL
USER_CHARGES
 
@<TRIPOS>ATOM
       1    C1      19.341274   19.103510   20.970504 C.3        1 MOL1        -0.1693
       2    H1      19.828472   18.376689   20.307213 H          1 MOL1         0.0829
       3    H2      18.780573   19.817847   20.355952 H          1 MOL1         0.0829
       4    C2      20.275162   19.721602   22.062816 C.3        1 MOL1        -0.1768
       5    H3      19.909125   20.658070   22.501949 H          1 MOL1         0.0829
       6    H4      21.326090   19.850945   21.781759 H          1 MOL1         0.0829
       7    C3      19.945706   18.444663   22.893526 C.3        1 MOL1         0.1211
       8    H5      20.562043   17.572852   22.634419 H          1 MOL1         0.0786
       9    C4      18.564016   18.473577   22.173151 C.3        1 MOL1        -0.1768
      10    H6      17.822659   19.134941   22.638524 H          1 MOL1         0.0829
      11    H7      18.100934   17.497553   21.991787 H          1 MOL1         0.0829
      12    O1      19.901042   18.628623   24.289489 O.3        1 MOL1        -0.5515
      13    H8      20.825004   18.753509   24.595921 H          1 MOL1         0.3773
@<TRIPOS>BOND
    1     1     2    1
    2     1     3    1
    3     1     4    1
    4     4     5    1
    5     4     6    1
    6     4     7    1
    7     7     8    1
    8     1     9    1
    9     7     9    1
   10     9    10    1
   11     9    11    1
   12     7    12    1
   13    12    13    1
@<TRIPOS>SUBSTRUCTURE
       1 MOL1            1 RESIDUE      1      MOL     
@<SCITEGIC>MOL_PROPERTY
VConf Rank
SciTegic.value.IntegerValue
232

@<SCITEGIC>MOL_PROPERTY
Conf_Id
SciTegic.value.IntegerValue
19

@<SCITEGIC>MOL_PROPERTY
Delta U+W
SciTegic.value.DoubleValue
-0.011

@<SCITEGIC>MOL_PROPERTY
U+W
SciTegic.value.DoubleValue
-3.142

@<SCITEGIC>MOL_PROPERTY
Grad RMS
SciTegic.value.DoubleValue
0.000000

@<SCITEGIC>MOL_PROPERTY
U
SciTegic.value.DoubleValue
-0.154

@<SCITEGIC>MOL_PROPERTY
W
SciTegic.value.DoubleValue
-2.989

@<SCITEGIC>MOL_PROPERTY
W(PB)
SciTegic.value.DoubleValue
-4.588

@<SCITEGIC>MOL_PROPERTY
W(SA)
SciTegic.value.DoubleValue
1.599

@<SCITEGIC>MOL_PROPERTY
Valence
SciTegic.value.DoubleValue
6.334

@<SCITEGIC>MOL_PROPERTY
Coulomb
SciTegic.value.DoubleValue
-7.439

@<SCITEGIC>MOL_PROPERTY
VdW
SciTegic.value.DoubleValue
0.951

@<SCITEGIC>MOL_PROPERTY
VdW6
SciTegic.value.DoubleValue
-2.120

@<SCITEGIC>MOL_PROPERTY
VdW12
SciTegic.value.DoubleValue
3.072

@<SCITEGIC>MOL_PROPERTY
Bond
SciTegic.value.DoubleValue
0.065

@<SCITEGIC>MOL_PROPERTY
Angle
SciTegic.value.DoubleValue
0.930

@<SCITEGIC>MOL_PROPERTY
Pdih
SciTegic.value.DoubleValue
5.339

@<SCITEGIC>MOL_PROPERTY
Idih
SciTegic.value.DoubleValue
0.000

@<SCITEGIC>MOL_PROPERTY
Tether
SciTegic.value.DoubleValue
0.000

@<TRIPOS>MOLECULE
guest-s16_confgen4.mol2 : confsearch ligand conformer 233
          13          13           1
SMALL
USER_CHARGES
 
@<TRIPOS>ATOM
       1    C1      20.431745   19.072400   21.343118 C.3        1 MOL1        -0.1693
       2    H1      20.539884   19.048476   20.252380 H          1 MOL1         0.0829
       3    H2      21.421708   19.230051   21.790697 H          1 MOL1         0.0829
       4    C2      19.610157   17.902295   21.979372 C.3        1 MOL1        -0.1768
       5    H3      18.814820   17.503528   21.338132 H          1 MOL1         0.0829
       6    H4      20.194100   17.064230   22.375668 H          1 MOL1         0.0829
       7    C3      19.120299   18.945073   23.032027 C.3        1 MOL1         0.1211
       8    H5      18.083538   18.806299   23.364716 H          1 MOL1         0.0786
       9    C4      19.308361   20.006636   21.903395 C.3        1 MOL1        -0.1768
      10    H6      19.629672   21.002017   22.229477 H          1 MOL1         0.0829
      11    H7      18.439757   20.118390   21.243083 H          1 MOL1         0.0829
      12    O1      19.969887   19.105399   24.150347 O.3        1 MOL1        -0.5515
      13    H8      19.657758   19.894903   24.641687 H          1 MOL1         0.3773
@<TRIPOS>BOND
    1     1     2    1
    2     1     3    1
    3     1     4    1
    4     4     5    1
    5     4     6    1
    6     4     7    1
    7     7     8    1
    8     1     9    1
    9     7     9    1
   10     9    10    1
   11     9    11    1
   12     7    12    1
   13    12    13    1
@<TRIPOS>SUBSTRUCTURE
       1 MOL1            1 RESIDUE      1      MOL     
@<SCITEGIC>MOL_PROPERTY
VConf Rank
SciTegic.value.IntegerValue
233

@<SCITEGIC>MOL_PROPERTY
Conf_Id
SciTegic.value.IntegerValue
20

@<SCITEGIC>MOL_PROPERTY
Delta U+W
SciTegic.value.DoubleValue
1.030

@<SCITEGIC>MOL_PROPERTY
U+W
SciTegic.value.DoubleValue
-2.101

@<SCITEGIC>MOL_PROPERTY
Grad RMS
SciTegic.value.DoubleValue
0.000000

@<SCITEGIC>MOL_PROPERTY
U
SciTegic.value.DoubleValue
0.841

@<SCITEGIC>MOL_PROPERTY
W
SciTegic.value.DoubleValue
-2.942

@<SCITEGIC>MOL_PROPERTY
W(PB)
SciTegic.value.DoubleValue
-4.530

@<SCITEGIC>MOL_PROPERTY
W(SA)
SciTegic.value.DoubleValue
1.587

@<SCITEGIC>MOL_PROPERTY
Valence
SciTegic.value.DoubleValue
6.736

@<SCITEGIC>MOL_PROPERTY
Coulomb
SciTegic.value.DoubleValue
-7.246

@<SCITEGIC>MOL_PROPERTY
VdW
SciTegic.value.DoubleValue
1.352

@<SCITEGIC>MOL_PROPERTY
VdW6
SciTegic.value.DoubleValue
-2.500

@<SCITEGIC>MOL_PROPERTY
VdW12
SciTegic.value.DoubleValue
3.851

@<SCITEGIC>MOL_PROPERTY
Bond
SciTegic.value.DoubleValue
0.063

@<SCITEGIC>MOL_PROPERTY
Angle
SciTegic.value.DoubleValue
0.687

@<SCITEGIC>MOL_PROPERTY
Pdih
SciTegic.value.DoubleValue
5.986

@<SCITEGIC>MOL_PROPERTY
Idih
SciTegic.value.DoubleValue
0.000

@<SCITEGIC>MOL_PROPERTY
Tether
SciTegic.value.DoubleValue
0.000

@<TRIPOS>MOLECULE
guest-s16_confgen4.mol2 : confsearch ligand conformer 234
          13          13           1
SMALL
USER_CHARGES
 
@<TRIPOS>ATOM
       1    C1      20.430848   18.256360   21.381992 C.3        1 MOL1        -0.1693
       2    H1      19.885927   17.649104   20.647164 H          1 MOL1         0.0829
       3    H2      21.506703   18.115439   21.223568 H          1 MOL1         0.0829
       4    C2      19.927859   18.106866   22.855766 C.3        1 MOL1        -0.1768
       5    H3      19.535957   17.122325   23.133943 H          1 MOL1         0.0829
       6    H4      20.646972   18.428016   23.619395 H          1 MOL1         0.0829
       7    C3      18.860986   19.175695   22.470354 C.3        1 MOL1         0.1211
       8    H5      17.979624   18.760547   21.962864 H          1 MOL1         0.0786
       9    C4      19.941533   19.737742   21.497894 C.3        1 MOL1        -0.1768
      10    H6      20.663702   20.423413   21.958021 H          1 MOL1         0.0829
      11    H7      19.561705   20.193514   20.576865 H          1 MOL1         0.0829
      12    O1      18.472179   20.043350   23.508535 O.3        1 MOL1        -0.5515
      13    H8      19.294608   20.380466   23.921672 H          1 MOL1         0.3773
@<TRIPOS>BOND
    1     1     2    1
    2     1     3    1
    3     1     4    1
    4     4     5    1
    5     4     6    1
    6     4     7    1
    7     7     8    1
    8     1     9    1
    9     7     9    1
   10     9    10    1
   11     9    11    1
   12     7    12    1
   13    12    13    1
@<TRIPOS>SUBSTRUCTURE
       1 MOL1            1 RESIDUE      1      MOL     
@<SCITEGIC>MOL_PROPERTY
VConf Rank
SciTegic.value.IntegerValue
234

@<SCITEGIC>MOL_PROPERTY
Conf_Id
SciTegic.value.IntegerValue
24

@<SCITEGIC>MOL_PROPERTY
Delta U+W
SciTegic.value.DoubleValue
0.356

@<SCITEGIC>MOL_PROPERTY
U+W
SciTegic.value.DoubleValue
-2.775

@<SCITEGIC>MOL_PROPERTY
Grad RMS
SciTegic.value.DoubleValue
0.000000

@<SCITEGIC>MOL_PROPERTY
U
SciTegic.value.DoubleValue
-0.184

@<SCITEGIC>MOL_PROPERTY
W
SciTegic.value.DoubleValue
-2.591

@<SCITEGIC>MOL_PROPERTY
W(PB)
SciTegic.value.DoubleValue
-4.184

@<SCITEGIC>MOL_PROPERTY
W(SA)
SciTegic.value.DoubleValue
1.593

@<SCITEGIC>MOL_PROPERTY
Valence
SciTegic.value.DoubleValue
6.840

@<SCITEGIC>MOL_PROPERTY
Coulomb
SciTegic.value.DoubleValue
-7.916

@<SCITEGIC>MOL_PROPERTY
VdW
SciTegic.value.DoubleValue
0.893

@<SCITEGIC>MOL_PROPERTY
VdW6
SciTegic.value.DoubleValue
-2.167

@<SCITEGIC>MOL_PROPERTY
VdW12
SciTegic.value.DoubleValue
3.060

@<SCITEGIC>MOL_PROPERTY
Bond
SciTegic.value.DoubleValue
0.059

@<SCITEGIC>MOL_PROPERTY
Angle
SciTegic.value.DoubleValue
0.918

@<SCITEGIC>MOL_PROPERTY
Pdih
SciTegic.value.DoubleValue
5.862

@<SCITEGIC>MOL_PROPERTY
Idih
SciTegic.value.DoubleValue
0.000

@<SCITEGIC>MOL_PROPERTY
Tether
SciTegic.value.DoubleValue
0.000

@<TRIPOS>MOLECULE
guest-s16_confgen4.mol2 : confsearch ligand conformer 235
          13          13           1
SMALL
USER_CHARGES
 
@<TRIPOS>ATOM
       1    C1      19.067712   19.543427   22.948582 C.3        1 MOL1        -0.1693
       2    H1      18.100273   19.609318   23.460533 H          1 MOL1         0.0829
       3    H2      19.697331   20.375261   23.289064 H          1 MOL1         0.0829
       4    C2      19.008630   19.355062   21.395789 C.3        1 MOL1        -0.1768
       5    H3      18.129501   18.804740   21.039008 H          1 MOL1         0.0829
       6    H4      19.117871   20.264388   20.794207 H          1 MOL1         0.0829
       7    C3      20.290517   18.478508   21.545490 C.3        1 MOL1         0.1211
       8    H5      20.346376   17.623156   20.860115 H          1 MOL1         0.0786
       9    C4      19.760695   18.140110   22.973346 C.3        1 MOL1        -0.1768
      10    H6      19.065961   17.291902   23.003359 H          1 MOL1         0.0829
      11    H7      20.524543   17.991925   23.744893 H          1 MOL1         0.0829
      12    O1      21.504877   19.197123   21.520006 O.3        1 MOL1        -0.5515
      13    H8      21.397571   19.943052   22.145616 H          1 MOL1         0.3773
@<TRIPOS>BOND
    1     1     2    1
    2     1     3    1
    3     1     4    1
    4     4     5    1
    5     4     6    1
    6     4     7    1
    7     7     8    1
    8     1     9    1
    9     7     9    1
   10     9    10    1
   11     9    11    1
   12     7    12    1
   13    12    13    1
@<TRIPOS>SUBSTRUCTURE
       1 MOL1            1 RESIDUE      1      MOL     
@<SCITEGIC>MOL_PROPERTY
VConf Rank
SciTegic.value.IntegerValue
235

@<SCITEGIC>MOL_PROPERTY
Conf_Id
SciTegic.value.IntegerValue
44

@<SCITEGIC>MOL_PROPERTY
Delta U+W
SciTegic.value.DoubleValue
0.823

@<SCITEGIC>MOL_PROPERTY
U+W
SciTegic.value.DoubleValue
-2.308

@<SCITEGIC>MOL_PROPERTY
Grad RMS
SciTegic.value.DoubleValue
0.000000

@<SCITEGIC>MOL_PROPERTY
U
SciTegic.value.DoubleValue
0.039

@<SCITEGIC>MOL_PROPERTY
W
SciTegic.value.DoubleValue
-2.348

@<SCITEGIC>MOL_PROPERTY
W(PB)
SciTegic.value.DoubleValue
-3.918

@<SCITEGIC>MOL_PROPERTY
W(SA)
SciTegic.value.DoubleValue
1.571

@<SCITEGIC>MOL_PROPERTY
Valence
SciTegic.value.DoubleValue
7.320

@<SCITEGIC>MOL_PROPERTY
Coulomb
SciTegic.value.DoubleValue
-8.530

@<SCITEGIC>MOL_PROPERTY
VdW
SciTegic.value.DoubleValue
1.249

@<SCITEGIC>MOL_PROPERTY
VdW6
SciTegic.value.DoubleValue
-2.615

@<SCITEGIC>MOL_PROPERTY
VdW12
SciTegic.value.DoubleValue
3.864

@<SCITEGIC>MOL_PROPERTY
Bond
SciTegic.value.DoubleValue
0.056

@<SCITEGIC>MOL_PROPERTY
Angle
SciTegic.value.DoubleValue
0.694

@<SCITEGIC>MOL_PROPERTY
Pdih
SciTegic.value.DoubleValue
6.570

@<SCITEGIC>MOL_PROPERTY
Idih
SciTegic.value.DoubleValue
0.000

@<SCITEGIC>MOL_PROPERTY
Tether
SciTegic.value.DoubleValue
0.000

@<TRIPOS>MOLECULE
guest-s16_confgen4.mol2 : confsearch ligand conformer 236
          13          13           1
SMALL
USER_CHARGES
 
@<TRIPOS>ATOM
       1    C1      18.704826   18.162961   22.045943 C.3        1 MOL1        -0.1693
       2    H1      18.254842   18.229897   21.046633 H          1 MOL1         0.0829
       3    H2      18.243374   17.325494   22.582645 H          1 MOL1         0.0829
       4    C2      18.779132   19.519051   22.822349 C.3        1 MOL1        -0.1768
       5    H3      17.969454   20.231407   22.630174 H          1 MOL1         0.0829
       6    H4      18.913153   19.421232   23.906810 H          1 MOL1         0.0829
       7    C3      20.097943   19.761808   22.028211 C.3        1 MOL1         0.1211
       8    H5      19.939326   20.169422   21.020365 H          1 MOL1         0.0786
       9    C4      20.268309   18.212986   22.064531 C.3        1 MOL1        -0.1768
      10    H6      20.775332   17.767589   21.201558 H          1 MOL1         0.0829
      11    H7      20.728133   17.826406   22.982633 H          1 MOL1         0.0829
      12    O1      21.087728   20.493310   22.713613 O.3        1 MOL1        -0.5515
      13    H8      21.911176   20.436344   22.182680 H          1 MOL1         0.3773
@<TRIPOS>BOND
    1     1     2    1
    2     1     3    1
    3     1     4    1
    4     4     5    1
    5     4     6    1
    6     4     7    1
    7     7     8    1
    8     1     9    1
    9     7     9    1
   10     9    10    1
   11     9    11    1
   12     7    12    1
   13    12    13    1
@<TRIPOS>SUBSTRUCTURE
       1 MOL1            1 RESIDUE      1      MOL     
@<SCITEGIC>MOL_PROPERTY
VConf Rank
SciTegic.value.IntegerValue
236

@<SCITEGIC>MOL_PROPERTY
Conf_Id
SciTegic.value.IntegerValue
22

@<SCITEGIC>MOL_PROPERTY
Delta U+W
SciTegic.value.DoubleValue
0.000

@<SCITEGIC>MOL_PROPERTY
U+W
SciTegic.value.DoubleValue
-3.131

@<SCITEGIC>MOL_PROPERTY
Grad RMS
SciTegic.value.DoubleValue
0.000000

@<SCITEGIC>MOL_PROPERTY
U
SciTegic.value.DoubleValue
-0.154

@<SCITEGIC>MOL_PROPERTY
W
SciTegic.value.DoubleValue
-2.978

@<SCITEGIC>MOL_PROPERTY
W(PB)
SciTegic.value.DoubleValue
-4.579

@<SCITEGIC>MOL_PROPERTY
W(SA)
SciTegic.value.DoubleValue
1.601

@<SCITEGIC>MOL_PROPERTY
Valence
SciTegic.value.DoubleValue
6.333

@<SCITEGIC>MOL_PROPERTY
Coulomb
SciTegic.value.DoubleValue
-7.439

@<SCITEGIC>MOL_PROPERTY
VdW
SciTegic.value.DoubleValue
0.952

@<SCITEGIC>MOL_PROPERTY
VdW6
SciTegic.value.DoubleValue
-2.120

@<SCITEGIC>MOL_PROPERTY
VdW12
SciTegic.value.DoubleValue
3.072

@<SCITEGIC>MOL_PROPERTY
Bond
SciTegic.value.DoubleValue
0.065

@<SCITEGIC>MOL_PROPERTY
Angle
SciTegic.value.DoubleValue
0.931

@<SCITEGIC>MOL_PROPERTY
Pdih
SciTegic.value.DoubleValue
5.338

@<SCITEGIC>MOL_PROPERTY
Idih
SciTegic.value.DoubleValue
0.000

@<SCITEGIC>MOL_PROPERTY
Tether
SciTegic.value.DoubleValue
0.000

@<TRIPOS>MOLECULE
guest-s16_confgen4.mol2 : confsearch ligand conformer 237
          13          13           1
SMALL
USER_CHARGES
 
@<TRIPOS>ATOM
       1    C1      20.214321   19.875947   22.950372 C.3        1 MOL1        -0.1693
       2    H1      20.999445   19.502200   23.620804 H          1 MOL1         0.0829
       3    H2      20.107736   20.956446   23.103666 H          1 MOL1         0.0829
       4    C2      18.888681   19.045461   22.967714 C.3        1 MOL1        -0.1768
       5    H3      18.011707   19.574143   22.573755 H          1 MOL1         0.0829
       6    H4      18.621596   18.583390   23.924443 H          1 MOL1         0.0829
       7    C3      19.600548   18.115914   21.938937 C.3        1 MOL1         0.1211
       8    H5      20.261350   17.367263   22.397111 H          1 MOL1         0.0786
       9    C4      20.342025   19.402143   21.464941 C.3        1 MOL1        -0.1768
      10    H6      19.783900   20.007238   20.739723 H          1 MOL1         0.0829
      11    H7      21.360713   19.253960   21.090405 H          1 MOL1         0.0829
      12    O1      18.757141   17.519426   20.981120 O.3        1 MOL1        -0.5515
      13    H8      18.232936   16.830850   21.444019 H          1 MOL1         0.3773
@<TRIPOS>BOND
    1     1     2    1
    2     1     3    1
    3     1     4    1
    4     4     5    1
    5     4     6    1
    6     4     7    1
    7     7     8    1
    8     1     9    1
    9     7     9    1
   10     9    10    1
   11     9    11    1
   12     7    12    1
   13    12    13    1
@<TRIPOS>SUBSTRUCTURE
       1 MOL1            1 RESIDUE      1      MOL     
@<SCITEGIC>MOL_PROPERTY
VConf Rank
SciTegic.value.IntegerValue
237

@<SCITEGIC>MOL_PROPERTY
Conf_Id
SciTegic.value.IntegerValue
19

@<SCITEGIC>MOL_PROPERTY
Delta U+W
SciTegic.value.DoubleValue
-0.011

@<SCITEGIC>MOL_PROPERTY
U+W
SciTegic.value.DoubleValue
-3.142

@<SCITEGIC>MOL_PROPERTY
Grad RMS
SciTegic.value.DoubleValue
0.000000

@<SCITEGIC>MOL_PROPERTY
U
SciTegic.value.DoubleValue
-0.154

@<SCITEGIC>MOL_PROPERTY
W
SciTegic.value.DoubleValue
-2.989

@<SCITEGIC>MOL_PROPERTY
W(PB)
SciTegic.value.DoubleValue
-4.588

@<SCITEGIC>MOL_PROPERTY
W(SA)
SciTegic.value.DoubleValue
1.599

@<SCITEGIC>MOL_PROPERTY
Valence
SciTegic.value.DoubleValue
6.334

@<SCITEGIC>MOL_PROPERTY
Coulomb
SciTegic.value.DoubleValue
-7.439

@<SCITEGIC>MOL_PROPERTY
VdW
SciTegic.value.DoubleValue
0.951

@<SCITEGIC>MOL_PROPERTY
VdW6
SciTegic.value.DoubleValue
-2.120

@<SCITEGIC>MOL_PROPERTY
VdW12
SciTegic.value.DoubleValue
3.072

@<SCITEGIC>MOL_PROPERTY
Bond
SciTegic.value.DoubleValue
0.065

@<SCITEGIC>MOL_PROPERTY
Angle
SciTegic.value.DoubleValue
0.930

@<SCITEGIC>MOL_PROPERTY
Pdih
SciTegic.value.DoubleValue
5.339

@<SCITEGIC>MOL_PROPERTY
Idih
SciTegic.value.DoubleValue
0.000

@<SCITEGIC>MOL_PROPERTY
Tether
SciTegic.value.DoubleValue
0.000

@<TRIPOS>MOLECULE
guest-s16_confgen4.mol2 : confsearch ligand conformer 238
          13          13           1
SMALL
USER_CHARGES
 
@<TRIPOS>ATOM
       1    C1      20.346801   19.929806   22.770127 C.3        1 MOL1        -0.1693
       2    H1      21.270947   20.131311   23.324497 H          1 MOL1         0.0829
       3    H2      19.893496   20.887647   22.483315 H          1 MOL1         0.0829
       4    C2      19.355873   18.913914   23.429670 C.3        1 MOL1        -0.1768
       5    H3      19.837432   18.135377   24.033614 H          1 MOL1         0.0829
       6    H4      18.535079   19.349951   24.009810 H          1 MOL1         0.0829
       7    C3      18.997380   18.466832   21.978109 C.3        1 MOL1         0.1211
       8    H5      18.786177   17.395258   21.868870 H          1 MOL1         0.0786
       9    C4      20.454255   18.887235   21.608146 C.3        1 MOL1        -0.1768
      10    H6      20.593904   19.300696   20.603209 H          1 MOL1         0.0829
      11    H7      21.202850   18.102234   21.770487 H          1 MOL1         0.0829
      12    O1      17.980375   19.226256   21.355919 O.3        1 MOL1        -0.5515
      13    H8      17.967118   18.973179   20.408327 H          1 MOL1         0.3773
@<TRIPOS>BOND
    1     1     2    1
    2     1     3    1
    3     1     4    1
    4     4     5    1
    5     4     6    1
    6     4     7    1
    7     7     8    1
    8     1     9    1
    9     7     9    1
   10     9    10    1
   11     9    11    1
   12     7    12    1
   13    12    13    1
@<TRIPOS>SUBSTRUCTURE
       1 MOL1            1 RESIDUE      1      MOL     
@<SCITEGIC>MOL_PROPERTY
VConf Rank
SciTegic.value.IntegerValue
238

@<SCITEGIC>MOL_PROPERTY
Conf_Id
SciTegic.value.IntegerValue
20

@<SCITEGIC>MOL_PROPERTY
Delta U+W
SciTegic.value.DoubleValue
1.030

@<SCITEGIC>MOL_PROPERTY
U+W
SciTegic.value.DoubleValue
-2.101

@<SCITEGIC>MOL_PROPERTY
Grad RMS
SciTegic.value.DoubleValue
0.000000

@<SCITEGIC>MOL_PROPERTY
U
SciTegic.value.DoubleValue
0.841

@<SCITEGIC>MOL_PROPERTY
W
SciTegic.value.DoubleValue
-2.942

@<SCITEGIC>MOL_PROPERTY
W(PB)
SciTegic.value.DoubleValue
-4.530

@<SCITEGIC>MOL_PROPERTY
W(SA)
SciTegic.value.DoubleValue
1.587

@<SCITEGIC>MOL_PROPERTY
Valence
SciTegic.value.DoubleValue
6.736

@<SCITEGIC>MOL_PROPERTY
Coulomb
SciTegic.value.DoubleValue
-7.246

@<SCITEGIC>MOL_PROPERTY
VdW
SciTegic.value.DoubleValue
1.352

@<SCITEGIC>MOL_PROPERTY
VdW6
SciTegic.value.DoubleValue
-2.500

@<SCITEGIC>MOL_PROPERTY
VdW12
SciTegic.value.DoubleValue
3.851

@<SCITEGIC>MOL_PROPERTY
Bond
SciTegic.value.DoubleValue
0.063

@<SCITEGIC>MOL_PROPERTY
Angle
SciTegic.value.DoubleValue
0.687

@<SCITEGIC>MOL_PROPERTY
Pdih
SciTegic.value.DoubleValue
5.986

@<SCITEGIC>MOL_PROPERTY
Idih
SciTegic.value.DoubleValue
0.000

@<SCITEGIC>MOL_PROPERTY
Tether
SciTegic.value.DoubleValue
0.000

@<TRIPOS>MOLECULE
guest-s16_confgen4.mol2 : confsearch ligand conformer 239
          13          13           1
SMALL
USER_CHARGES
 
@<TRIPOS>ATOM
       1    C1      19.615198   19.228810   23.456970 C.3        1 MOL1        -0.1693
       2    H1      18.698544   19.741533   23.777172 H          1 MOL1         0.0829
       3    H2      20.247592   19.060463   24.336833 H          1 MOL1         0.0829
       4    C2      20.321280   19.866222   22.214991 C.3        1 MOL1        -0.1768
       5    H3      20.232477   20.953633   22.115273 H          1 MOL1         0.0829
       6    H4      21.375166   19.586639   22.094393 H          1 MOL1         0.0829
       7    C3      19.319593   19.024907   21.367660 C.3        1 MOL1         0.1211
       8    H5      18.335261   19.497028   21.245650 H          1 MOL1         0.0786
       9    C4      19.382017   17.989611   22.531027 C.3        1 MOL1        -0.1768
      10    H6      20.225967   17.290583   22.481067 H          1 MOL1         0.0829
      11    H7      18.463703   17.419689   22.710414 H          1 MOL1         0.0829
      12    O1      19.808748   18.571308   20.127986 O.3        1 MOL1        -0.5515
      13    H8      20.683057   18.162412   20.298598 H          1 MOL1         0.3773
@<TRIPOS>BOND
    1     1     2    1
    2     1     3    1
    3     1     4    1
    4     4     5    1
    5     4     6    1
    6     4     7    1
    7     7     8    1
    8     1     9    1
    9     7     9    1
   10     9    10    1
   11     9    11    1
   12     7    12    1
   13    12    13    1
@<TRIPOS>SUBSTRUCTURE
       1 MOL1            1 RESIDUE      1      MOL     
@<SCITEGIC>MOL_PROPERTY
VConf Rank
SciTegic.value.IntegerValue
239

@<SCITEGIC>MOL_PROPERTY
Conf_Id
SciTegic.value.IntegerValue
24

@<SCITEGIC>MOL_PROPERTY
Delta U+W
SciTegic.value.DoubleValue
0.356

@<SCITEGIC>MOL_PROPERTY
U+W
SciTegic.value.DoubleValue
-2.775

@<SCITEGIC>MOL_PROPERTY
Grad RMS
SciTegic.value.DoubleValue
0.000000

@<SCITEGIC>MOL_PROPERTY
U
SciTegic.value.DoubleValue
-0.184

@<SCITEGIC>MOL_PROPERTY
W
SciTegic.value.DoubleValue
-2.591

@<SCITEGIC>MOL_PROPERTY
W(PB)
SciTegic.value.DoubleValue
-4.184

@<SCITEGIC>MOL_PROPERTY
W(SA)
SciTegic.value.DoubleValue
1.593

@<SCITEGIC>MOL_PROPERTY
Valence
SciTegic.value.DoubleValue
6.840

@<SCITEGIC>MOL_PROPERTY
Coulomb
SciTegic.value.DoubleValue
-7.916

@<SCITEGIC>MOL_PROPERTY
VdW
SciTegic.value.DoubleValue
0.893

@<SCITEGIC>MOL_PROPERTY
VdW6
SciTegic.value.DoubleValue
-2.167

@<SCITEGIC>MOL_PROPERTY
VdW12
SciTegic.value.DoubleValue
3.060

@<SCITEGIC>MOL_PROPERTY
Bond
SciTegic.value.DoubleValue
0.059

@<SCITEGIC>MOL_PROPERTY
Angle
SciTegic.value.DoubleValue
0.918

@<SCITEGIC>MOL_PROPERTY
Pdih
SciTegic.value.DoubleValue
5.862

@<SCITEGIC>MOL_PROPERTY
Idih
SciTegic.value.DoubleValue
0.000

@<SCITEGIC>MOL_PROPERTY
Tether
SciTegic.value.DoubleValue
0.000

@<TRIPOS>MOLECULE
guest-s16_confgen4.mol2 : confsearch ligand conformer 240
          13          13           1
SMALL
USER_CHARGES
 
@<TRIPOS>ATOM
       1    C1      19.744079   18.094579   21.504964 C.3        1 MOL1        -0.1693
       2    H1      19.267098   17.162262   21.179928 H          1 MOL1         0.0829
       3    H2      20.647185   18.250569   20.901341 H          1 MOL1         0.0829
       4    C2      19.947548   18.257042   23.048449 C.3        1 MOL1        -0.1768
       5    H3      19.189645   17.753769   23.661077 H          1 MOL1         0.0829
       6    H4      20.938506   17.994550   23.435501 H          1 MOL1         0.0829
       7    C3      19.681835   19.778859   22.830595 C.3        1 MOL1         0.1211
       8    H5      19.132390   20.271520   23.642926 H          1 MOL1         0.0786
       9    C4      18.803919   19.341000   21.617525 C.3        1 MOL1        -0.1768
      10    H6      17.765615   19.103496   21.879312 H          1 MOL1         0.0829
      11    H7      18.799443   20.021999   20.759080 H          1 MOL1         0.0829
      12    O1      20.823512   20.536185   22.491835 O.3        1 MOL1        -0.5515
      13    H8      21.271081   20.052141   21.767475 H          1 MOL1         0.3773
@<TRIPOS>BOND
    1     1     2    1
    2     1     3    1
    3     1     4    1
    4     4     5    1
    5     4     6    1
    6     4     7    1
    7     7     8    1
    8     1     9    1
    9     7     9    1
   10     9    10    1
   11     9    11    1
   12     7    12    1
   13    12    13    1
@<TRIPOS>SUBSTRUCTURE
       1 MOL1            1 RESIDUE      1      MOL     
@<SCITEGIC>MOL_PROPERTY
VConf Rank
SciTegic.value.IntegerValue
240

@<SCITEGIC>MOL_PROPERTY
Conf_Id
SciTegic.value.IntegerValue
44

@<SCITEGIC>MOL_PROPERTY
Delta U+W
SciTegic.value.DoubleValue
0.823

@<SCITEGIC>MOL_PROPERTY
U+W
SciTegic.value.DoubleValue
-2.308

@<SCITEGIC>MOL_PROPERTY
Grad RMS
SciTegic.value.DoubleValue
0.000000

@<SCITEGIC>MOL_PROPERTY
U
SciTegic.value.DoubleValue
0.039

@<SCITEGIC>MOL_PROPERTY
W
SciTegic.value.DoubleValue
-2.348

@<SCITEGIC>MOL_PROPERTY
W(PB)
SciTegic.value.DoubleValue
-3.918

@<SCITEGIC>MOL_PROPERTY
W(SA)
SciTegic.value.DoubleValue
1.571

@<SCITEGIC>MOL_PROPERTY
Valence
SciTegic.value.DoubleValue
7.320

@<SCITEGIC>MOL_PROPERTY
Coulomb
SciTegic.value.DoubleValue
-8.530

@<SCITEGIC>MOL_PROPERTY
VdW
SciTegic.value.DoubleValue
1.249

@<SCITEGIC>MOL_PROPERTY
VdW6
SciTegic.value.DoubleValue
-2.615

@<SCITEGIC>MOL_PROPERTY
VdW12
SciTegic.value.DoubleValue
3.864

@<SCITEGIC>MOL_PROPERTY
Bond
SciTegic.value.DoubleValue
0.056

@<SCITEGIC>MOL_PROPERTY
Angle
SciTegic.value.DoubleValue
0.694

@<SCITEGIC>MOL_PROPERTY
Pdih
SciTegic.value.DoubleValue
6.570

@<SCITEGIC>MOL_PROPERTY
Idih
SciTegic.value.DoubleValue
0.000

@<SCITEGIC>MOL_PROPERTY
Tether
SciTegic.value.DoubleValue
0.000

@<TRIPOS>MOLECULE
guest-s16_confgen4.mol2 : confsearch ligand conformer 241
          13          13           1
SMALL
USER_CHARGES
 
@<TRIPOS>ATOM
       1    C1      19.656815   18.146089   21.280379 C.3        1 MOL1        -0.1693
       2    H1      20.047891   17.167218   21.587718 H          1 MOL1         0.0829
       3    H2      19.314495   18.076045   20.241029 H          1 MOL1         0.0829
       4    C2      20.587506   19.357634   21.616950 C.3        1 MOL1        -0.1768
       5    H3      21.665000   19.162223   21.588977 H          1 MOL1         0.0829
       6    H4      20.379354   20.270204   21.044696 H          1 MOL1         0.0829
       7    C3      19.927726   19.316089   23.028266 C.3        1 MOL1         0.1211
       8    H5      20.380361   18.580417   23.707214 H          1 MOL1         0.0786
       9    C4      18.656138   18.797862   22.290906 C.3        1 MOL1        -0.1768
      10    H6      18.023779   18.105716   22.857675 H          1 MOL1         0.0829
      11    H7      18.023208   19.586298   21.864806 H          1 MOL1         0.0829
      12    O1      19.788352   20.564997   23.664936 O.3        1 MOL1        -0.5515
      13    H8      19.222102   20.427112   24.454589 H          1 MOL1         0.3773
@<TRIPOS>BOND
    1     1     2    1
    2     1     3    1
    3     1     4    1
    4     4     5    1
    5     4     6    1
    6     4     7    1
    7     7     8    1
    8     1     9    1
    9     7     9    1
   10     9    10    1
   11     9    11    1
   12     7    12    1
   13    12    13    1
@<TRIPOS>SUBSTRUCTURE
       1 MOL1            1 RESIDUE      1      MOL     
@<SCITEGIC>MOL_PROPERTY
VConf Rank
SciTegic.value.IntegerValue
241

@<SCITEGIC>MOL_PROPERTY
Conf_Id
SciTegic.value.IntegerValue
22

@<SCITEGIC>MOL_PROPERTY
Delta U+W
SciTegic.value.DoubleValue
0.000

@<SCITEGIC>MOL_PROPERTY
U+W
SciTegic.value.DoubleValue
-3.131

@<SCITEGIC>MOL_PROPERTY
Grad RMS
SciTegic.value.DoubleValue
0.000000

@<SCITEGIC>MOL_PROPERTY
U
SciTegic.value.DoubleValue
-0.154

@<SCITEGIC>MOL_PROPERTY
W
SciTegic.value.DoubleValue
-2.978

@<SCITEGIC>MOL_PROPERTY
W(PB)
SciTegic.value.DoubleValue
-4.579

@<SCITEGIC>MOL_PROPERTY
W(SA)
SciTegic.value.DoubleValue
1.601

@<SCITEGIC>MOL_PROPERTY
Valence
SciTegic.value.DoubleValue
6.333

@<SCITEGIC>MOL_PROPERTY
Coulomb
SciTegic.value.DoubleValue
-7.439

@<SCITEGIC>MOL_PROPERTY
VdW
SciTegic.value.DoubleValue
0.952

@<SCITEGIC>MOL_PROPERTY
VdW6
SciTegic.value.DoubleValue
-2.120

@<SCITEGIC>MOL_PROPERTY
VdW12
SciTegic.value.DoubleValue
3.072

@<SCITEGIC>MOL_PROPERTY
Bond
SciTegic.value.DoubleValue
0.065

@<SCITEGIC>MOL_PROPERTY
Angle
SciTegic.value.DoubleValue
0.931

@<SCITEGIC>MOL_PROPERTY
Pdih
SciTegic.value.DoubleValue
5.338

@<SCITEGIC>MOL_PROPERTY
Idih
SciTegic.value.DoubleValue
0.000

@<SCITEGIC>MOL_PROPERTY
Tether
SciTegic.value.DoubleValue
0.000

@<TRIPOS>MOLECULE
guest-s16_confgen4.mol2 : confsearch ligand conformer 242
          13          13           1
SMALL
USER_CHARGES
 
@<TRIPOS>ATOM
       1    C1      19.903725   19.502189   21.091046 C.3        1 MOL1        -0.1693
       2    H1      20.967501   19.743149   20.964930 H          1 MOL1         0.0829
       3    H2      19.355322   19.867913   20.214782 H          1 MOL1         0.0829
       4    C2      19.306322   19.886169   22.484961 C.3        1 MOL1        -0.1768
       5    H3      18.211785   19.957883   22.510242 H          1 MOL1         0.0829
       6    H4      19.729264   20.777076   22.962012 H          1 MOL1         0.0829
       7    C3      19.877043   18.519376   22.970087 C.3        1 MOL1         0.1211
       8    H5      20.941370   18.551403   23.240720 H          1 MOL1         0.0786
       9    C4      19.613266   18.024874   21.515875 C.3        1 MOL1        -0.1768
      10    H6      18.586320   17.686504   21.330211 H          1 MOL1         0.0829
      11    H7      20.307845   17.267211   21.137105 H          1 MOL1         0.0829
      12    O1      19.125465   17.873621   23.971427 O.3        1 MOL1        -0.5515
      13    H8      19.256870   18.377013   24.803613 H          1 MOL1         0.3773
@<TRIPOS>BOND
    1     1     2    1
    2     1     3    1
    3     1     4    1
    4     4     5    1
    5     4     6    1
    6     4     7    1
    7     7     8    1
    8     1     9    1
    9     7     9    1
   10     9    10    1
   11     9    11    1
   12     7    12    1
   13    12    13    1
@<TRIPOS>SUBSTRUCTURE
       1 MOL1            1 RESIDUE      1      MOL     
@<SCITEGIC>MOL_PROPERTY
VConf Rank
SciTegic.value.IntegerValue
242

@<SCITEGIC>MOL_PROPERTY
Conf_Id
SciTegic.value.IntegerValue
19

@<SCITEGIC>MOL_PROPERTY
Delta U+W
SciTegic.value.DoubleValue
-0.011

@<SCITEGIC>MOL_PROPERTY
U+W
SciTegic.value.DoubleValue
-3.142

@<SCITEGIC>MOL_PROPERTY
Grad RMS
SciTegic.value.DoubleValue
0.000000

@<SCITEGIC>MOL_PROPERTY
U
SciTegic.value.DoubleValue
-0.154

@<SCITEGIC>MOL_PROPERTY
W
SciTegic.value.DoubleValue
-2.989

@<SCITEGIC>MOL_PROPERTY
W(PB)
SciTegic.value.DoubleValue
-4.588

@<SCITEGIC>MOL_PROPERTY
W(SA)
SciTegic.value.DoubleValue
1.599

@<SCITEGIC>MOL_PROPERTY
Valence
SciTegic.value.DoubleValue
6.334

@<SCITEGIC>MOL_PROPERTY
Coulomb
SciTegic.value.DoubleValue
-7.439

@<SCITEGIC>MOL_PROPERTY
VdW
SciTegic.value.DoubleValue
0.951

@<SCITEGIC>MOL_PROPERTY
VdW6
SciTegic.value.DoubleValue
-2.120

@<SCITEGIC>MOL_PROPERTY
VdW12
SciTegic.value.DoubleValue
3.072

@<SCITEGIC>MOL_PROPERTY
Bond
SciTegic.value.DoubleValue
0.065

@<SCITEGIC>MOL_PROPERTY
Angle
SciTegic.value.DoubleValue
0.930

@<SCITEGIC>MOL_PROPERTY
Pdih
SciTegic.value.DoubleValue
5.339

@<SCITEGIC>MOL_PROPERTY
Idih
SciTegic.value.DoubleValue
0.000

@<SCITEGIC>MOL_PROPERTY
Tether
SciTegic.value.DoubleValue
0.000

@<TRIPOS>MOLECULE
guest-s16_confgen4.mol2 : confsearch ligand conformer 243
          13          13           1
SMALL
USER_CHARGES
 
@<TRIPOS>ATOM
       1    C1      18.973797   19.070671   21.239409 C.3        1 MOL1        -0.1693
       2    H1      18.022721   18.789699   20.771985 H          1 MOL1         0.0829
       3    H2      19.564406   19.646535   20.515001 H          1 MOL1         0.0829
       4    C2      19.759762   17.917831   21.948064 C.3        1 MOL1        -0.1768
       5    H3      19.126339   17.131791   22.376645 H          1 MOL1         0.0829
       6    H4      20.554977   17.445690   21.360604 H          1 MOL1         0.0829
       7    C3      20.225173   18.995545   22.976342 C.3        1 MOL1         0.1211
       8    H5      20.321756   18.631914   24.007485 H          1 MOL1         0.0786
       9    C4      18.877789   19.717519   22.661053 C.3        1 MOL1        -0.1768
      10    H6      18.901015   20.812407   22.693174 H          1 MOL1         0.0829
      11    H7      18.029807   19.367902   23.262440 H          1 MOL1         0.0829
      12    O1      21.386849   19.709951   22.604487 O.3        1 MOL1        -0.5515
      13    H8      21.477296   20.462240   23.227412 H          1 MOL1         0.3773
@<TRIPOS>BOND
    1     1     2    1
    2     1     3    1
    3     1     4    1
    4     4     5    1
    5     4     6    1
    6     4     7    1
    7     7     8    1
    8     1     9    1
    9     7     9    1
   10     9    10    1
   11     9    11    1
   12     7    12    1
   13    12    13    1
@<TRIPOS>SUBSTRUCTURE
       1 MOL1            1 RESIDUE      1      MOL     
@<SCITEGIC>MOL_PROPERTY
VConf Rank
SciTegic.value.IntegerValue
243

@<SCITEGIC>MOL_PROPERTY
Conf_Id
SciTegic.value.IntegerValue
20

@<SCITEGIC>MOL_PROPERTY
Delta U+W
SciTegic.value.DoubleValue
1.030

@<SCITEGIC>MOL_PROPERTY
U+W
SciTegic.value.DoubleValue
-2.101

@<SCITEGIC>MOL_PROPERTY
Grad RMS
SciTegic.value.DoubleValue
0.000000

@<SCITEGIC>MOL_PROPERTY
U
SciTegic.value.DoubleValue
0.841

@<SCITEGIC>MOL_PROPERTY
W
SciTegic.value.DoubleValue
-2.942

@<SCITEGIC>MOL_PROPERTY
W(PB)
SciTegic.value.DoubleValue
-4.530

@<SCITEGIC>MOL_PROPERTY
W(SA)
SciTegic.value.DoubleValue
1.587

@<SCITEGIC>MOL_PROPERTY
Valence
SciTegic.value.DoubleValue
6.736

@<SCITEGIC>MOL_PROPERTY
Coulomb
SciTegic.value.DoubleValue
-7.246

@<SCITEGIC>MOL_PROPERTY
VdW
SciTegic.value.DoubleValue
1.352

@<SCITEGIC>MOL_PROPERTY
VdW6
SciTegic.value.DoubleValue
-2.500

@<SCITEGIC>MOL_PROPERTY
VdW12
SciTegic.value.DoubleValue
3.851

@<SCITEGIC>MOL_PROPERTY
Bond
SciTegic.value.DoubleValue
0.063

@<SCITEGIC>MOL_PROPERTY
Angle
SciTegic.value.DoubleValue
0.687

@<SCITEGIC>MOL_PROPERTY
Pdih
SciTegic.value.DoubleValue
5.986

@<SCITEGIC>MOL_PROPERTY
Idih
SciTegic.value.DoubleValue
0.000

@<SCITEGIC>MOL_PROPERTY
Tether
SciTegic.value.DoubleValue
0.000

@<TRIPOS>MOLECULE
guest-s16_confgen4.mol2 : confsearch ligand conformer 244
          13          13           1
SMALL
USER_CHARGES
 
@<TRIPOS>ATOM
       1    C1      19.509963   18.007574   23.044205 C.3        1 MOL1        -0.1693
       2    H1      19.871621   17.000799   22.796664 H          1 MOL1         0.0829
       3    H2      18.995300   17.966517   24.011603 H          1 MOL1         0.0829
       4    C2      18.742746   18.729588   21.887731 C.3        1 MOL1        -0.1768
       5    H3      18.165992   18.084749   21.215548 H          1 MOL1         0.0829
       6    H4      18.104507   19.561031   22.211369 H          1 MOL1         0.0829
       7    C3      20.154746   19.148164   21.377627 C.3        1 MOL1         0.1211
       8    H5      20.655326   18.378382   20.774676 H          1 MOL1         0.0786
       9    C4      20.573024   19.143343   22.879018 C.3        1 MOL1        -0.1768
      10    H6      20.343874   20.067265   23.424222 H          1 MOL1         0.0829
      11    H7      21.612683   18.863916   23.082292 H          1 MOL1         0.0829
      12    O1      20.219211   20.399674   20.736234 O.3        1 MOL1        -0.5515
      13    H8      19.759609   21.041837   21.316846 H          1 MOL1         0.3773
@<TRIPOS>BOND
    1     1     2    1
    2     1     3    1
    3     1     4    1
    4     4     5    1
    5     4     6    1
    6     4     7    1
    7     7     8    1
    8     1     9    1
    9     7     9    1
   10     9    10    1
   11     9    11    1
   12     7    12    1
   13    12    13    1
@<TRIPOS>SUBSTRUCTURE
       1 MOL1            1 RESIDUE      1      MOL     
@<SCITEGIC>MOL_PROPERTY
VConf Rank
SciTegic.value.IntegerValue
244

@<SCITEGIC>MOL_PROPERTY
Conf_Id
SciTegic.value.IntegerValue
24

@<SCITEGIC>MOL_PROPERTY
Delta U+W
SciTegic.value.DoubleValue
0.356

@<SCITEGIC>MOL_PROPERTY
U+W
SciTegic.value.DoubleValue
-2.775

@<SCITEGIC>MOL_PROPERTY
Grad RMS
SciTegic.value.DoubleValue
0.000000

@<SCITEGIC>MOL_PROPERTY
U
SciTegic.value.DoubleValue
-0.184

@<SCITEGIC>MOL_PROPERTY
W
SciTegic.value.DoubleValue
-2.591

@<SCITEGIC>MOL_PROPERTY
W(PB)
SciTegic.value.DoubleValue
-4.184

@<SCITEGIC>MOL_PROPERTY
W(SA)
SciTegic.value.DoubleValue
1.593

@<SCITEGIC>MOL_PROPERTY
Valence
SciTegic.value.DoubleValue
6.840

@<SCITEGIC>MOL_PROPERTY
Coulomb
SciTegic.value.DoubleValue
-7.916

@<SCITEGIC>MOL_PROPERTY
VdW
SciTegic.value.DoubleValue
0.893

@<SCITEGIC>MOL_PROPERTY
VdW6
SciTegic.value.DoubleValue
-2.167

@<SCITEGIC>MOL_PROPERTY
VdW12
SciTegic.value.DoubleValue
3.060

@<SCITEGIC>MOL_PROPERTY
Bond
SciTegic.value.DoubleValue
0.059

@<SCITEGIC>MOL_PROPERTY
Angle
SciTegic.value.DoubleValue
0.918

@<SCITEGIC>MOL_PROPERTY
Pdih
SciTegic.value.DoubleValue
5.862

@<SCITEGIC>MOL_PROPERTY
Idih
SciTegic.value.DoubleValue
0.000

@<SCITEGIC>MOL_PROPERTY
Tether
SciTegic.value.DoubleValue
0.000

@<TRIPOS>MOLECULE
guest-s16_confgen4.mol2 : confsearch ligand conformer 245
          13          13           1
SMALL
USER_CHARGES
 
@<TRIPOS>ATOM
       1    C1      20.055351   19.847713   21.604605 C.3        1 MOL1        -0.1693
       2    H1      20.046044   20.938396   21.491928 H          1 MOL1         0.0829
       3    H2      20.668761   19.421487   20.800643 H          1 MOL1         0.0829
       4    C2      18.658707   19.167957   21.798145 C.3        1 MOL1        -0.1768
       5    H3      17.917023   19.793540   22.309580 H          1 MOL1         0.0829
       6    H4      18.197414   18.746681   20.897899 H          1 MOL1         0.0829
       7    C3      19.385525   18.150864   22.731553 C.3        1 MOL1         0.1211
       8    H5      18.794801   17.811801   23.592116 H          1 MOL1         0.0786
       9    C4      20.382903   19.310754   23.037965 C.3        1 MOL1        -0.1768
      10    H6      20.063966   19.971349   23.853385 H          1 MOL1         0.0829
      11    H7      21.422374   19.013773   23.216877 H          1 MOL1         0.0829
      12    O1      19.953593   17.041607   22.069304 O.3        1 MOL1        -0.5515
      13    H8      20.465396   17.402048   21.316009 H          1 MOL1         0.3773
@<TRIPOS>BOND
    1     1     2    1
    2     1     3    1
    3     1     4    1
    4     4     5    1
    5     4     6    1
    6     4     7    1
    7     7     8    1
    8     1     9    1
    9     7     9    1
   10     9    10    1
   11     9    11    1
   12     7    12    1
   13    12    13    1
@<TRIPOS>SUBSTRUCTURE
       1 MOL1            1 RESIDUE      1      MOL     
@<SCITEGIC>MOL_PROPERTY
VConf Rank
SciTegic.value.IntegerValue
245

@<SCITEGIC>MOL_PROPERTY
Conf_Id
SciTegic.value.IntegerValue
44

@<SCITEGIC>MOL_PROPERTY
Delta U+W
SciTegic.value.DoubleValue
0.823

@<SCITEGIC>MOL_PROPERTY
U+W
SciTegic.value.DoubleValue
-2.308

@<SCITEGIC>MOL_PROPERTY
Grad RMS
SciTegic.value.DoubleValue
0.000000

@<SCITEGIC>MOL_PROPERTY
U
SciTegic.value.DoubleValue
0.039

@<SCITEGIC>MOL_PROPERTY
W
SciTegic.value.DoubleValue
-2.348

@<SCITEGIC>MOL_PROPERTY
W(PB)
SciTegic.value.DoubleValue
-3.918

@<SCITEGIC>MOL_PROPERTY
W(SA)
SciTegic.value.DoubleValue
1.571

@<SCITEGIC>MOL_PROPERTY
Valence
SciTegic.value.DoubleValue
7.320

@<SCITEGIC>MOL_PROPERTY
Coulomb
SciTegic.value.DoubleValue
-8.530

@<SCITEGIC>MOL_PROPERTY
VdW
SciTegic.value.DoubleValue
1.249

@<SCITEGIC>MOL_PROPERTY
VdW6
SciTegic.value.DoubleValue
-2.615

@<SCITEGIC>MOL_PROPERTY
VdW12
SciTegic.value.DoubleValue
3.864

@<SCITEGIC>MOL_PROPERTY
Bond
SciTegic.value.DoubleValue
0.056

@<SCITEGIC>MOL_PROPERTY
Angle
SciTegic.value.DoubleValue
0.694

@<SCITEGIC>MOL_PROPERTY
Pdih
SciTegic.value.DoubleValue
6.570

@<SCITEGIC>MOL_PROPERTY
Idih
SciTegic.value.DoubleValue
0.000

@<SCITEGIC>MOL_PROPERTY
Tether
SciTegic.value.DoubleValue
0.000

@<TRIPOS>MOLECULE
guest-s16_confgen4.mol2 : confsearch ligand conformer 246
          13          13           1
SMALL
USER_CHARGES
 
@<TRIPOS>ATOM
       1    C1      18.380805   19.313056   22.365354 C.3        1 MOL1        -0.1693
       2    H1      18.088044   19.612880   23.380234 H          1 MOL1         0.0829
       3    H2      17.501150   19.376386   21.713791 H          1 MOL1         0.0829
       4    C2      19.199612   17.982391   22.286670 C.3        1 MOL1        -0.1768
       5    H3      18.959498   17.221626   23.037365 H          1 MOL1         0.0829
       6    H4      19.214176   17.509328   21.296930 H          1 MOL1         0.0829
       7    C3      20.442080   18.870964   22.595796 C.3        1 MOL1         0.1211
       8    H5      20.584237   19.076683   23.665624 H          1 MOL1         0.0786
       9    C4      19.682486   19.996509   21.830707 C.3        1 MOL1        -0.1768
      10    H6      19.867635   21.019040   22.177581 H          1 MOL1         0.0829
      11    H7      19.800965   19.966489   20.740361 H          1 MOL1         0.0829
      12    O1      21.647908   18.447327   22.003296 O.3        1 MOL1        -0.5515
      13    H8      22.304129   19.165227   22.134433 H          1 MOL1         0.3773
@<TRIPOS>BOND
    1     1     2    1
    2     1     3    1
    3     1     4    1
    4     4     5    1
    5     4     6    1
    6     4     7    1
    7     7     8    1
    8     1     9    1
    9     7     9    1
   10     9    10    1
   11     9    11    1
   12     7    12    1
   13    12    13    1
@<TRIPOS>SUBSTRUCTURE
       1 MOL1            1 RESIDUE      1      MOL     
@<SCITEGIC>MOL_PROPERTY
VConf Rank
SciTegic.value.IntegerValue
246

@<SCITEGIC>MOL_PROPERTY
Conf_Id
SciTegic.value.IntegerValue
22

@<SCITEGIC>MOL_PROPERTY
Delta U+W
SciTegic.value.DoubleValue
0.000

@<SCITEGIC>MOL_PROPERTY
U+W
SciTegic.value.DoubleValue
-3.131

@<SCITEGIC>MOL_PROPERTY
Grad RMS
SciTegic.value.DoubleValue
0.000000

@<SCITEGIC>MOL_PROPERTY
U
SciTegic.value.DoubleValue
-0.154

@<SCITEGIC>MOL_PROPERTY
W
SciTegic.value.DoubleValue
-2.978

@<SCITEGIC>MOL_PROPERTY
W(PB)
SciTegic.value.DoubleValue
-4.579

@<SCITEGIC>MOL_PROPERTY
W(SA)
SciTegic.value.DoubleValue
1.601

@<SCITEGIC>MOL_PROPERTY
Valence
SciTegic.value.DoubleValue
6.333

@<SCITEGIC>MOL_PROPERTY
Coulomb
SciTegic.value.DoubleValue
-7.439

@<SCITEGIC>MOL_PROPERTY
VdW
SciTegic.value.DoubleValue
0.952

@<SCITEGIC>MOL_PROPERTY
VdW6
SciTegic.value.DoubleValue
-2.120

@<SCITEGIC>MOL_PROPERTY
VdW12
SciTegic.value.DoubleValue
3.072

@<SCITEGIC>MOL_PROPERTY
Bond
SciTegic.value.DoubleValue
0.065

@<SCITEGIC>MOL_PROPERTY
Angle
SciTegic.value.DoubleValue
0.931

@<SCITEGIC>MOL_PROPERTY
Pdih
SciTegic.value.DoubleValue
5.338

@<SCITEGIC>MOL_PROPERTY
Idih
SciTegic.value.DoubleValue
0.000

@<SCITEGIC>MOL_PROPERTY
Tether
SciTegic.value.DoubleValue
0.000

@<TRIPOS>MOLECULE
guest-s16_confgen4.mol2 : confsearch ligand conformer 247
          13          13           1
SMALL
USER_CHARGES
 
@<TRIPOS>ATOM
       1    C1      18.320774   19.082898   22.310188 C.3        1 MOL1        -0.1693
       2    H1      17.761235   18.318236   21.755395 H          1 MOL1         0.0829
       3    H2      17.608509   19.805150   22.726564 H          1 MOL1         0.0829
       4    C2      19.541841   19.687209   21.541336 C.3        1 MOL1        -0.1768
       5    H3      19.896729   20.650054   21.929635 H          1 MOL1         0.0829
       6    H4      19.437348   19.762557   20.453413 H          1 MOL1         0.0829
       7    C3      20.329294   18.448117   22.064561 C.3        1 MOL1         0.1211
       8    H5      20.192377   17.543441   21.456387 H          1 MOL1         0.0786
       9    C4      19.388543   18.519445   23.305022 C.3        1 MOL1        -0.1768
      10    H6      19.711843   19.224846   24.080568 H          1 MOL1         0.0829
      11    H7      19.150475   17.560496   23.777992 H          1 MOL1         0.0829
      12    O1      21.694744   18.670076   22.330696 O.3        1 MOL1        -0.5515
      13    H8      22.148387   18.761856   21.465255 H          1 MOL1         0.3773
@<TRIPOS>BOND
    1     1     2    1
    2     1     3    1
    3     1     4    1
    4     4     5    1
    5     4     6    1
    6     4     7    1
    7     7     8    1
    8     1     9    1
    9     7     9    1
   10     9    10    1
   11     9    11    1
   12     7    12    1
   13    12    13    1
@<TRIPOS>SUBSTRUCTURE
       1 MOL1            1 RESIDUE      1      MOL     
@<SCITEGIC>MOL_PROPERTY
VConf Rank
SciTegic.value.IntegerValue
247

@<SCITEGIC>MOL_PROPERTY
Conf_Id
SciTegic.value.IntegerValue
19

@<SCITEGIC>MOL_PROPERTY
Delta U+W
SciTegic.value.DoubleValue
-0.011

@<SCITEGIC>MOL_PROPERTY
U+W
SciTegic.value.DoubleValue
-3.142

@<SCITEGIC>MOL_PROPERTY
Grad RMS
SciTegic.value.DoubleValue
0.000000

@<SCITEGIC>MOL_PROPERTY
U
SciTegic.value.DoubleValue
-0.154

@<SCITEGIC>MOL_PROPERTY
W
SciTegic.value.DoubleValue
-2.989

@<SCITEGIC>MOL_PROPERTY
W(PB)
SciTegic.value.DoubleValue
-4.588

@<SCITEGIC>MOL_PROPERTY
W(SA)
SciTegic.value.DoubleValue
1.599

@<SCITEGIC>MOL_PROPERTY
Valence
SciTegic.value.DoubleValue
6.334

@<SCITEGIC>MOL_PROPERTY
Coulomb
SciTegic.value.DoubleValue
-7.439

@<SCITEGIC>MOL_PROPERTY
VdW
SciTegic.value.DoubleValue
0.951

@<SCITEGIC>MOL_PROPERTY
VdW6
SciTegic.value.DoubleValue
-2.120

@<SCITEGIC>MOL_PROPERTY
VdW12
SciTegic.value.DoubleValue
3.072

@<SCITEGIC>MOL_PROPERTY
Bond
SciTegic.value.DoubleValue
0.065

@<SCITEGIC>MOL_PROPERTY
Angle
SciTegic.value.DoubleValue
0.930

@<SCITEGIC>MOL_PROPERTY
Pdih
SciTegic.value.DoubleValue
5.339

@<SCITEGIC>MOL_PROPERTY
Idih
SciTegic.value.DoubleValue
0.000

@<SCITEGIC>MOL_PROPERTY
Tether
SciTegic.value.DoubleValue
0.000

@<TRIPOS>MOLECULE
guest-s16_confgen4.mol2 : confsearch ligand conformer 248
          13          13           1
SMALL
USER_CHARGES
 
@<TRIPOS>ATOM
       1    C1      20.847553   19.066475   22.482580 C.3        1 MOL1        -0.1693
       2    H1      21.670283   19.587185   22.986517 H          1 MOL1         0.0829
       3    H2      21.244407   18.159600   22.007930 H          1 MOL1         0.0829
       4    C2      19.944009   19.943614   21.553491 C.3        1 MOL1        -0.1768
       5    H3      19.845795   20.989148   21.869685 H          1 MOL1         0.0829
       6    H4      20.187659   19.921859   20.485523 H          1 MOL1         0.0829
       7    C3      18.761394   19.027442   21.997877 C.3        1 MOL1         0.1211
       8    H5      17.797973   19.542969   22.102105 H          1 MOL1         0.0786
       9    C4      19.551842   18.842795   23.330991 C.3        1 MOL1        -0.1768
      10    H6      19.456767   17.863844   23.813659 H          1 MOL1         0.0829
      11    H7      19.358886   19.621628   24.078761 H          1 MOL1         0.0829
      12    O1      18.600018   17.850795   21.231323 O.3        1 MOL1        -0.5515
      13    H8      17.955101   17.282343   21.703658 H          1 MOL1         0.3773
@<TRIPOS>BOND
    1     1     2    1
    2     1     3    1
    3     1     4    1
    4     4     5    1
    5     4     6    1
    6     4     7    1
    7     7     8    1
    8     1     9    1
    9     7     9    1
   10     9    10    1
   11     9    11    1
   12     7    12    1
   13    12    13    1
@<TRIPOS>SUBSTRUCTURE
       1 MOL1            1 RESIDUE      1      MOL     
@<SCITEGIC>MOL_PROPERTY
VConf Rank
SciTegic.value.IntegerValue
248

@<SCITEGIC>MOL_PROPERTY
Conf_Id
SciTegic.value.IntegerValue
20

@<SCITEGIC>MOL_PROPERTY
Delta U+W
SciTegic.value.DoubleValue
1.030

@<SCITEGIC>MOL_PROPERTY
U+W
SciTegic.value.DoubleValue
-2.101

@<SCITEGIC>MOL_PROPERTY
Grad RMS
SciTegic.value.DoubleValue
0.000000

@<SCITEGIC>MOL_PROPERTY
U
SciTegic.value.DoubleValue
0.841

@<SCITEGIC>MOL_PROPERTY
W
SciTegic.value.DoubleValue
-2.942

@<SCITEGIC>MOL_PROPERTY
W(PB)
SciTegic.value.DoubleValue
-4.530

@<SCITEGIC>MOL_PROPERTY
W(SA)
SciTegic.value.DoubleValue
1.587

@<SCITEGIC>MOL_PROPERTY
Valence
SciTegic.value.DoubleValue
6.736

@<SCITEGIC>MOL_PROPERTY
Coulomb
SciTegic.value.DoubleValue
-7.246

@<SCITEGIC>MOL_PROPERTY
VdW
SciTegic.value.DoubleValue
1.352

@<SCITEGIC>MOL_PROPERTY
VdW6
SciTegic.value.DoubleValue
-2.500

@<SCITEGIC>MOL_PROPERTY
VdW12
SciTegic.value.DoubleValue
3.851

@<SCITEGIC>MOL_PROPERTY
Bond
SciTegic.value.DoubleValue
0.063

@<SCITEGIC>MOL_PROPERTY
Angle
SciTegic.value.DoubleValue
0.687

@<SCITEGIC>MOL_PROPERTY
Pdih
SciTegic.value.DoubleValue
5.986

@<SCITEGIC>MOL_PROPERTY
Idih
SciTegic.value.DoubleValue
0.000

@<SCITEGIC>MOL_PROPERTY
Tether
SciTegic.value.DoubleValue
0.000

@<TRIPOS>MOLECULE
guest-s16_confgen4.mol2 : confsearch ligand conformer 249
          13          13           1
SMALL
USER_CHARGES
 
@<TRIPOS>ATOM
       1    C1      20.116585   20.040227   22.781931 C.3        1 MOL1        -0.1693
       2    H1      20.701925   19.963451   23.707756 H          1 MOL1         0.0829
       3    H2      19.975114   21.101333   22.544313 H          1 MOL1         0.0829
       4    C2      18.830359   19.150470   22.745712 C.3        1 MOL1        -0.1768
       5    H3      18.327670   18.990337   23.705896 H          1 MOL1         0.0829
       6    H4      18.082694   19.457108   22.003851 H          1 MOL1         0.0829
       7    C3      19.782783   18.007403   22.281553 C.3        1 MOL1         0.1211
       8    H5      20.300313   17.498308   23.105979 H          1 MOL1         0.0786
       9    C4      20.623514   19.135391   21.610755 C.3        1 MOL1        -0.1768
      10    H6      20.276642   19.438660   20.615217 H          1 MOL1         0.0829
      11    H7      21.704453   18.961940   21.568598 H          1 MOL1         0.0829
      12    O1      19.215694   17.069508   21.398048 O.3        1 MOL1        -0.5515
      13    H8      18.770858   17.578702   20.688427 H          1 MOL1         0.3773
@<TRIPOS>BOND
    1     1     2    1
    2     1     3    1
    3     1     4    1
    4     4     5    1
    5     4     6    1
    6     4     7    1
    7     7     8    1
    8     1     9    1
    9     7     9    1
   10     9    10    1
   11     9    11    1
   12     7    12    1
   13    12    13    1
@<TRIPOS>SUBSTRUCTURE
       1 MOL1            1 RESIDUE      1      MOL     
@<SCITEGIC>MOL_PROPERTY
VConf Rank
SciTegic.value.IntegerValue
249

@<SCITEGIC>MOL_PROPERTY
Conf_Id
SciTegic.value.IntegerValue
24

@<SCITEGIC>MOL_PROPERTY
Delta U+W
SciTegic.value.DoubleValue
0.356

@<SCITEGIC>MOL_PROPERTY
U+W
SciTegic.value.DoubleValue
-2.775

@<SCITEGIC>MOL_PROPERTY
Grad RMS
SciTegic.value.DoubleValue
0.000000

@<SCITEGIC>MOL_PROPERTY
U
SciTegic.value.DoubleValue
-0.184

@<SCITEGIC>MOL_PROPERTY
W
SciTegic.value.DoubleValue
-2.591

@<SCITEGIC>MOL_PROPERTY
W(PB)
SciTegic.value.DoubleValue
-4.184

@<SCITEGIC>MOL_PROPERTY
W(SA)
SciTegic.value.DoubleValue
1.593

@<SCITEGIC>MOL_PROPERTY
Valence
SciTegic.value.DoubleValue
6.840

@<SCITEGIC>MOL_PROPERTY
Coulomb
SciTegic.value.DoubleValue
-7.916

@<SCITEGIC>MOL_PROPERTY
VdW
SciTegic.value.DoubleValue
0.893

@<SCITEGIC>MOL_PROPERTY
VdW6
SciTegic.value.DoubleValue
-2.167

@<SCITEGIC>MOL_PROPERTY
VdW12
SciTegic.value.DoubleValue
3.060

@<SCITEGIC>MOL_PROPERTY
Bond
SciTegic.value.DoubleValue
0.059

@<SCITEGIC>MOL_PROPERTY
Angle
SciTegic.value.DoubleValue
0.918

@<SCITEGIC>MOL_PROPERTY
Pdih
SciTegic.value.DoubleValue
5.862

@<SCITEGIC>MOL_PROPERTY
Idih
SciTegic.value.DoubleValue
0.000

@<SCITEGIC>MOL_PROPERTY
Tether
SciTegic.value.DoubleValue
0.000

@<TRIPOS>MOLECULE
guest-s16_confgen4.mol2 : confsearch ligand conformer 250
          13          13           1
SMALL
USER_CHARGES
 
@<TRIPOS>ATOM
       1    C1      18.796629   18.474418   21.744549 C.3        1 MOL1        -0.1693
       2    H1      17.834132   17.982492   21.928895 H          1 MOL1         0.0829
       3    H2      18.970540   18.500688   20.661332 H          1 MOL1         0.0829
       4    C2      20.004648   17.953790   22.592944 C.3        1 MOL1        -0.1768
       5    H3      19.731862   17.575647   23.585723 H          1 MOL1         0.0829
       6    H4      20.655106   17.218054   22.106831 H          1 MOL1         0.0829
       7    C3      20.520985   19.425995   22.592527 C.3        1 MOL1         0.1211
       8    H5      21.017061   19.740496   23.519611 H          1 MOL1         0.0786
       9    C4      19.020311   19.837630   22.480589 C.3        1 MOL1        -0.1768
      10    H6      18.506179   19.921375   23.445820 H          1 MOL1         0.0829
      11    H7      18.813986   20.741615   21.896681 H          1 MOL1         0.0829
      12    O1      21.314623   19.774250   21.478712 O.3        1 MOL1        -0.5515
      13    H8      20.825796   19.471522   20.685795 H          1 MOL1         0.3773
@<TRIPOS>BOND
    1     1     2    1
    2     1     3    1
    3     1     4    1
    4     4     5    1
    5     4     6    1
    6     4     7    1
    7     7     8    1
    8     1     9    1
    9     7     9    1
   10     9    10    1
   11     9    11    1
   12     7    12    1
   13    12    13    1
@<TRIPOS>SUBSTRUCTURE
       1 MOL1            1 RESIDUE      1      MOL     
@<SCITEGIC>MOL_PROPERTY
VConf Rank
SciTegic.value.IntegerValue
250

@<SCITEGIC>MOL_PROPERTY
Conf_Id
SciTegic.value.IntegerValue
44

@<SCITEGIC>MOL_PROPERTY
Delta U+W
SciTegic.value.DoubleValue
0.823

@<SCITEGIC>MOL_PROPERTY
U+W
SciTegic.value.DoubleValue
-2.308

@<SCITEGIC>MOL_PROPERTY
Grad RMS
SciTegic.value.DoubleValue
0.000000

@<SCITEGIC>MOL_PROPERTY
U
SciTegic.value.DoubleValue
0.039

@<SCITEGIC>MOL_PROPERTY
W
SciTegic.value.DoubleValue
-2.348

@<SCITEGIC>MOL_PROPERTY
W(PB)
SciTegic.value.DoubleValue
-3.918

@<SCITEGIC>MOL_PROPERTY
W(SA)
SciTegic.value.DoubleValue
1.571

@<SCITEGIC>MOL_PROPERTY
Valence
SciTegic.value.DoubleValue
7.320

@<SCITEGIC>MOL_PROPERTY
Coulomb
SciTegic.value.DoubleValue
-8.530

@<SCITEGIC>MOL_PROPERTY
VdW
SciTegic.value.DoubleValue
1.249

@<SCITEGIC>MOL_PROPERTY
VdW6
SciTegic.value.DoubleValue
-2.615

@<SCITEGIC>MOL_PROPERTY
VdW12
SciTegic.value.DoubleValue
3.864

@<SCITEGIC>MOL_PROPERTY
Bond
SciTegic.value.DoubleValue
0.056

@<SCITEGIC>MOL_PROPERTY
Angle
SciTegic.value.DoubleValue
0.694

@<SCITEGIC>MOL_PROPERTY
Pdih
SciTegic.value.DoubleValue
6.570

@<SCITEGIC>MOL_PROPERTY
Idih
SciTegic.value.DoubleValue
0.000

@<SCITEGIC>MOL_PROPERTY
Tether
SciTegic.value.DoubleValue
0.000

@<TRIPOS>MOLECULE
guest-s16_confgen4.mol2 : confsearch ligand conformer 251
          13          13           1
SMALL
USER_CHARGES
 
@<TRIPOS>ATOM
       1    C1      20.859549   18.777875   21.749111 C.3        1 MOL1        -0.1693
       2    H1      21.164847   17.731269   21.879476 H          1 MOL1         0.0829
       3    H2      21.636986   19.301378   21.180012 H          1 MOL1         0.0829
       4    C2      20.371570   19.484915   23.056505 C.3        1 MOL1        -0.1768
       5    H3      20.850364   19.163417   23.987825 H          1 MOL1         0.0829
       6    H4      20.378410   20.581239   23.016335 H          1 MOL1         0.0829
       7    C3      18.988877   18.836193   22.746399 C.3        1 MOL1         0.1211
       8    H5      18.900240   17.796664   23.090760 H          1 MOL1         0.0786
       9    C4      19.390968   18.973687   21.246862 C.3        1 MOL1        -0.1768
      10    H6      19.003728   18.199583   20.575310 H          1 MOL1         0.0829
      11    H7      19.184307   19.957764   20.807914 H          1 MOL1         0.0829
      12    O1      17.867157   19.591378   23.141352 O.3        1 MOL1        -0.5515
      13    H8      17.075723   19.162544   22.750281 H          1 MOL1         0.3773
@<TRIPOS>BOND
    1     1     2    1
    2     1     3    1
    3     1     4    1
    4     4     5    1
    5     4     6    1
    6     4     7    1
    7     7     8    1
    8     1     9    1
    9     7     9    1
   10     9    10    1
   11     9    11    1
   12     7    12    1
   13    12    13    1
@<TRIPOS>SUBSTRUCTURE
       1 MOL1            1 RESIDUE      1      MOL     
@<SCITEGIC>MOL_PROPERTY
VConf Rank
SciTegic.value.IntegerValue
251

@<SCITEGIC>MOL_PROPERTY
Conf_Id
SciTegic.value.IntegerValue
22

@<SCITEGIC>MOL_PROPERTY
Delta U+W
SciTegic.value.DoubleValue
0.000

@<SCITEGIC>MOL_PROPERTY
U+W
SciTegic.value.DoubleValue
-3.131

@<SCITEGIC>MOL_PROPERTY
Grad RMS
SciTegic.value.DoubleValue
0.000000

@<SCITEGIC>MOL_PROPERTY
U
SciTegic.value.DoubleValue
-0.154

@<SCITEGIC>MOL_PROPERTY
W
SciTegic.value.DoubleValue
-2.978

@<SCITEGIC>MOL_PROPERTY
W(PB)
SciTegic.value.DoubleValue
-4.579

@<SCITEGIC>MOL_PROPERTY
W(SA)
SciTegic.value.DoubleValue
1.601

@<SCITEGIC>MOL_PROPERTY
Valence
SciTegic.value.DoubleValue
6.333

@<SCITEGIC>MOL_PROPERTY
Coulomb
SciTegic.value.DoubleValue
-7.439

@<SCITEGIC>MOL_PROPERTY
VdW
SciTegic.value.DoubleValue
0.952

@<SCITEGIC>MOL_PROPERTY
VdW6
SciTegic.value.DoubleValue
-2.120

@<SCITEGIC>MOL_PROPERTY
VdW12
SciTegic.value.DoubleValue
3.072

@<SCITEGIC>MOL_PROPERTY
Bond
SciTegic.value.DoubleValue
0.065

@<SCITEGIC>MOL_PROPERTY
Angle
SciTegic.value.DoubleValue
0.931

@<SCITEGIC>MOL_PROPERTY
Pdih
SciTegic.value.DoubleValue
5.338

@<SCITEGIC>MOL_PROPERTY
Idih
SciTegic.value.DoubleValue
0.000

@<SCITEGIC>MOL_PROPERTY
Tether
SciTegic.value.DoubleValue
0.000

@<TRIPOS>MOLECULE
guest-s16_confgen4.mol2 : confsearch ligand conformer 252
          13          13           1
SMALL
USER_CHARGES
 
@<TRIPOS>ATOM
       1    C1      19.655847   18.580560   23.519297 C.3        1 MOL1        -0.1693
       2    H1      20.148048   17.615890   23.700229 H          1 MOL1         0.0829
       3    H2      19.273592   18.963252   24.473114 H          1 MOL1         0.0829
       4    C2      18.647911   18.586988   22.322906 C.3        1 MOL1        -0.1768
       5    H3      17.926912   19.413903   22.335761 H          1 MOL1         0.0829
       6    H4      18.107974   17.651045   22.142206 H          1 MOL1         0.0829
       7    C3      19.899886   18.833386   21.427897 C.3        1 MOL1         0.1211
       8    H5      20.448416   17.917984   21.166718 H          1 MOL1         0.0786
       9    C4      20.487175   19.588120   22.658471 C.3        1 MOL1        -0.1768
      10    H6      20.170726   20.635178   22.742823 H          1 MOL1         0.0829
      11    H7      21.575515   19.538625   22.772605 H          1 MOL1         0.0829
      12    O1      19.677202   19.626420   20.285068 O.3        1 MOL1        -0.5515
      13    H8      19.162896   19.083030   19.649915 H          1 MOL1         0.3773
@<TRIPOS>BOND
    1     1     2    1
    2     1     3    1
    3     1     4    1
    4     4     5    1
    5     4     6    1
    6     4     7    1
    7     7     8    1
    8     1     9    1
    9     7     9    1
   10     9    10    1
   11     9    11    1
   12     7    12    1
   13    12    13    1
@<TRIPOS>SUBSTRUCTURE
       1 MOL1            1 RESIDUE      1      MOL     
@<SCITEGIC>MOL_PROPERTY
VConf Rank
SciTegic.value.IntegerValue
252

@<SCITEGIC>MOL_PROPERTY
Conf_Id
SciTegic.value.IntegerValue
19

@<SCITEGIC>MOL_PROPERTY
Delta U+W
SciTegic.value.DoubleValue
-0.011

@<SCITEGIC>MOL_PROPERTY
U+W
SciTegic.value.DoubleValue
-3.142

@<SCITEGIC>MOL_PROPERTY
Grad RMS
SciTegic.value.DoubleValue
0.000000

@<SCITEGIC>MOL_PROPERTY
U
SciTegic.value.DoubleValue
-0.154

@<SCITEGIC>MOL_PROPERTY
W
SciTegic.value.DoubleValue
-2.989

@<SCITEGIC>MOL_PROPERTY
W(PB)
SciTegic.value.DoubleValue
-4.588

@<SCITEGIC>MOL_PROPERTY
W(SA)
SciTegic.value.DoubleValue
1.599

@<SCITEGIC>MOL_PROPERTY
Valence
SciTegic.value.DoubleValue
6.334

@<SCITEGIC>MOL_PROPERTY
Coulomb
SciTegic.value.DoubleValue
-7.439

@<SCITEGIC>MOL_PROPERTY
VdW
SciTegic.value.DoubleValue
0.951

@<SCITEGIC>MOL_PROPERTY
VdW6
SciTegic.value.DoubleValue
-2.120

@<SCITEGIC>MOL_PROPERTY
VdW12
SciTegic.value.DoubleValue
3.072

@<SCITEGIC>MOL_PROPERTY
Bond
SciTegic.value.DoubleValue
0.065

@<SCITEGIC>MOL_PROPERTY
Angle
SciTegic.value.DoubleValue
0.930

@<SCITEGIC>MOL_PROPERTY
Pdih
SciTegic.value.DoubleValue
5.339

@<SCITEGIC>MOL_PROPERTY
Idih
SciTegic.value.DoubleValue
0.000

@<SCITEGIC>MOL_PROPERTY
Tether
SciTegic.value.DoubleValue
0.000

@<TRIPOS>MOLECULE
guest-s16_confgen4.mol2 : confsearch ligand conformer 253
          13          13           1
SMALL
USER_CHARGES
 
@<TRIPOS>ATOM
       1    C1      19.588823   19.747259   23.297577 C.3        1 MOL1        -0.1693
       2    H1      19.660337   20.766395   23.695352 H          1 MOL1         0.0829
       3    H2      19.315632   19.069105   24.116527 H          1 MOL1         0.0829
       4    C2      20.795326   19.261630   22.427240 C.3        1 MOL1        -0.1768
       5    H3      21.300277   20.056729   21.865450 H          1 MOL1         0.0829
       6    H4      21.552813   18.663565   22.945820 H          1 MOL1         0.0829
       7    C3      19.748646   18.456676   21.595410 C.3        1 MOL1         0.1211
       8    H5      19.966063   18.397907   20.521125 H          1 MOL1         0.0786
       9    C4      18.735504   19.573836   21.997395 C.3        1 MOL1        -0.1768
      10    H6      17.698517   19.251570   22.142842 H          1 MOL1         0.0829
      11    H7      18.740773   20.445306   21.331448 H          1 MOL1         0.0829
      12    O1      19.450363   17.170267   22.099714 O.3        1 MOL1        -0.5515
      13    H8      18.668615   16.839452   21.608198 H          1 MOL1         0.3773
@<TRIPOS>BOND
    1     1     2    1
    2     1     3    1
    3     1     4    1
    4     4     5    1
    5     4     6    1
    6     4     7    1
    7     7     8    1
    8     1     9    1
    9     7     9    1
   10     9    10    1
   11     9    11    1
   12     7    12    1
   13    12    13    1
@<TRIPOS>SUBSTRUCTURE
       1 MOL1            1 RESIDUE      1      MOL     
@<SCITEGIC>MOL_PROPERTY
VConf Rank
SciTegic.value.IntegerValue
253

@<SCITEGIC>MOL_PROPERTY
Conf_Id
SciTegic.value.IntegerValue
20

@<SCITEGIC>MOL_PROPERTY
Delta U+W
SciTegic.value.DoubleValue
1.030

@<SCITEGIC>MOL_PROPERTY
U+W
SciTegic.value.DoubleValue
-2.101

@<SCITEGIC>MOL_PROPERTY
Grad RMS
SciTegic.value.DoubleValue
0.000000

@<SCITEGIC>MOL_PROPERTY
U
SciTegic.value.DoubleValue
0.841

@<SCITEGIC>MOL_PROPERTY
W
SciTegic.value.DoubleValue
-2.942

@<SCITEGIC>MOL_PROPERTY
W(PB)
SciTegic.value.DoubleValue
-4.530

@<SCITEGIC>MOL_PROPERTY
W(SA)
SciTegic.value.DoubleValue
1.587

@<SCITEGIC>MOL_PROPERTY
Valence
SciTegic.value.DoubleValue
6.736

@<SCITEGIC>MOL_PROPERTY
Coulomb
SciTegic.value.DoubleValue
-7.246

@<SCITEGIC>MOL_PROPERTY
VdW
SciTegic.value.DoubleValue
1.352

@<SCITEGIC>MOL_PROPERTY
VdW6
SciTegic.value.DoubleValue
-2.500

@<SCITEGIC>MOL_PROPERTY
VdW12
SciTegic.value.DoubleValue
3.851

@<SCITEGIC>MOL_PROPERTY
Bond
SciTegic.value.DoubleValue
0.063

@<SCITEGIC>MOL_PROPERTY
Angle
SciTegic.value.DoubleValue
0.687

@<SCITEGIC>MOL_PROPERTY
Pdih
SciTegic.value.DoubleValue
5.986

@<SCITEGIC>MOL_PROPERTY
Idih
SciTegic.value.DoubleValue
0.000

@<SCITEGIC>MOL_PROPERTY
Tether
SciTegic.value.DoubleValue
0.000

@<TRIPOS>MOLECULE
guest-s16_confgen4.mol2 : confsearch ligand conformer 254
          13          13           1
SMALL
USER_CHARGES
 
@<TRIPOS>ATOM
       1    C1      20.110034   19.847300   21.368580 C.3        1 MOL1        -0.1693
       2    H1      19.929323   19.653979   20.302916 H          1 MOL1         0.0829
       3    H2      20.592033   20.827030   21.469703 H          1 MOL1         0.0829
       4    C2      20.784295   18.666578   22.142288 C.3        1 MOL1        -0.1768
       5    H3      21.482238   18.048930   21.566371 H          1 MOL1         0.0829
       6    H4      21.264229   18.953031   23.086213 H          1 MOL1         0.0829
       7    C3      19.340010   18.099133   22.287901 C.3        1 MOL1         0.1211
       8    H5      18.994730   17.533356   21.411904 H          1 MOL1         0.0786
       9    C4      18.878880   19.587893   22.298272 C.3        1 MOL1        -0.1768
      10    H6      18.932930   20.080273   23.277061 H          1 MOL1         0.0829
      11    H7      17.894051   19.783906   21.860115 H          1 MOL1         0.0829
      12    O1      19.089490   17.380511   23.472232 O.3        1 MOL1        -0.5515
      13    H8      19.416360   17.930917   24.214478 H          1 MOL1         0.3773
@<TRIPOS>BOND
    1     1     2    1
    2     1     3    1
    3     1     4    1
    4     4     5    1
    5     4     6    1
    6     4     7    1
    7     7     8    1
    8     1     9    1
    9     7     9    1
   10     9    10    1
   11     9    11    1
   12     7    12    1
   13    12    13    1
@<TRIPOS>SUBSTRUCTURE
       1 MOL1            1 RESIDUE      1      MOL     
@<SCITEGIC>MOL_PROPERTY
VConf Rank
SciTegic.value.IntegerValue
254

@<SCITEGIC>MOL_PROPERTY
Conf_Id
SciTegic.value.IntegerValue
24

@<SCITEGIC>MOL_PROPERTY
Delta U+W
SciTegic.value.DoubleValue
0.356

@<SCITEGIC>MOL_PROPERTY
U+W
SciTegic.value.DoubleValue
-2.775

@<SCITEGIC>MOL_PROPERTY
Grad RMS
SciTegic.value.DoubleValue
0.000000

@<SCITEGIC>MOL_PROPERTY
U
SciTegic.value.DoubleValue
-0.184

@<SCITEGIC>MOL_PROPERTY
W
SciTegic.value.DoubleValue
-2.591

@<SCITEGIC>MOL_PROPERTY
W(PB)
SciTegic.value.DoubleValue
-4.184

@<SCITEGIC>MOL_PROPERTY
W(SA)
SciTegic.value.DoubleValue
1.593

@<SCITEGIC>MOL_PROPERTY
Valence
SciTegic.value.DoubleValue
6.840

@<SCITEGIC>MOL_PROPERTY
Coulomb
SciTegic.value.DoubleValue
-7.916

@<SCITEGIC>MOL_PROPERTY
VdW
SciTegic.value.DoubleValue
0.893

@<SCITEGIC>MOL_PROPERTY
VdW6
SciTegic.value.DoubleValue
-2.167

@<SCITEGIC>MOL_PROPERTY
VdW12
SciTegic.value.DoubleValue
3.060

@<SCITEGIC>MOL_PROPERTY
Bond
SciTegic.value.DoubleValue
0.059

@<SCITEGIC>MOL_PROPERTY
Angle
SciTegic.value.DoubleValue
0.918

@<SCITEGIC>MOL_PROPERTY
Pdih
SciTegic.value.DoubleValue
5.862

@<SCITEGIC>MOL_PROPERTY
Idih
SciTegic.value.DoubleValue
0.000

@<SCITEGIC>MOL_PROPERTY
Tether
SciTegic.value.DoubleValue
0.000

@<TRIPOS>MOLECULE
guest-s16_confgen4.mol2 : confsearch ligand conformer 255
          13          13           1
SMALL
USER_CHARGES
 
@<TRIPOS>ATOM
       1    C1      18.789068   18.426617   21.818601 C.3        1 MOL1        -0.1693
       2    H1      17.854194   17.916031   22.078770 H          1 MOL1         0.0829
       3    H2      18.903063   18.406075   20.727327 H          1 MOL1         0.0829
       4    C2      20.057329   17.982918   22.621585 C.3        1 MOL1        -0.1768
       5    H3      19.850995   17.644907   23.644420 H          1 MOL1         0.0829
       6    H4      20.703651   17.244165   22.134533 H          1 MOL1         0.0829
       7    C3      20.525574   19.467942   22.524405 C.3        1 MOL1         0.1211
       8    H5      21.060882   19.840914   23.406915 H          1 MOL1         0.0786
       9    C4      19.008652   19.829495   22.477275 C.3        1 MOL1        -0.1768
      10    H6      18.545197   19.944237   23.464726 H          1 MOL1         0.0829
      11    H7      18.742189   20.698029   21.864614 H          1 MOL1         0.0829
      12    O1      21.246120   19.785611   21.353240 O.3        1 MOL1        -0.5515
      13    H8      20.724944   19.431031   20.603598 H          1 MOL1         0.3773
@<TRIPOS>BOND
    1     1     2    1
    2     1     3    1
    3     1     4    1
    4     4     5    1
    5     4     6    1
    6     4     7    1
    7     7     8    1
    8     1     9    1
    9     7     9    1
   10     9    10    1
   11     9    11    1
   12     7    12    1
   13    12    13    1
@<TRIPOS>SUBSTRUCTURE
       1 MOL1            1 RESIDUE      1      MOL     
@<SCITEGIC>MOL_PROPERTY
VConf Rank
SciTegic.value.IntegerValue
255

@<SCITEGIC>MOL_PROPERTY
Conf_Id
SciTegic.value.IntegerValue
44

@<SCITEGIC>MOL_PROPERTY
Delta U+W
SciTegic.value.DoubleValue
0.823

@<SCITEGIC>MOL_PROPERTY
U+W
SciTegic.value.DoubleValue
-2.308

@<SCITEGIC>MOL_PROPERTY
Grad RMS
SciTegic.value.DoubleValue
0.000000

@<SCITEGIC>MOL_PROPERTY
U
SciTegic.value.DoubleValue
0.039

@<SCITEGIC>MOL_PROPERTY
W
SciTegic.value.DoubleValue
-2.348

@<SCITEGIC>MOL_PROPERTY
W(PB)
SciTegic.value.DoubleValue
-3.918

@<SCITEGIC>MOL_PROPERTY
W(SA)
SciTegic.value.DoubleValue
1.571

@<SCITEGIC>MOL_PROPERTY
Valence
SciTegic.value.DoubleValue
7.320

@<SCITEGIC>MOL_PROPERTY
Coulomb
SciTegic.value.DoubleValue
-8.530

@<SCITEGIC>MOL_PROPERTY
VdW
SciTegic.value.DoubleValue
1.249

@<SCITEGIC>MOL_PROPERTY
VdW6
SciTegic.value.DoubleValue
-2.615

@<SCITEGIC>MOL_PROPERTY
VdW12
SciTegic.value.DoubleValue
3.864

@<SCITEGIC>MOL_PROPERTY
Bond
SciTegic.value.DoubleValue
0.056

@<SCITEGIC>MOL_PROPERTY
Angle
SciTegic.value.DoubleValue
0.694

@<SCITEGIC>MOL_PROPERTY
Pdih
SciTegic.value.DoubleValue
6.570

@<SCITEGIC>MOL_PROPERTY
Idih
SciTegic.value.DoubleValue
0.000

@<SCITEGIC>MOL_PROPERTY
Tether
SciTegic.value.DoubleValue
0.000

@<TRIPOS>MOLECULE
guest-s16_confgen4.mol2 : confsearch ligand conformer 256
          13          13           1
SMALL
USER_CHARGES
 
@<TRIPOS>ATOM
       1    C1      20.010922   20.255374   21.857083 C.3        1 MOL1        -0.1693
       2    H1      19.152227   20.901846   21.632801 H          1 MOL1         0.0829
       3    H2      20.930724   20.839720   21.735254 H          1 MOL1         0.0829
       4    C2      19.983570   18.861414   21.147553 C.3        1 MOL1        -0.1768
       5    H3      19.516597   18.831923   20.157085 H          1 MOL1         0.0829
       6    H4      20.954296   18.352934   21.095350 H          1 MOL1         0.0829
       7    C3      19.081551   18.410212   22.335672 C.3        1 MOL1         0.1211
       8    H5      18.021147   18.668476   22.209556 H          1 MOL1         0.0786
       9    C4      19.886397   19.439122   23.185825 C.3        1 MOL1        -0.1768
      10    H6      19.334363   19.922942   23.999058 H          1 MOL1         0.0829
      11    H7      20.836913   19.059504   23.581050 H          1 MOL1         0.0829
      12    O1      19.225743   17.063689   22.723783 O.3        1 MOL1        -0.5515
      13    H8      18.738275   16.950751   23.568072 H          1 MOL1         0.3773
@<TRIPOS>BOND
    1     1     2    1
    2     1     3    1
    3     1     4    1
    4     4     5    1
    5     4     6    1
    6     4     7    1
    7     7     8    1
    8     1     9    1
    9     7     9    1
   10     9    10    1
   11     9    11    1
   12     7    12    1
   13    12    13    1
@<TRIPOS>SUBSTRUCTURE
       1 MOL1            1 RESIDUE      1      MOL     
@<SCITEGIC>MOL_PROPERTY
VConf Rank
SciTegic.value.IntegerValue
256

@<SCITEGIC>MOL_PROPERTY
Conf_Id
SciTegic.value.IntegerValue
22

@<SCITEGIC>MOL_PROPERTY
Delta U+W
SciTegic.value.DoubleValue
0.000

@<SCITEGIC>MOL_PROPERTY
U+W
SciTegic.value.DoubleValue
-3.131

@<SCITEGIC>MOL_PROPERTY
Grad RMS
SciTegic.value.DoubleValue
0.000000

@<SCITEGIC>MOL_PROPERTY
U
SciTegic.value.DoubleValue
-0.154

@<SCITEGIC>MOL_PROPERTY
W
SciTegic.value.DoubleValue
-2.978

@<SCITEGIC>MOL_PROPERTY
W(PB)
SciTegic.value.DoubleValue
-4.579

@<SCITEGIC>MOL_PROPERTY
W(SA)
SciTegic.value.DoubleValue
1.601

@<SCITEGIC>MOL_PROPERTY
Valence
SciTegic.value.DoubleValue
6.333

@<SCITEGIC>MOL_PROPERTY
Coulomb
SciTegic.value.DoubleValue
-7.439

@<SCITEGIC>MOL_PROPERTY
VdW
SciTegic.value.DoubleValue
0.952

@<SCITEGIC>MOL_PROPERTY
VdW6
SciTegic.value.DoubleValue
-2.120

@<SCITEGIC>MOL_PROPERTY
VdW12
SciTegic.value.DoubleValue
3.072

@<SCITEGIC>MOL_PROPERTY
Bond
SciTegic.value.DoubleValue
0.065

@<SCITEGIC>MOL_PROPERTY
Angle
SciTegic.value.DoubleValue
0.931

@<SCITEGIC>MOL_PROPERTY
Pdih
SciTegic.value.DoubleValue
5.338

@<SCITEGIC>MOL_PROPERTY
Idih
SciTegic.value.DoubleValue
0.000

@<SCITEGIC>MOL_PROPERTY
Tether
SciTegic.value.DoubleValue
0.000

@<TRIPOS>MOLECULE
guest-s16_confgen4.mol2 : confsearch ligand conformer 257
          13          13           1
SMALL
USER_CHARGES
 
@<TRIPOS>ATOM
       1    C1      20.450202   19.479515   21.373628 C.3        1 MOL1        -0.1693
       2    H1      20.040970   19.523483   20.355698 H          1 MOL1         0.0829
       3    H2      21.472816   19.874914   21.357556 H          1 MOL1         0.0829
       4    C2      20.255544   18.107042   22.098717 C.3        1 MOL1        -0.1768
       5    H3      20.924014   17.941291   22.952806 H          1 MOL1         0.0829
       6    H4      20.272527   17.217367   21.459684 H          1 MOL1         0.0829
       7    C3      18.842728   18.645473   22.477181 C.3        1 MOL1         0.1211
       8    H5      18.089629   18.514801   21.687987 H          1 MOL1         0.0786
       9    C4      19.508721   20.054468   22.482838 C.3        1 MOL1        -0.1768
      10    H6      20.011250   20.315794   23.422390 H          1 MOL1         0.0829
      11    H7      18.862978   20.887693   22.184994 H          1 MOL1         0.0829
      12    O1      18.344851   18.209674   23.720864 O.3        1 MOL1        -0.5515
      13    H8      18.105870   17.262864   23.622664 H          1 MOL1         0.3773
@<TRIPOS>BOND
    1     1     2    1
    2     1     3    1
    3     1     4    1
    4     4     5    1
    5     4     6    1
    6     4     7    1
    7     7     8    1
    8     1     9    1
    9     7     9    1
   10     9    10    1
   11     9    11    1
   12     7    12    1
   13    12    13    1
@<TRIPOS>SUBSTRUCTURE
       1 MOL1            1 RESIDUE      1      MOL     
@<SCITEGIC>MOL_PROPERTY
VConf Rank
SciTegic.value.IntegerValue
257

@<SCITEGIC>MOL_PROPERTY
Conf_Id
SciTegic.value.IntegerValue
19

@<SCITEGIC>MOL_PROPERTY
Delta U+W
SciTegic.value.DoubleValue
-0.011

@<SCITEGIC>MOL_PROPERTY
U+W
SciTegic.value.DoubleValue
-3.142

@<SCITEGIC>MOL_PROPERTY
Grad RMS
SciTegic.value.DoubleValue
0.000000

@<SCITEGIC>MOL_PROPERTY
U
SciTegic.value.DoubleValue
-0.154

@<SCITEGIC>MOL_PROPERTY
W
SciTegic.value.DoubleValue
-2.989

@<SCITEGIC>MOL_PROPERTY
W(PB)
SciTegic.value.DoubleValue
-4.588

@<SCITEGIC>MOL_PROPERTY
W(SA)
SciTegic.value.DoubleValue
1.599

@<SCITEGIC>MOL_PROPERTY
Valence
SciTegic.value.DoubleValue
6.334

@<SCITEGIC>MOL_PROPERTY
Coulomb
SciTegic.value.DoubleValue
-7.439

@<SCITEGIC>MOL_PROPERTY
VdW
SciTegic.value.DoubleValue
0.951

@<SCITEGIC>MOL_PROPERTY
VdW6
SciTegic.value.DoubleValue
-2.120

@<SCITEGIC>MOL_PROPERTY
VdW12
SciTegic.value.DoubleValue
3.072

@<SCITEGIC>MOL_PROPERTY
Bond
SciTegic.value.DoubleValue
0.065

@<SCITEGIC>MOL_PROPERTY
Angle
SciTegic.value.DoubleValue
0.930

@<SCITEGIC>MOL_PROPERTY
Pdih
SciTegic.value.DoubleValue
5.339

@<SCITEGIC>MOL_PROPERTY
Idih
SciTegic.value.DoubleValue
0.000

@<SCITEGIC>MOL_PROPERTY
Tether
SciTegic.value.DoubleValue
0.000

@<TRIPOS>MOLECULE
guest-s16_confgen4.mol2 : confsearch ligand conformer 258
          13          13           1
SMALL
USER_CHARGES
 
@<TRIPOS>ATOM
       1    C1      18.593770   19.242010   21.645231 C.3        1 MOL1        -0.1693
       2    H1      18.172205   19.526653   20.674027 H          1 MOL1         0.0829
       3    H2      17.771972   18.954838   22.314101 H          1 MOL1         0.0829
       4    C2      19.620236   20.244132   22.270603 C.3        1 MOL1        -0.1768
       5    H3      20.210900   20.806992   21.537753 H          1 MOL1         0.0829
       6    H4      19.218418   20.945682   23.010038 H          1 MOL1         0.0829
       7    C3      20.346824   18.990536   22.850254 C.3        1 MOL1         0.1211
       8    H5      21.440924   19.071578   22.884752 H          1 MOL1         0.0786
       9    C4      19.786316   18.229508   21.608174 C.3        1 MOL1        -0.1768
      10    H6      19.527724   17.176745   21.766831 H          1 MOL1         0.0829
      11    H7      20.417132   18.303770   20.714009 H          1 MOL1         0.0829
      12    O1      19.855385   18.541926   24.097403 O.3        1 MOL1        -0.5515
      13    H8      20.259882   17.665326   24.270924 H          1 MOL1         0.3773
@<TRIPOS>BOND
    1     1     2    1
    2     1     3    1
    3     1     4    1
    4     4     5    1
    5     4     6    1
    6     4     7    1
    7     7     8    1
    8     1     9    1
    9     7     9    1
   10     9    10    1
   11     9    11    1
   12     7    12    1
   13    12    13    1
@<TRIPOS>SUBSTRUCTURE
       1 MOL1            1 RESIDUE      1      MOL     
@<SCITEGIC>MOL_PROPERTY
VConf Rank
SciTegic.value.IntegerValue
258

@<SCITEGIC>MOL_PROPERTY
Conf_Id
SciTegic.value.IntegerValue
20

@<SCITEGIC>MOL_PROPERTY
Delta U+W
SciTegic.value.DoubleValue
1.030

@<SCITEGIC>MOL_PROPERTY
U+W
SciTegic.value.DoubleValue
-2.101

@<SCITEGIC>MOL_PROPERTY
Grad RMS
SciTegic.value.DoubleValue
0.000000

@<SCITEGIC>MOL_PROPERTY
U
SciTegic.value.DoubleValue
0.841

@<SCITEGIC>MOL_PROPERTY
W
SciTegic.value.DoubleValue
-2.942

@<SCITEGIC>MOL_PROPERTY
W(PB)
SciTegic.value.DoubleValue
-4.530

@<SCITEGIC>MOL_PROPERTY
W(SA)
SciTegic.value.DoubleValue
1.587

@<SCITEGIC>MOL_PROPERTY
Valence
SciTegic.value.DoubleValue
6.736

@<SCITEGIC>MOL_PROPERTY
Coulomb
SciTegic.value.DoubleValue
-7.246

@<SCITEGIC>MOL_PROPERTY
VdW
SciTegic.value.DoubleValue
1.352

@<SCITEGIC>MOL_PROPERTY
VdW6
SciTegic.value.DoubleValue
-2.500

@<SCITEGIC>MOL_PROPERTY
VdW12
SciTegic.value.DoubleValue
3.851

@<SCITEGIC>MOL_PROPERTY
Bond
SciTegic.value.DoubleValue
0.063

@<SCITEGIC>MOL_PROPERTY
Angle
SciTegic.value.DoubleValue
0.687

@<SCITEGIC>MOL_PROPERTY
Pdih
SciTegic.value.DoubleValue
5.986

@<SCITEGIC>MOL_PROPERTY
Idih
SciTegic.value.DoubleValue
0.000

@<SCITEGIC>MOL_PROPERTY
Tether
SciTegic.value.DoubleValue
0.000

@<TRIPOS>MOLECULE
guest-s16_confgen4.mol2 : confsearch ligand conformer 259
          13          13           1
SMALL
USER_CHARGES
 
@<TRIPOS>ATOM
       1    C1      20.478553   17.904709   22.300587 C.3        1 MOL1        -0.1693
       2    H1      21.565169   18.039959   22.382084 H          1 MOL1         0.0829
       3    H2      20.257522   16.830760   22.314817 H          1 MOL1         0.0829
       4    C2      19.800560   18.730778   21.158093 C.3        1 MOL1        -0.1768
       5    H3      20.405605   18.898803   20.260329 H          1 MOL1         0.0829
       6    H4      18.812520   18.364485   20.853145 H          1 MOL1         0.0829
       7    C3      19.776035   19.901615   22.186536 C.3        1 MOL1         0.1211
       8    H5      20.719160   20.461865   22.244237 H          1 MOL1         0.0786
       9    C4      19.634197   18.793033   23.272852 C.3        1 MOL1        -0.1768
      10    H6      18.608972   18.440654   23.440579 H          1 MOL1         0.0829
      11    H7      20.092315   19.016040   24.242742 H          1 MOL1         0.0829
      12    O1      18.682914   20.781606   22.074639 O.3        1 MOL1        -0.5515
      13    H8      17.875081   20.228530   22.027395 H          1 MOL1         0.3773
@<TRIPOS>BOND
    1     1     2    1
    2     1     3    1
    3     1     4    1
    4     4     5    1
    5     4     6    1
    6     4     7    1
    7     7     8    1
    8     1     9    1
    9     7     9    1
   10     9    10    1
   11     9    11    1
   12     7    12    1
   13    12    13    1
@<TRIPOS>SUBSTRUCTURE
       1 MOL1            1 RESIDUE      1      MOL     
@<SCITEGIC>MOL_PROPERTY
VConf Rank
SciTegic.value.IntegerValue
259

@<SCITEGIC>MOL_PROPERTY
Conf_Id
SciTegic.value.IntegerValue
24

@<SCITEGIC>MOL_PROPERTY
Delta U+W
SciTegic.value.DoubleValue
0.356

@<SCITEGIC>MOL_PROPERTY
U+W
SciTegic.value.DoubleValue
-2.775

@<SCITEGIC>MOL_PROPERTY
Grad RMS
SciTegic.value.DoubleValue
0.000000

@<SCITEGIC>MOL_PROPERTY
U
SciTegic.value.DoubleValue
-0.184

@<SCITEGIC>MOL_PROPERTY
W
SciTegic.value.DoubleValue
-2.591

@<SCITEGIC>MOL_PROPERTY
W(PB)
SciTegic.value.DoubleValue
-4.184

@<SCITEGIC>MOL_PROPERTY
W(SA)
SciTegic.value.DoubleValue
1.593

@<SCITEGIC>MOL_PROPERTY
Valence
SciTegic.value.DoubleValue
6.840

@<SCITEGIC>MOL_PROPERTY
Coulomb
SciTegic.value.DoubleValue
-7.916

@<SCITEGIC>MOL_PROPERTY
VdW
SciTegic.value.DoubleValue
0.893

@<SCITEGIC>MOL_PROPERTY
VdW6
SciTegic.value.DoubleValue
-2.167

@<SCITEGIC>MOL_PROPERTY
VdW12
SciTegic.value.DoubleValue
3.060

@<SCITEGIC>MOL_PROPERTY
Bond
SciTegic.value.DoubleValue
0.059

@<SCITEGIC>MOL_PROPERTY
Angle
SciTegic.value.DoubleValue
0.918

@<SCITEGIC>MOL_PROPERTY
Pdih
SciTegic.value.DoubleValue
5.862

@<SCITEGIC>MOL_PROPERTY
Idih
SciTegic.value.DoubleValue
0.000

@<SCITEGIC>MOL_PROPERTY
Tether
SciTegic.value.DoubleValue
0.000

@<TRIPOS>MOLECULE
guest-s16_confgen4.mol2 : confsearch ligand conformer 260
          13          13           1
SMALL
USER_CHARGES
 
@<TRIPOS>ATOM
       1    C1      18.734021   19.558294   22.185069 C.3        1 MOL1        -0.1693
       2    H1      18.050946   20.204592   22.749055 H          1 MOL1         0.0829
       3    H2      18.324745   19.417819   21.176577 H          1 MOL1         0.0829
       4    C2      19.179888   18.241334   22.904066 C.3        1 MOL1        -0.1768
       5    H3      19.228295   18.315745   23.997288 H          1 MOL1         0.0829
       6    H4      18.623088   17.334936   22.641149 H          1 MOL1         0.0829
       7    C3      20.555594   18.427015   22.192063 C.3        1 MOL1         0.1211
       8    H5      21.426245   18.116980   22.783951 H          1 MOL1         0.0786
       9    C4      20.247256   19.955845   22.232073 C.3        1 MOL1        -0.1768
      10    H6      20.557363   20.450629   23.160532 H          1 MOL1         0.0829
      11    H7      20.619506   20.541784   21.384245 H          1 MOL1         0.0829
      12    O1      20.630826   17.872390   20.896509 O.3        1 MOL1        -0.5515
      13    H8      19.834084   18.180610   20.417431 H          1 MOL1         0.3773
@<TRIPOS>BOND
    1     1     2    1
    2     1     3    1
    3     1     4    1
    4     4     5    1
    5     4     6    1
    6     4     7    1
    7     7     8    1
    8     1     9    1
    9     7     9    1
   10     9    10    1
   11     9    11    1
   12     7    12    1
   13    12    13    1
@<TRIPOS>SUBSTRUCTURE
       1 MOL1            1 RESIDUE      1      MOL     
@<SCITEGIC>MOL_PROPERTY
VConf Rank
SciTegic.value.IntegerValue
260

@<SCITEGIC>MOL_PROPERTY
Conf_Id
SciTegic.value.IntegerValue
44

@<SCITEGIC>MOL_PROPERTY
Delta U+W
SciTegic.value.DoubleValue
0.823

@<SCITEGIC>MOL_PROPERTY
U+W
SciTegic.value.DoubleValue
-2.308

@<SCITEGIC>MOL_PROPERTY
Grad RMS
SciTegic.value.DoubleValue
0.000000

@<SCITEGIC>MOL_PROPERTY
U
SciTegic.value.DoubleValue
0.039

@<SCITEGIC>MOL_PROPERTY
W
SciTegic.value.DoubleValue
-2.348

@<SCITEGIC>MOL_PROPERTY
W(PB)
SciTegic.value.DoubleValue
-3.918

@<SCITEGIC>MOL_PROPERTY
W(SA)
SciTegic.value.DoubleValue
1.571

@<SCITEGIC>MOL_PROPERTY
Valence
SciTegic.value.DoubleValue
7.320

@<SCITEGIC>MOL_PROPERTY
Coulomb
SciTegic.value.DoubleValue
-8.530

@<SCITEGIC>MOL_PROPERTY
VdW
SciTegic.value.DoubleValue
1.249

@<SCITEGIC>MOL_PROPERTY
VdW6
SciTegic.value.DoubleValue
-2.615

@<SCITEGIC>MOL_PROPERTY
VdW12
SciTegic.value.DoubleValue
3.864

@<SCITEGIC>MOL_PROPERTY
Bond
SciTegic.value.DoubleValue
0.056

@<SCITEGIC>MOL_PROPERTY
Angle
SciTegic.value.DoubleValue
0.694

@<SCITEGIC>MOL_PROPERTY
Pdih
SciTegic.value.DoubleValue
6.570

@<SCITEGIC>MOL_PROPERTY
Idih
SciTegic.value.DoubleValue
0.000

@<SCITEGIC>MOL_PROPERTY
Tether
SciTegic.value.DoubleValue
0.000

@<TRIPOS>MOLECULE
guest-s16_confgen4.mol2 : confsearch ligand conformer 261
          13          13           1
SMALL
USER_CHARGES
 
@<TRIPOS>ATOM
       1    C1      20.093203   19.984136   23.069220 C.3        1 MOL1        -0.1693
       2    H1      20.593014   19.589952   23.963868 H          1 MOL1         0.0829
       3    H2      20.140233   21.079325   23.095441 H          1 MOL1         0.0829
       4    C2      18.686874   19.363690   22.778373 C.3        1 MOL1        -0.1768
       5    H3      18.097245   19.070308   23.653716 H          1 MOL1         0.0829
       6    H4      18.052379   19.956760   22.108096 H          1 MOL1         0.0829
       7    C3      19.473125   18.216281   22.075445 C.3        1 MOL1         0.1211
       8    H5      19.842379   17.445144   22.765417 H          1 MOL1         0.0786
       9    C4      20.527402   19.309738   21.726095 C.3        1 MOL1        -0.1768
      10    H6      21.567603   18.970438   21.671057 H          1 MOL1         0.0829
      11    H7      20.297966   19.892936   20.825522 H          1 MOL1         0.0829
      12    O1      18.824086   17.630072   20.971065 O.3        1 MOL1        -0.5515
      13    H8      19.477216   17.049128   20.524828 H          1 MOL1         0.3773
@<TRIPOS>BOND
    1     1     2    1
    2     1     3    1
    3     1     4    1
    4     4     5    1
    5     4     6    1
    6     4     7    1
    7     7     8    1
    8     1     9    1
    9     7     9    1
   10     9    10    1
   11     9    11    1
   12     7    12    1
   13    12    13    1
@<TRIPOS>SUBSTRUCTURE
       1 MOL1            1 RESIDUE      1      MOL     
@<SCITEGIC>MOL_PROPERTY
VConf Rank
SciTegic.value.IntegerValue
261

@<SCITEGIC>MOL_PROPERTY
Conf_Id
SciTegic.value.IntegerValue
22

@<SCITEGIC>MOL_PROPERTY
Delta U+W
SciTegic.value.DoubleValue
0.000

@<SCITEGIC>MOL_PROPERTY
U+W
SciTegic.value.DoubleValue
-3.131

@<SCITEGIC>MOL_PROPERTY
Grad RMS
SciTegic.value.DoubleValue
0.000000

@<SCITEGIC>MOL_PROPERTY
U
SciTegic.value.DoubleValue
-0.154

@<SCITEGIC>MOL_PROPERTY
W
SciTegic.value.DoubleValue
-2.978

@<SCITEGIC>MOL_PROPERTY
W(PB)
SciTegic.value.DoubleValue
-4.579

@<SCITEGIC>MOL_PROPERTY
W(SA)
SciTegic.value.DoubleValue
1.601

@<SCITEGIC>MOL_PROPERTY
Valence
SciTegic.value.DoubleValue
6.333

@<SCITEGIC>MOL_PROPERTY
Coulomb
SciTegic.value.DoubleValue
-7.439

@<SCITEGIC>MOL_PROPERTY
VdW
SciTegic.value.DoubleValue
0.952

@<SCITEGIC>MOL_PROPERTY
VdW6
SciTegic.value.DoubleValue
-2.120

@<SCITEGIC>MOL_PROPERTY
VdW12
SciTegic.value.DoubleValue
3.072

@<SCITEGIC>MOL_PROPERTY
Bond
SciTegic.value.DoubleValue
0.065

@<SCITEGIC>MOL_PROPERTY
Angle
SciTegic.value.DoubleValue
0.931

@<SCITEGIC>MOL_PROPERTY
Pdih
SciTegic.value.DoubleValue
5.338

@<SCITEGIC>MOL_PROPERTY
Idih
SciTegic.value.DoubleValue
0.000

@<SCITEGIC>MOL_PROPERTY
Tether
SciTegic.value.DoubleValue
0.000

@<TRIPOS>MOLECULE
guest-s16_confgen4.mol2 : confsearch ligand conformer 262
          13          13           1
SMALL
USER_CHARGES
 
@<TRIPOS>ATOM
       1    C1      18.896324   17.995013   21.664798 C.3        1 MOL1        -0.1693
       2    H1      19.368704   17.559634   20.774355 H          1 MOL1         0.0829
       3    H2      17.900890   17.551360   21.785721 H          1 MOL1         0.0829
       4    C2      18.967573   19.555634   21.746745 C.3        1 MOL1        -0.1768
       5    H3      18.239886   20.012231   22.429229 H          1 MOL1         0.0829
       6    H4      18.938716   20.090524   20.791113 H          1 MOL1         0.0829
       7    C3      20.383170   19.337282   22.361240 C.3        1 MOL1         0.1211
       8    H5      21.174275   19.182545   21.614735 H          1 MOL1         0.0786
       9    C4      19.799769   18.013863   22.941800 C.3        1 MOL1        -0.1768
      10    H6      19.256663   18.133026   23.887538 H          1 MOL1         0.0829
      11    H7      20.509079   17.185464   23.044730 H          1 MOL1         0.0829
      12    O1      20.778542   20.292159   23.318549 O.3        1 MOL1        -0.5515
      13    H8      20.968508   21.125647   22.836455 H          1 MOL1         0.3773
@<TRIPOS>BOND
    1     1     2    1
    2     1     3    1
    3     1     4    1
    4     4     5    1
    5     4     6    1
    6     4     7    1
    7     7     8    1
    8     1     9    1
    9     7     9    1
   10     9    10    1
   11     9    11    1
   12     7    12    1
   13    12    13    1
@<TRIPOS>SUBSTRUCTURE
       1 MOL1            1 RESIDUE      1      MOL     
@<SCITEGIC>MOL_PROPERTY
VConf Rank
SciTegic.value.IntegerValue
262

@<SCITEGIC>MOL_PROPERTY
Conf_Id
SciTegic.value.IntegerValue
19

@<SCITEGIC>MOL_PROPERTY
Delta U+W
SciTegic.value.DoubleValue
-0.011

@<SCITEGIC>MOL_PROPERTY
U+W
SciTegic.value.DoubleValue
-3.142

@<SCITEGIC>MOL_PROPERTY
Grad RMS
SciTegic.value.DoubleValue
0.000000

@<SCITEGIC>MOL_PROPERTY
U
SciTegic.value.DoubleValue
-0.154

@<SCITEGIC>MOL_PROPERTY
W
SciTegic.value.DoubleValue
-2.989

@<SCITEGIC>MOL_PROPERTY
W(PB)
SciTegic.value.DoubleValue
-4.588

@<SCITEGIC>MOL_PROPERTY
W(SA)
SciTegic.value.DoubleValue
1.599

@<SCITEGIC>MOL_PROPERTY
Valence
SciTegic.value.DoubleValue
6.334

@<SCITEGIC>MOL_PROPERTY
Coulomb
SciTegic.value.DoubleValue
-7.439

@<SCITEGIC>MOL_PROPERTY
VdW
SciTegic.value.DoubleValue
0.951

@<SCITEGIC>MOL_PROPERTY
VdW6
SciTegic.value.DoubleValue
-2.120

@<SCITEGIC>MOL_PROPERTY
VdW12
SciTegic.value.DoubleValue
3.072

@<SCITEGIC>MOL_PROPERTY
Bond
SciTegic.value.DoubleValue
0.065

@<SCITEGIC>MOL_PROPERTY
Angle
SciTegic.value.DoubleValue
0.930

@<SCITEGIC>MOL_PROPERTY
Pdih
SciTegic.value.DoubleValue
5.339

@<SCITEGIC>MOL_PROPERTY
Idih
SciTegic.value.DoubleValue
0.000

@<SCITEGIC>MOL_PROPERTY
Tether
SciTegic.value.DoubleValue
0.000

@<TRIPOS>MOLECULE
guest-s16_confgen4.mol2 : confsearch ligand conformer 263
          13          13           1
SMALL
USER_CHARGES
 
@<TRIPOS>ATOM
       1    C1      19.863264   20.098962   22.890218 C.3        1 MOL1        -0.1693
       2    H1      19.676634   21.178656   22.927728 H          1 MOL1         0.0829
       3    H2      20.443473   19.811950   23.776891 H          1 MOL1         0.0829
       4    C2      20.424586   19.543807   21.539036 C.3        1 MOL1        -0.1768
       5    H3      20.096776   20.095028   20.649395 H          1 MOL1         0.0829
       6    H4      21.510814   19.410047   21.487950 H          1 MOL1         0.0829
       7    C3      19.595877   18.254726   21.833894 C.3        1 MOL1         0.1211
       8    H5      19.166044   17.774439   20.945423 H          1 MOL1         0.0786
       9    C4      18.618235   19.194377   22.606791 C.3        1 MOL1        -0.1768
      10    H6      18.129842   18.760115   23.486132 H          1 MOL1         0.0829
      11    H7      17.852010   19.661436   21.976133 H          1 MOL1         0.0829
      12    O1      20.256011   17.292881   22.632155 O.3        1 MOL1        -0.5515
      13    H8      19.588122   16.623272   22.892355 H          1 MOL1         0.3773
@<TRIPOS>BOND
    1     1     2    1
    2     1     3    1
    3     1     4    1
    4     4     5    1
    5     4     6    1
    6     4     7    1
    7     7     8    1
    8     1     9    1
    9     7     9    1
   10     9    10    1
   11     9    11    1
   12     7    12    1
   13    12    13    1
@<TRIPOS>SUBSTRUCTURE
       1 MOL1            1 RESIDUE      1      MOL     
@<SCITEGIC>MOL_PROPERTY
VConf Rank
SciTegic.value.IntegerValue
263

@<SCITEGIC>MOL_PROPERTY
Conf_Id
SciTegic.value.IntegerValue
20

@<SCITEGIC>MOL_PROPERTY
Delta U+W
SciTegic.value.DoubleValue
1.030

@<SCITEGIC>MOL_PROPERTY
U+W
SciTegic.value.DoubleValue
-2.101

@<SCITEGIC>MOL_PROPERTY
Grad RMS
SciTegic.value.DoubleValue
0.000000

@<SCITEGIC>MOL_PROPERTY
U
SciTegic.value.DoubleValue
0.841

@<SCITEGIC>MOL_PROPERTY
W
SciTegic.value.DoubleValue
-2.942

@<SCITEGIC>MOL_PROPERTY
W(PB)
SciTegic.value.DoubleValue
-4.530

@<SCITEGIC>MOL_PROPERTY
W(SA)
SciTegic.value.DoubleValue
1.587

@<SCITEGIC>MOL_PROPERTY
Valence
SciTegic.value.DoubleValue
6.736

@<SCITEGIC>MOL_PROPERTY
Coulomb
SciTegic.value.DoubleValue
-7.246

@<SCITEGIC>MOL_PROPERTY
VdW
SciTegic.value.DoubleValue
1.352

@<SCITEGIC>MOL_PROPERTY
VdW6
SciTegic.value.DoubleValue
-2.500

@<SCITEGIC>MOL_PROPERTY
VdW12
SciTegic.value.DoubleValue
3.851

@<SCITEGIC>MOL_PROPERTY
Bond
SciTegic.value.DoubleValue
0.063

@<SCITEGIC>MOL_PROPERTY
Angle
SciTegic.value.DoubleValue
0.687

@<SCITEGIC>MOL_PROPERTY
Pdih
SciTegic.value.DoubleValue
5.986

@<SCITEGIC>MOL_PROPERTY
Idih
SciTegic.value.DoubleValue
0.000

@<SCITEGIC>MOL_PROPERTY
Tether
SciTegic.value.DoubleValue
0.000

@<TRIPOS>MOLECULE
guest-s16_confgen4.mol2 : confsearch ligand conformer 264
          13          13           1
SMALL
USER_CHARGES
 
@<TRIPOS>ATOM
       1    C1      20.975732   18.957047   21.848091 C.3        1 MOL1        -0.1693
       2    H1      21.631193   18.167223   22.238243 H          1 MOL1         0.0829
       3    H2      21.565504   19.609516   21.193206 H          1 MOL1         0.0829
       4    C2      20.103052   19.676059   22.929206 C.3        1 MOL1        -0.1768
       5    H3      20.550057   19.770369   23.924990 H          1 MOL1         0.0829
       6    H4      19.712162   20.654787   22.624764 H          1 MOL1         0.0829
       7    C3      19.111654   18.488070   22.742209 C.3        1 MOL1         0.1211
       8    H5      19.374536   17.594406   23.324403 H          1 MOL1         0.0786
       9    C4      19.614507   18.449785   21.267480 C.3        1 MOL1        -0.1768
      10    H6      19.114422   19.154425   20.591621 H          1 MOL1         0.0829
      11    H7      19.630050   17.461109   20.795706 H          1 MOL1         0.0829
      12    O1      17.750166   18.805094   22.908534 O.3        1 MOL1        -0.5515
      13    H8      17.575567   19.604947   22.369581 H          1 MOL1         0.3773
@<TRIPOS>BOND
    1     1     2    1
    2     1     3    1
    3     1     4    1
    4     4     5    1
    5     4     6    1
    6     4     7    1
    7     7     8    1
    8     1     9    1
    9     7     9    1
   10     9    10    1
   11     9    11    1
   12     7    12    1
   13    12    13    1
@<TRIPOS>SUBSTRUCTURE
       1 MOL1            1 RESIDUE      1      MOL     
@<SCITEGIC>MOL_PROPERTY
VConf Rank
SciTegic.value.IntegerValue
264

@<SCITEGIC>MOL_PROPERTY
Conf_Id
SciTegic.value.IntegerValue
24

@<SCITEGIC>MOL_PROPERTY
Delta U+W
SciTegic.value.DoubleValue
0.356

@<SCITEGIC>MOL_PROPERTY
U+W
SciTegic.value.DoubleValue
-2.775

@<SCITEGIC>MOL_PROPERTY
Grad RMS
SciTegic.value.DoubleValue
0.000000

@<SCITEGIC>MOL_PROPERTY
U
SciTegic.value.DoubleValue
-0.184

@<SCITEGIC>MOL_PROPERTY
W
SciTegic.value.DoubleValue
-2.591

@<SCITEGIC>MOL_PROPERTY
W(PB)
SciTegic.value.DoubleValue
-4.184

@<SCITEGIC>MOL_PROPERTY
W(SA)
SciTegic.value.DoubleValue
1.593

@<SCITEGIC>MOL_PROPERTY
Valence
SciTegic.value.DoubleValue
6.840

@<SCITEGIC>MOL_PROPERTY
Coulomb
SciTegic.value.DoubleValue
-7.916

@<SCITEGIC>MOL_PROPERTY
VdW
SciTegic.value.DoubleValue
0.893

@<SCITEGIC>MOL_PROPERTY
VdW6
SciTegic.value.DoubleValue
-2.167

@<SCITEGIC>MOL_PROPERTY
VdW12
SciTegic.value.DoubleValue
3.060

@<SCITEGIC>MOL_PROPERTY
Bond
SciTegic.value.DoubleValue
0.059

@<SCITEGIC>MOL_PROPERTY
Angle
SciTegic.value.DoubleValue
0.918

@<SCITEGIC>MOL_PROPERTY
Pdih
SciTegic.value.DoubleValue
5.862

@<SCITEGIC>MOL_PROPERTY
Idih
SciTegic.value.DoubleValue
0.000

@<SCITEGIC>MOL_PROPERTY
Tether
SciTegic.value.DoubleValue
0.000

@<TRIPOS>MOLECULE
guest-s16_confgen4.mol2 : confsearch ligand conformer 265
          13          13           1
SMALL
USER_CHARGES
 
@<TRIPOS>ATOM
       1    C1      20.557830   18.447242   22.703749 C.3        1 MOL1        -0.1693
       2    H1      20.870002   17.774640   23.511541 H          1 MOL1         0.0829
       3    H2      21.448073   18.738987   22.132218 H          1 MOL1         0.0829
       4    C2      19.626371   19.633426   23.122666 C.3        1 MOL1        -0.1768
       5    H3      18.973204   19.417093   23.976825 H          1 MOL1         0.0829
       6    H4      20.119066   20.596645   23.296361 H          1 MOL1         0.0829
       7    C3      18.936199   19.461219   21.734142 C.3        1 MOL1         0.1211
       8    H5      17.853731   19.642174   21.732099 H          1 MOL1         0.0786
       9    C4      19.349088   17.960215   21.836636 C.3        1 MOL1        -0.1768
      10    H6      18.627937   17.333635   22.375480 H          1 MOL1         0.0829
      11    H7      19.600432   17.467045   20.890952 H          1 MOL1         0.0829
      12    O1      19.546012   20.171756   20.678210 O.3        1 MOL1        -0.5515
      13    H8      20.503912   19.973896   20.729130 H          1 MOL1         0.3773
@<TRIPOS>BOND
    1     1     2    1
    2     1     3    1
    3     1     4    1
    4     4     5    1
    5     4     6    1
    6     4     7    1
    7     7     8    1
    8     1     9    1
    9     7     9    1
   10     9    10    1
   11     9    11    1
   12     7    12    1
   13    12    13    1
@<TRIPOS>SUBSTRUCTURE
       1 MOL1            1 RESIDUE      1      MOL     
@<SCITEGIC>MOL_PROPERTY
VConf Rank
SciTegic.value.IntegerValue
265

@<SCITEGIC>MOL_PROPERTY
Conf_Id
SciTegic.value.IntegerValue
44

@<SCITEGIC>MOL_PROPERTY
Delta U+W
SciTegic.value.DoubleValue
0.823

@<SCITEGIC>MOL_PROPERTY
U+W
SciTegic.value.DoubleValue
-2.308

@<SCITEGIC>MOL_PROPERTY
Grad RMS
SciTegic.value.DoubleValue
0.000000

@<SCITEGIC>MOL_PROPERTY
U
SciTegic.value.DoubleValue
0.039

@<SCITEGIC>MOL_PROPERTY
W
SciTegic.value.DoubleValue
-2.348

@<SCITEGIC>MOL_PROPERTY
W(PB)
SciTegic.value.DoubleValue
-3.918

@<SCITEGIC>MOL_PROPERTY
W(SA)
SciTegic.value.DoubleValue
1.571

@<SCITEGIC>MOL_PROPERTY
Valence
SciTegic.value.DoubleValue
7.320

@<SCITEGIC>MOL_PROPERTY
Coulomb
SciTegic.value.DoubleValue
-8.530

@<SCITEGIC>MOL_PROPERTY
VdW
SciTegic.value.DoubleValue
1.249

@<SCITEGIC>MOL_PROPERTY
VdW6
SciTegic.value.DoubleValue
-2.615

@<SCITEGIC>MOL_PROPERTY
VdW12
SciTegic.value.DoubleValue
3.864

@<SCITEGIC>MOL_PROPERTY
Bond
SciTegic.value.DoubleValue
0.056

@<SCITEGIC>MOL_PROPERTY
Angle
SciTegic.value.DoubleValue
0.694

@<SCITEGIC>MOL_PROPERTY
Pdih
SciTegic.value.DoubleValue
6.570

@<SCITEGIC>MOL_PROPERTY
Idih
SciTegic.value.DoubleValue
0.000

@<SCITEGIC>MOL_PROPERTY
Tether
SciTegic.value.DoubleValue
0.000

@<TRIPOS>MOLECULE
guest-s16_confgen4.mol2 : confsearch ligand conformer 266
          13          13           1
SMALL
USER_CHARGES
 
@<TRIPOS>ATOM
       1    C1      20.291447   18.716556   21.132508 C.3        1 MOL1        -0.1693
       2    H1      21.385561   18.750608   21.218187 H          1 MOL1         0.0829
       3    H2      20.029456   18.361559   20.128678 H          1 MOL1         0.0829
       4    C2      19.556503   20.009617   21.617438 C.3        1 MOL1        -0.1768
       5    H3      20.090852   20.954247   21.468760 H          1 MOL1         0.0829
       6    H4      18.530521   20.122196   21.245588 H          1 MOL1         0.0829
       7    C3      19.661988   19.388529   23.042910 C.3        1 MOL1         0.1211
       8    H5      20.628706   19.567262   23.533392 H          1 MOL1         0.0786
       9    C4      19.563277   18.009667   22.323056 C.3        1 MOL1        -0.1768
      10    H6      20.104304   17.183310   22.796971 H          1 MOL1         0.0829
      11    H7      18.539300   17.682015   22.104175 H          1 MOL1         0.0829
      12    O1      18.596103   19.692155   23.912535 O.3        1 MOL1        -0.5515
      13    H8      18.694709   19.120185   24.703945 H          1 MOL1         0.3773
@<TRIPOS>BOND
    1     1     2    1
    2     1     3    1
    3     1     4    1
    4     4     5    1
    5     4     6    1
    6     4     7    1
    7     7     8    1
    8     1     9    1
    9     7     9    1
   10     9    10    1
   11     9    11    1
   12     7    12    1
   13    12    13    1
@<TRIPOS>SUBSTRUCTURE
       1 MOL1            1 RESIDUE      1      MOL     
@<SCITEGIC>MOL_PROPERTY
VConf Rank
SciTegic.value.IntegerValue
266

@<SCITEGIC>MOL_PROPERTY
Conf_Id
SciTegic.value.IntegerValue
22

@<SCITEGIC>MOL_PROPERTY
Delta U+W
SciTegic.value.DoubleValue
0.000

@<SCITEGIC>MOL_PROPERTY
U+W
SciTegic.value.DoubleValue
-3.131

@<SCITEGIC>MOL_PROPERTY
Grad RMS
SciTegic.value.DoubleValue
0.000000

@<SCITEGIC>MOL_PROPERTY
U
SciTegic.value.DoubleValue
-0.154

@<SCITEGIC>MOL_PROPERTY
W
SciTegic.value.DoubleValue
-2.978

@<SCITEGIC>MOL_PROPERTY
W(PB)
SciTegic.value.DoubleValue
-4.579

@<SCITEGIC>MOL_PROPERTY
W(SA)
SciTegic.value.DoubleValue
1.601

@<SCITEGIC>MOL_PROPERTY
Valence
SciTegic.value.DoubleValue
6.333

@<SCITEGIC>MOL_PROPERTY
Coulomb
SciTegic.value.DoubleValue
-7.439

@<SCITEGIC>MOL_PROPERTY
VdW
SciTegic.value.DoubleValue
0.952

@<SCITEGIC>MOL_PROPERTY
VdW6
SciTegic.value.DoubleValue
-2.120

@<SCITEGIC>MOL_PROPERTY
VdW12
SciTegic.value.DoubleValue
3.072

@<SCITEGIC>MOL_PROPERTY
Bond
SciTegic.value.DoubleValue
0.065

@<SCITEGIC>MOL_PROPERTY
Angle
SciTegic.value.DoubleValue
0.931

@<SCITEGIC>MOL_PROPERTY
Pdih
SciTegic.value.DoubleValue
5.338

@<SCITEGIC>MOL_PROPERTY
Idih
SciTegic.value.DoubleValue
0.000

@<SCITEGIC>MOL_PROPERTY
Tether
SciTegic.value.DoubleValue
0.000

@<TRIPOS>MOLECULE
guest-s16_confgen4.mol2 : confsearch ligand conformer 267
          13          13           1
SMALL
USER_CHARGES
 
@<TRIPOS>ATOM
       1    C1      19.844612   18.648264   23.517936 C.3        1 MOL1        -0.1693
       2    H1      20.122542   17.600994   23.695602 H          1 MOL1         0.0829
       3    H2      19.775703   19.161336   24.484552 H          1 MOL1         0.0829
       4    C2      18.635374   18.848777   22.545892 C.3        1 MOL1        -0.1768
       5    H3      18.149358   19.829958   22.615634 H          1 MOL1         0.0829
       6    H4      17.864341   18.070850   22.568509 H          1 MOL1         0.0829
       7    C3      19.689707   18.728111   21.404394 C.3        1 MOL1         0.1211
       8    H5      19.938401   17.692489   21.134766 H          1 MOL1         0.0786
       9    C4      20.686761   19.370782   22.415186 C.3        1 MOL1        -0.1768
      10    H6      20.651445   20.466609   22.453929 H          1 MOL1         0.0829
      11    H7      21.731355   19.055022   22.319892 H          1 MOL1         0.0829
      12    O1      19.421805   19.494263   20.252964 O.3        1 MOL1        -0.5515
      13    H8      18.670695   19.066925   19.787756 H          1 MOL1         0.3773
@<TRIPOS>BOND
    1     1     2    1
    2     1     3    1
    3     1     4    1
    4     4     5    1
    5     4     6    1
    6     4     7    1
    7     7     8    1
    8     1     9    1
    9     7     9    1
   10     9    10    1
   11     9    11    1
   12     7    12    1
   13    12    13    1
@<TRIPOS>SUBSTRUCTURE
       1 MOL1            1 RESIDUE      1      MOL     
@<SCITEGIC>MOL_PROPERTY
VConf Rank
SciTegic.value.IntegerValue
267

@<SCITEGIC>MOL_PROPERTY
Conf_Id
SciTegic.value.IntegerValue
19

@<SCITEGIC>MOL_PROPERTY
Delta U+W
SciTegic.value.DoubleValue
-0.011

@<SCITEGIC>MOL_PROPERTY
U+W
SciTegic.value.DoubleValue
-3.142

@<SCITEGIC>MOL_PROPERTY
Grad RMS
SciTegic.value.DoubleValue
0.000000

@<SCITEGIC>MOL_PROPERTY
U
SciTegic.value.DoubleValue
-0.154

@<SCITEGIC>MOL_PROPERTY
W
SciTegic.value.DoubleValue
-2.989

@<SCITEGIC>MOL_PROPERTY
W(PB)
SciTegic.value.DoubleValue
-4.588

@<SCITEGIC>MOL_PROPERTY
W(SA)
SciTegic.value.DoubleValue
1.599

@<SCITEGIC>MOL_PROPERTY
Valence
SciTegic.value.DoubleValue
6.334

@<SCITEGIC>MOL_PROPERTY
Coulomb
SciTegic.value.DoubleValue
-7.439

@<SCITEGIC>MOL_PROPERTY
VdW
SciTegic.value.DoubleValue
0.951

@<SCITEGIC>MOL_PROPERTY
VdW6
SciTegic.value.DoubleValue
-2.120

@<SCITEGIC>MOL_PROPERTY
VdW12
SciTegic.value.DoubleValue
3.072

@<SCITEGIC>MOL_PROPERTY
Bond
SciTegic.value.DoubleValue
0.065

@<SCITEGIC>MOL_PROPERTY
Angle
SciTegic.value.DoubleValue
0.930

@<SCITEGIC>MOL_PROPERTY
Pdih
SciTegic.value.DoubleValue
5.339

@<SCITEGIC>MOL_PROPERTY
Idih
SciTegic.value.DoubleValue
0.000

@<SCITEGIC>MOL_PROPERTY
Tether
SciTegic.value.DoubleValue
0.000

@<TRIPOS>MOLECULE
guest-s16_confgen4.mol2 : confsearch ligand conformer 268
          13          13           1
SMALL
USER_CHARGES
 
@<TRIPOS>ATOM
       1    C1      19.082135   18.308402   23.092160 C.3        1 MOL1        -0.1693
       2    H1      19.239629   17.606372   23.919400 H          1 MOL1         0.0829
       3    H2      18.002665   18.457030   22.958514 H          1 MOL1         0.0829
       4    C2      19.864116   18.002862   21.771508 C.3        1 MOL1        -0.1768
       5    H3      20.831000   17.506906   21.919596 H          1 MOL1         0.0829
       6    H4      19.308195   17.462830   20.997098 H          1 MOL1         0.0829
       7    C3      19.960816   19.549009   21.583077 C.3        1 MOL1         0.1211
       8    H5      20.897951   19.896485   21.129369 H          1 MOL1         0.0786
       9    C4      19.919438   19.629468   23.141252 C.3        1 MOL1        -0.1768
      10    H6      19.412369   20.504148   23.563350 H          1 MOL1         0.0829
      11    H7      20.899942   19.527759   23.622127 H          1 MOL1         0.0829
      12    O1      18.857157   20.138182   20.925082 O.3        1 MOL1        -0.5515
      13    H8      18.946273   21.110244   21.021569 H          1 MOL1         0.3773
@<TRIPOS>BOND
    1     1     2    1
    2     1     3    1
    3     1     4    1
    4     4     5    1
    5     4     6    1
    6     4     7    1
    7     7     8    1
    8     1     9    1
    9     7     9    1
   10     9    10    1
   11     9    11    1
   12     7    12    1
   13    12    13    1
@<TRIPOS>SUBSTRUCTURE
       1 MOL1            1 RESIDUE      1      MOL     
@<SCITEGIC>MOL_PROPERTY
VConf Rank
SciTegic.value.IntegerValue
268

@<SCITEGIC>MOL_PROPERTY
Conf_Id
SciTegic.value.IntegerValue
20

@<SCITEGIC>MOL_PROPERTY
Delta U+W
SciTegic.value.DoubleValue
1.030

@<SCITEGIC>MOL_PROPERTY
U+W
SciTegic.value.DoubleValue
-2.101

@<SCITEGIC>MOL_PROPERTY
Grad RMS
SciTegic.value.DoubleValue
0.000000

@<SCITEGIC>MOL_PROPERTY
U
SciTegic.value.DoubleValue
0.841

@<SCITEGIC>MOL_PROPERTY
W
SciTegic.value.DoubleValue
-2.942

@<SCITEGIC>MOL_PROPERTY
W(PB)
SciTegic.value.DoubleValue
-4.530

@<SCITEGIC>MOL_PROPERTY
W(SA)
SciTegic.value.DoubleValue
1.587

@<SCITEGIC>MOL_PROPERTY
Valence
SciTegic.value.DoubleValue
6.736

@<SCITEGIC>MOL_PROPERTY
Coulomb
SciTegic.value.DoubleValue
-7.246

@<SCITEGIC>MOL_PROPERTY
VdW
SciTegic.value.DoubleValue
1.352

@<SCITEGIC>MOL_PROPERTY
VdW6
SciTegic.value.DoubleValue
-2.500

@<SCITEGIC>MOL_PROPERTY
VdW12
SciTegic.value.DoubleValue
3.851

@<SCITEGIC>MOL_PROPERTY
Bond
SciTegic.value.DoubleValue
0.063

@<SCITEGIC>MOL_PROPERTY
Angle
SciTegic.value.DoubleValue
0.687

@<SCITEGIC>MOL_PROPERTY
Pdih
SciTegic.value.DoubleValue
5.986

@<SCITEGIC>MOL_PROPERTY
Idih
SciTegic.value.DoubleValue
0.000

@<SCITEGIC>MOL_PROPERTY
Tether
SciTegic.value.DoubleValue
0.000

@<TRIPOS>MOLECULE
guest-s16_confgen4.mol2 : confsearch ligand conformer 269
          13          13           1
SMALL
USER_CHARGES
 
@<TRIPOS>ATOM
       1    C1      19.259589   20.044661   21.749205 C.3        1 MOL1        -0.1693
       2    H1      19.140619   20.889803   22.440038 H          1 MOL1         0.0829
       3    H2      18.909983   20.352268   20.756444 H          1 MOL1         0.0829
       4    C2      18.705147   18.682001   22.281286 C.3        1 MOL1        -0.1768
       5    H3      17.829581   18.740835   22.937193 H          1 MOL1         0.0829
       6    H4      18.513197   17.931567   21.504503 H          1 MOL1         0.0829
       7    C3      20.081074   18.543130   23.000101 C.3        1 MOL1         0.1211
       8    H5      20.136016   19.073734   23.960379 H          1 MOL1         0.0786
       9    C4      20.660807   19.350843   21.799824 C.3        1 MOL1        -0.1768
      10    H6      20.905970   18.749904   20.915429 H          1 MOL1         0.0829
      11    H7      21.512387   20.000365   22.030529 H          1 MOL1         0.0829
      12    O1      20.563708   17.227334   23.132623 O.3        1 MOL1        -0.5515
      13    H8      20.490524   16.806395   22.250481 H          1 MOL1         0.3773
@<TRIPOS>BOND
    1     1     2    1
    2     1     3    1
    3     1     4    1
    4     4     5    1
    5     4     6    1
    6     4     7    1
    7     7     8    1
    8     1     9    1
    9     7     9    1
   10     9    10    1
   11     9    11    1
   12     7    12    1
   13    12    13    1
@<TRIPOS>SUBSTRUCTURE
       1 MOL1            1 RESIDUE      1      MOL     
@<SCITEGIC>MOL_PROPERTY
VConf Rank
SciTegic.value.IntegerValue
269

@<SCITEGIC>MOL_PROPERTY
Conf_Id
SciTegic.value.IntegerValue
24

@<SCITEGIC>MOL_PROPERTY
Delta U+W
SciTegic.value.DoubleValue
0.356

@<SCITEGIC>MOL_PROPERTY
U+W
SciTegic.value.DoubleValue
-2.775

@<SCITEGIC>MOL_PROPERTY
Grad RMS
SciTegic.value.DoubleValue
0.000000

@<SCITEGIC>MOL_PROPERTY
U
SciTegic.value.DoubleValue
-0.184

@<SCITEGIC>MOL_PROPERTY
W
SciTegic.value.DoubleValue
-2.591

@<SCITEGIC>MOL_PROPERTY
W(PB)
SciTegic.value.DoubleValue
-4.184

@<SCITEGIC>MOL_PROPERTY
W(SA)
SciTegic.value.DoubleValue
1.593

@<SCITEGIC>MOL_PROPERTY
Valence
SciTegic.value.DoubleValue
6.840

@<SCITEGIC>MOL_PROPERTY
Coulomb
SciTegic.value.DoubleValue
-7.916

@<SCITEGIC>MOL_PROPERTY
VdW
SciTegic.value.DoubleValue
0.893

@<SCITEGIC>MOL_PROPERTY
VdW6
SciTegic.value.DoubleValue
-2.167

@<SCITEGIC>MOL_PROPERTY
VdW12
SciTegic.value.DoubleValue
3.060

@<SCITEGIC>MOL_PROPERTY
Bond
SciTegic.value.DoubleValue
0.059

@<SCITEGIC>MOL_PROPERTY
Angle
SciTegic.value.DoubleValue
0.918

@<SCITEGIC>MOL_PROPERTY
Pdih
SciTegic.value.DoubleValue
5.862

@<SCITEGIC>MOL_PROPERTY
Idih
SciTegic.value.DoubleValue
0.000

@<SCITEGIC>MOL_PROPERTY
Tether
SciTegic.value.DoubleValue
0.000

@<TRIPOS>MOLECULE
guest-s16_confgen4.mol2 : confsearch ligand conformer 270
          13          13           1
SMALL
USER_CHARGES
 
@<TRIPOS>ATOM
       1    C1      20.808127   19.092019   22.300102 C.3        1 MOL1        -0.1693
       2    H1      21.628857   19.538412   22.874131 H          1 MOL1         0.0829
       3    H2      21.237864   18.525641   21.464137 H          1 MOL1         0.0829
       4    C2      19.641279   20.059399   21.909232 C.3        1 MOL1        -0.1768
       5    H3      19.468295   20.873108   22.624053 H          1 MOL1         0.0829
       6    H4      19.684071   20.485355   20.900550 H          1 MOL1         0.0829
       7    C3      18.689065   18.837375   22.093453 C.3        1 MOL1         0.1211
       8    H5      17.703335   19.080152   22.510446 H          1 MOL1         0.0786
       9    C4      19.730861   18.320499   23.133403 C.3        1 MOL1        -0.1768
      10    H6      19.579842   18.707855   24.148373 H          1 MOL1         0.0829
      11    H7      19.851628   17.232891   23.190259 H          1 MOL1         0.0829
      12    O1      18.541855   18.024339   20.949325 O.3        1 MOL1        -0.5515
      13    H8      19.446779   17.840926   20.622545 H          1 MOL1         0.3773
@<TRIPOS>BOND
    1     1     2    1
    2     1     3    1
    3     1     4    1
    4     4     5    1
    5     4     6    1
    6     4     7    1
    7     7     8    1
    8     1     9    1
    9     7     9    1
   10     9    10    1
   11     9    11    1
   12     7    12    1
   13    12    13    1
@<TRIPOS>SUBSTRUCTURE
       1 MOL1            1 RESIDUE      1      MOL     
@<SCITEGIC>MOL_PROPERTY
VConf Rank
SciTegic.value.IntegerValue
270

@<SCITEGIC>MOL_PROPERTY
Conf_Id
SciTegic.value.IntegerValue
44

@<SCITEGIC>MOL_PROPERTY
Delta U+W
SciTegic.value.DoubleValue
0.823

@<SCITEGIC>MOL_PROPERTY
U+W
SciTegic.value.DoubleValue
-2.308

@<SCITEGIC>MOL_PROPERTY
Grad RMS
SciTegic.value.DoubleValue
0.000000

@<SCITEGIC>MOL_PROPERTY
U
SciTegic.value.DoubleValue
0.039

@<SCITEGIC>MOL_PROPERTY
W
SciTegic.value.DoubleValue
-2.348

@<SCITEGIC>MOL_PROPERTY
W(PB)
SciTegic.value.DoubleValue
-3.918

@<SCITEGIC>MOL_PROPERTY
W(SA)
SciTegic.value.DoubleValue
1.571

@<SCITEGIC>MOL_PROPERTY
Valence
SciTegic.value.DoubleValue
7.320

@<SCITEGIC>MOL_PROPERTY
Coulomb
SciTegic.value.DoubleValue
-8.530

@<SCITEGIC>MOL_PROPERTY
VdW
SciTegic.value.DoubleValue
1.249

@<SCITEGIC>MOL_PROPERTY
VdW6
SciTegic.value.DoubleValue
-2.615

@<SCITEGIC>MOL_PROPERTY
VdW12
SciTegic.value.DoubleValue
3.864

@<SCITEGIC>MOL_PROPERTY
Bond
SciTegic.value.DoubleValue
0.056

@<SCITEGIC>MOL_PROPERTY
Angle
SciTegic.value.DoubleValue
0.694

@<SCITEGIC>MOL_PROPERTY
Pdih
SciTegic.value.DoubleValue
6.570

@<SCITEGIC>MOL_PROPERTY
Idih
SciTegic.value.DoubleValue
0.000

@<SCITEGIC>MOL_PROPERTY
Tether
SciTegic.value.DoubleValue
0.000

@<TRIPOS>MOLECULE
guest-s16_confgen4.mol2 : confsearch ligand conformer 271
          13          13           1
SMALL
USER_CHARGES
 
@<TRIPOS>ATOM
       1    C1      19.291157   20.299771   22.390686 C.3        1 MOL1        -0.1693
       2    H1      19.578748   20.734930   23.356871 H          1 MOL1         0.0829
       3    H2      18.804914   21.075843   21.787677 H          1 MOL1         0.0829
       4    C2      18.537789   18.932136   22.487215 C.3        1 MOL1        -0.1768
       5    H3      17.897868   18.793370   23.365399 H          1 MOL1         0.0829
       6    H4      17.970529   18.655343   21.589893 H          1 MOL1         0.0829
       7    C3      19.957286   18.294913   22.575661 C.3        1 MOL1         0.1211
       8    H5      20.385803   18.306860   23.587240 H          1 MOL1         0.0786
       9    C4      20.419532   19.482855   21.678824 C.3        1 MOL1        -0.1768
      10    H6      21.444573   19.833671   21.841275 H          1 MOL1         0.0829
      11    H7      20.265019   19.329199   20.603506 H          1 MOL1         0.0829
      12    O1      20.081232   17.017442   21.994928 O.3        1 MOL1        -0.5515
      13    H8      21.038275   16.801574   21.968966 H          1 MOL1         0.3773
@<TRIPOS>BOND
    1     1     2    1
    2     1     3    1
    3     1     4    1
    4     4     5    1
    5     4     6    1
    6     4     7    1
    7     7     8    1
    8     1     9    1
    9     7     9    1
   10     9    10    1
   11     9    11    1
   12     7    12    1
   13    12    13    1
@<TRIPOS>SUBSTRUCTURE
       1 MOL1            1 RESIDUE      1      MOL     
@<SCITEGIC>MOL_PROPERTY
VConf Rank
SciTegic.value.IntegerValue
271

@<SCITEGIC>MOL_PROPERTY
Conf_Id
SciTegic.value.IntegerValue
22

@<SCITEGIC>MOL_PROPERTY
Delta U+W
SciTegic.value.DoubleValue
0.000

@<SCITEGIC>MOL_PROPERTY
U+W
SciTegic.value.DoubleValue
-3.131

@<SCITEGIC>MOL_PROPERTY
Grad RMS
SciTegic.value.DoubleValue
0.000000

@<SCITEGIC>MOL_PROPERTY
U
SciTegic.value.DoubleValue
-0.154

@<SCITEGIC>MOL_PROPERTY
W
SciTegic.value.DoubleValue
-2.978

@<SCITEGIC>MOL_PROPERTY
W(PB)
SciTegic.value.DoubleValue
-4.579

@<SCITEGIC>MOL_PROPERTY
W(SA)
SciTegic.value.DoubleValue
1.601

@<SCITEGIC>MOL_PROPERTY
Valence
SciTegic.value.DoubleValue
6.333

@<SCITEGIC>MOL_PROPERTY
Coulomb
SciTegic.value.DoubleValue
-7.439

@<SCITEGIC>MOL_PROPERTY
VdW
SciTegic.value.DoubleValue
0.952

@<SCITEGIC>MOL_PROPERTY
VdW6
SciTegic.value.DoubleValue
-2.120

@<SCITEGIC>MOL_PROPERTY
VdW12
SciTegic.value.DoubleValue
3.072

@<SCITEGIC>MOL_PROPERTY
Bond
SciTegic.value.DoubleValue
0.065

@<SCITEGIC>MOL_PROPERTY
Angle
SciTegic.value.DoubleValue
0.931

@<SCITEGIC>MOL_PROPERTY
Pdih
SciTegic.value.DoubleValue
5.338

@<SCITEGIC>MOL_PROPERTY
Idih
SciTegic.value.DoubleValue
0.000

@<SCITEGIC>MOL_PROPERTY
Tether
SciTegic.value.DoubleValue
0.000

@<TRIPOS>MOLECULE
guest-s16_confgen4.mol2 : confsearch ligand conformer 272
          13          13           1
SMALL
USER_CHARGES
 
@<TRIPOS>ATOM
       1    C1      20.237683   20.088204   22.387114 C.3        1 MOL1        -0.1693
       2    H1      20.967719   20.102423   23.207132 H          1 MOL1         0.0829
       3    H2      20.189261   21.089876   21.943666 H          1 MOL1         0.0829
       4    C2      18.865190   19.427686   22.743920 C.3        1 MOL1        -0.1768
       5    H3      18.040306   19.693203   22.070972 H          1 MOL1         0.0829
       6    H4      18.527702   19.546191   23.779406 H          1 MOL1         0.0829
       7    C3      19.565987   18.076777   22.407582 C.3        1 MOL1         0.1211
       8    H5      20.159200   17.664047   23.235116 H          1 MOL1         0.0786
       9    C4      20.404047   18.899875   21.383370 C.3        1 MOL1        -0.1768
      10    H6      19.916733   19.047208   20.411566 H          1 MOL1         0.0829
      11    H7      21.427964   18.549080   21.214557 H          1 MOL1         0.0829
      12    O1      18.732676   17.088426   21.847846 O.3        1 MOL1        -0.5515
      13    H8      18.147631   16.761385   22.564762 H          1 MOL1         0.3773
@<TRIPOS>BOND
    1     1     2    1
    2     1     3    1
    3     1     4    1
    4     4     5    1
    5     4     6    1
    6     4     7    1
    7     7     8    1
    8     1     9    1
    9     7     9    1
   10     9    10    1
   11     9    11    1
   12     7    12    1
   13    12    13    1
@<TRIPOS>SUBSTRUCTURE
       1 MOL1            1 RESIDUE      1      MOL     
@<SCITEGIC>MOL_PROPERTY
VConf Rank
SciTegic.value.IntegerValue
272

@<SCITEGIC>MOL_PROPERTY
Conf_Id
SciTegic.value.IntegerValue
19

@<SCITEGIC>MOL_PROPERTY
Delta U+W
SciTegic.value.DoubleValue
-0.011

@<SCITEGIC>MOL_PROPERTY
U+W
SciTegic.value.DoubleValue
-3.142

@<SCITEGIC>MOL_PROPERTY
Grad RMS
SciTegic.value.DoubleValue
0.000000

@<SCITEGIC>MOL_PROPERTY
U
SciTegic.value.DoubleValue
-0.154

@<SCITEGIC>MOL_PROPERTY
W
SciTegic.value.DoubleValue
-2.989

@<SCITEGIC>MOL_PROPERTY
W(PB)
SciTegic.value.DoubleValue
-4.588

@<SCITEGIC>MOL_PROPERTY
W(SA)
SciTegic.value.DoubleValue
1.599

@<SCITEGIC>MOL_PROPERTY
Valence
SciTegic.value.DoubleValue
6.334

@<SCITEGIC>MOL_PROPERTY
Coulomb
SciTegic.value.DoubleValue
-7.439

@<SCITEGIC>MOL_PROPERTY
VdW
SciTegic.value.DoubleValue
0.951

@<SCITEGIC>MOL_PROPERTY
VdW6
SciTegic.value.DoubleValue
-2.120

@<SCITEGIC>MOL_PROPERTY
VdW12
SciTegic.value.DoubleValue
3.072

@<SCITEGIC>MOL_PROPERTY
Bond
SciTegic.value.DoubleValue
0.065

@<SCITEGIC>MOL_PROPERTY
Angle
SciTegic.value.DoubleValue
0.930

@<SCITEGIC>MOL_PROPERTY
Pdih
SciTegic.value.DoubleValue
5.339

@<SCITEGIC>MOL_PROPERTY
Idih
SciTegic.value.DoubleValue
0.000

@<SCITEGIC>MOL_PROPERTY
Tether
SciTegic.value.DoubleValue
0.000

@<TRIPOS>MOLECULE
guest-s16_confgen4.mol2 : confsearch ligand conformer 273
          13          13           1
SMALL
USER_CHARGES
 
@<TRIPOS>ATOM
       1    C1      18.857941   20.011396   22.252294 C.3        1 MOL1        -0.1693
       2    H1      18.694800   21.025563   21.869114 H          1 MOL1         0.0829
       3    H2      17.952118   19.685548   22.780040 H          1 MOL1         0.0829
       4    C2      20.188764   19.779687   23.042354 C.3        1 MOL1        -0.1768
       5    H3      21.027828   20.404683   22.713542 H          1 MOL1         0.0829
       6    H4      20.116315   19.836346   24.134111 H          1 MOL1         0.0829
       7    C3      20.186874   18.341508   22.436493 C.3        1 MOL1         0.1211
       8    H5      21.181924   17.945565   22.195834 H          1 MOL1         0.0786
       9    C4      19.424237   18.971539   21.229207 C.3        1 MOL1        -0.1768
      10    H6      18.685110   18.327774   20.739706 H          1 MOL1         0.0829
      11    H7      20.077819   19.401049   20.460230 H          1 MOL1         0.0829
      12    O1      19.451569   17.386140   23.174560 O.3        1 MOL1        -0.5515
      13    H8      19.376388   16.582897   22.616615 H          1 MOL1         0.3773
@<TRIPOS>BOND
    1     1     2    1
    2     1     3    1
    3     1     4    1
    4     4     5    1
    5     4     6    1
    6     4     7    1
    7     7     8    1
    8     1     9    1
    9     7     9    1
   10     9    10    1
   11     9    11    1
   12     7    12    1
   13    12    13    1
@<TRIPOS>SUBSTRUCTURE
       1 MOL1            1 RESIDUE      1      MOL     
@<SCITEGIC>MOL_PROPERTY
VConf Rank
SciTegic.value.IntegerValue
273

@<SCITEGIC>MOL_PROPERTY
Conf_Id
SciTegic.value.IntegerValue
20

@<SCITEGIC>MOL_PROPERTY
Delta U+W
SciTegic.value.DoubleValue
1.030

@<SCITEGIC>MOL_PROPERTY
U+W
SciTegic.value.DoubleValue
-2.101

@<SCITEGIC>MOL_PROPERTY
Grad RMS
SciTegic.value.DoubleValue
0.000000

@<SCITEGIC>MOL_PROPERTY
U
SciTegic.value.DoubleValue
0.841

@<SCITEGIC>MOL_PROPERTY
W
SciTegic.value.DoubleValue
-2.942

@<SCITEGIC>MOL_PROPERTY
W(PB)
SciTegic.value.DoubleValue
-4.530

@<SCITEGIC>MOL_PROPERTY
W(SA)
SciTegic.value.DoubleValue
1.587

@<SCITEGIC>MOL_PROPERTY
Valence
SciTegic.value.DoubleValue
6.736

@<SCITEGIC>MOL_PROPERTY
Coulomb
SciTegic.value.DoubleValue
-7.246

@<SCITEGIC>MOL_PROPERTY
VdW
SciTegic.value.DoubleValue
1.352

@<SCITEGIC>MOL_PROPERTY
VdW6
SciTegic.value.DoubleValue
-2.500

@<SCITEGIC>MOL_PROPERTY
VdW12
SciTegic.value.DoubleValue
3.851

@<SCITEGIC>MOL_PROPERTY
Bond
SciTegic.value.DoubleValue
0.063

@<SCITEGIC>MOL_PROPERTY
Angle
SciTegic.value.DoubleValue
0.687

@<SCITEGIC>MOL_PROPERTY
Pdih
SciTegic.value.DoubleValue
5.986

@<SCITEGIC>MOL_PROPERTY
Idih
SciTegic.value.DoubleValue
0.000

@<SCITEGIC>MOL_PROPERTY
Tether
SciTegic.value.DoubleValue
0.000

@<TRIPOS>MOLECULE
guest-s16_confgen4.mol2 : confsearch ligand conformer 274
          13          13           1
SMALL
USER_CHARGES
 
@<TRIPOS>ATOM
       1    C1      18.511948   18.623009   22.305992 C.3        1 MOL1        -0.1693
       2    H1      17.858928   18.820271   21.445572 H          1 MOL1         0.0829
       3    H2      17.914705   18.157642   23.099186 H          1 MOL1         0.0829
       4    C2      19.406688   19.831199   22.738511 C.3        1 MOL1        -0.1768
       5    H3      18.977129   20.827676   22.587499 H          1 MOL1         0.0829
       6    H4      19.797651   19.767820   23.761506 H          1 MOL1         0.0829
       7    C3      20.388339   19.342491   21.630955 C.3        1 MOL1         0.1211
       8    H5      20.130527   19.693666   20.622540 H          1 MOL1         0.0786
       9    C4      19.860381   17.912136   21.954217 C.3        1 MOL1        -0.1768
      10    H6      20.352750   17.419821   22.801913 H          1 MOL1         0.0829
      11    H7      19.831504   17.213788   21.110554 H          1 MOL1         0.0829
      12    O1      21.754143   19.556941   21.896302 O.3        1 MOL1        -0.5515
      13    H8      21.923910   19.226376   22.803289 H          1 MOL1         0.3773
@<TRIPOS>BOND
    1     1     2    1
    2     1     3    1
    3     1     4    1
    4     4     5    1
    5     4     6    1
    6     4     7    1
    7     7     8    1
    8     1     9    1
    9     7     9    1
   10     9    10    1
   11     9    11    1
   12     7    12    1
   13    12    13    1
@<TRIPOS>SUBSTRUCTURE
       1 MOL1            1 RESIDUE      1      MOL     
@<SCITEGIC>MOL_PROPERTY
VConf Rank
SciTegic.value.IntegerValue
274

@<SCITEGIC>MOL_PROPERTY
Conf_Id
SciTegic.value.IntegerValue
24

@<SCITEGIC>MOL_PROPERTY
Delta U+W
SciTegic.value.DoubleValue
0.356

@<SCITEGIC>MOL_PROPERTY
U+W
SciTegic.value.DoubleValue
-2.775

@<SCITEGIC>MOL_PROPERTY
Grad RMS
SciTegic.value.DoubleValue
0.000000

@<SCITEGIC>MOL_PROPERTY
U
SciTegic.value.DoubleValue
-0.184

@<SCITEGIC>MOL_PROPERTY
W
SciTegic.value.DoubleValue
-2.591

@<SCITEGIC>MOL_PROPERTY
W(PB)
SciTegic.value.DoubleValue
-4.184

@<SCITEGIC>MOL_PROPERTY
W(SA)
SciTegic.value.DoubleValue
1.593

@<SCITEGIC>MOL_PROPERTY
Valence
SciTegic.value.DoubleValue
6.840

@<SCITEGIC>MOL_PROPERTY
Coulomb
SciTegic.value.DoubleValue
-7.916

@<SCITEGIC>MOL_PROPERTY
VdW
SciTegic.value.DoubleValue
0.893

@<SCITEGIC>MOL_PROPERTY
VdW6
SciTegic.value.DoubleValue
-2.167

@<SCITEGIC>MOL_PROPERTY
VdW12
SciTegic.value.DoubleValue
3.060

@<SCITEGIC>MOL_PROPERTY
Bond
SciTegic.value.DoubleValue
0.059

@<SCITEGIC>MOL_PROPERTY
Angle
SciTegic.value.DoubleValue
0.918

@<SCITEGIC>MOL_PROPERTY
Pdih
SciTegic.value.DoubleValue
5.862

@<SCITEGIC>MOL_PROPERTY
Idih
SciTegic.value.DoubleValue
0.000

@<SCITEGIC>MOL_PROPERTY
Tether
SciTegic.value.DoubleValue
0.000

@<TRIPOS>MOLECULE
guest-s16_confgen4.mol2 : confsearch ligand conformer 275
          13          13           1
SMALL
USER_CHARGES
 
@<TRIPOS>ATOM
       1    C1      19.241195   18.927507   21.179751 C.3        1 MOL1        -0.1693
       2    H1      18.881781   19.507155   20.321145 H          1 MOL1         0.0829
       3    H2      19.112749   17.860862   20.955997 H          1 MOL1         0.0829
       4    C2      18.705149   19.375667   22.580445 C.3        1 MOL1        -0.1768
       5    H3      18.485733   20.447353   22.660195 H          1 MOL1         0.0829
       6    H4      17.849109   18.814960   22.972253 H          1 MOL1         0.0829
       7    C3      20.102128   18.968526   23.143187 C.3        1 MOL1         0.1211
       8    H5      20.475639   19.606201   23.954573 H          1 MOL1         0.0786
       9    C4      20.654220   19.319989   21.726973 C.3        1 MOL1        -0.1768
      10    H6      20.912687   20.378024   21.597464 H          1 MOL1         0.0829
      11    H7      21.494681   18.710822   21.375905 H          1 MOL1         0.0829
      12    O1      20.221319   17.609375   23.504060 O.3        1 MOL1        -0.5515
      13    H8      19.875467   17.091531   22.748059 H          1 MOL1         0.3773
@<TRIPOS>BOND
    1     1     2    1
    2     1     3    1
    3     1     4    1
    4     4     5    1
    5     4     6    1
    6     4     7    1
    7     7     8    1
    8     1     9    1
    9     7     9    1
   10     9    10    1
   11     9    11    1
   12     7    12    1
   13    12    13    1
@<TRIPOS>SUBSTRUCTURE
       1 MOL1            1 RESIDUE      1      MOL     
@<SCITEGIC>MOL_PROPERTY
VConf Rank
SciTegic.value.IntegerValue
275

@<SCITEGIC>MOL_PROPERTY
Conf_Id
SciTegic.value.IntegerValue
44

@<SCITEGIC>MOL_PROPERTY
Delta U+W
SciTegic.value.DoubleValue
0.823

@<SCITEGIC>MOL_PROPERTY
U+W
SciTegic.value.DoubleValue
-2.308

@<SCITEGIC>MOL_PROPERTY
Grad RMS
SciTegic.value.DoubleValue
0.000000

@<SCITEGIC>MOL_PROPERTY
U
SciTegic.value.DoubleValue
0.039

@<SCITEGIC>MOL_PROPERTY
W
SciTegic.value.DoubleValue
-2.348

@<SCITEGIC>MOL_PROPERTY
W(PB)
SciTegic.value.DoubleValue
-3.918

@<SCITEGIC>MOL_PROPERTY
W(SA)
SciTegic.value.DoubleValue
1.571

@<SCITEGIC>MOL_PROPERTY
Valence
SciTegic.value.DoubleValue
7.320

@<SCITEGIC>MOL_PROPERTY
Coulomb
SciTegic.value.DoubleValue
-8.530

@<SCITEGIC>MOL_PROPERTY
VdW
SciTegic.value.DoubleValue
1.249

@<SCITEGIC>MOL_PROPERTY
VdW6
SciTegic.value.DoubleValue
-2.615

@<SCITEGIC>MOL_PROPERTY
VdW12
SciTegic.value.DoubleValue
3.864

@<SCITEGIC>MOL_PROPERTY
Bond
SciTegic.value.DoubleValue
0.056

@<SCITEGIC>MOL_PROPERTY
Angle
SciTegic.value.DoubleValue
0.694

@<SCITEGIC>MOL_PROPERTY
Pdih
SciTegic.value.DoubleValue
6.570

@<SCITEGIC>MOL_PROPERTY
Idih
SciTegic.value.DoubleValue
0.000

@<SCITEGIC>MOL_PROPERTY
Tether
SciTegic.value.DoubleValue
0.000

@<TRIPOS>MOLECULE
guest-s16_confgen4.mol2 : confsearch ligand conformer 276
          13          13           1
SMALL
USER_CHARGES
 
@<TRIPOS>ATOM
       1    C1      20.319680   20.172787   22.445513 C.3        1 MOL1        -0.1693
       2    H1      21.304548   20.198691   21.960797 H          1 MOL1         0.0829
       3    H2      20.139232   21.142530   22.924444 H          1 MOL1         0.0829
       4    C2      20.059363   18.910015   23.331487 C.3        1 MOL1        -0.1768
       5    H3      20.933210   18.486141   23.838126 H          1 MOL1         0.0829
       6    H4      19.247210   19.019565   24.060864 H          1 MOL1         0.0829
       7    C3      19.642819   18.212672   22.001430 C.3        1 MOL1         0.1211
       8    H5      20.490549   17.822416   21.421674 H          1 MOL1         0.0786
       9    C4      19.162268   19.624088   21.547373 C.3        1 MOL1        -0.1768
      10    H6      19.242766   19.834337   20.475232 H          1 MOL1         0.0829
      11    H7      18.153560   19.892687   21.885245 H          1 MOL1         0.0829
      12    O1      18.629918   17.241098   22.122346 O.3        1 MOL1        -0.5515
      13    H8      18.347605   17.000880   21.213612 H          1 MOL1         0.3773
@<TRIPOS>BOND
    1     1     2    1
    2     1     3    1
    3     1     4    1
    4     4     5    1
    5     4     6    1
    6     4     7    1
    7     7     8    1
    8     1     9    1
    9     7     9    1
   10     9    10    1
   11     9    11    1
   12     7    12    1
   13    12    13    1
@<TRIPOS>SUBSTRUCTURE
       1 MOL1            1 RESIDUE      1      MOL     
@<SCITEGIC>MOL_PROPERTY
VConf Rank
SciTegic.value.IntegerValue
276

@<SCITEGIC>MOL_PROPERTY
Conf_Id
SciTegic.value.IntegerValue
22

@<SCITEGIC>MOL_PROPERTY
Delta U+W
SciTegic.value.DoubleValue
0.000

@<SCITEGIC>MOL_PROPERTY
U+W
SciTegic.value.DoubleValue
-3.131

@<SCITEGIC>MOL_PROPERTY
Grad RMS
SciTegic.value.DoubleValue
0.000000

@<SCITEGIC>MOL_PROPERTY
U
SciTegic.value.DoubleValue
-0.154

@<SCITEGIC>MOL_PROPERTY
W
SciTegic.value.DoubleValue
-2.978

@<SCITEGIC>MOL_PROPERTY
W(PB)
SciTegic.value.DoubleValue
-4.579

@<SCITEGIC>MOL_PROPERTY
W(SA)
SciTegic.value.DoubleValue
1.601

@<SCITEGIC>MOL_PROPERTY
Valence
SciTegic.value.DoubleValue
6.333

@<SCITEGIC>MOL_PROPERTY
Coulomb
SciTegic.value.DoubleValue
-7.439

@<SCITEGIC>MOL_PROPERTY
VdW
SciTegic.value.DoubleValue
0.952

@<SCITEGIC>MOL_PROPERTY
VdW6
SciTegic.value.DoubleValue
-2.120

@<SCITEGIC>MOL_PROPERTY
VdW12
SciTegic.value.DoubleValue
3.072

@<SCITEGIC>MOL_PROPERTY
Bond
SciTegic.value.DoubleValue
0.065

@<SCITEGIC>MOL_PROPERTY
Angle
SciTegic.value.DoubleValue
0.931

@<SCITEGIC>MOL_PROPERTY
Pdih
SciTegic.value.DoubleValue
5.338

@<SCITEGIC>MOL_PROPERTY
Idih
SciTegic.value.DoubleValue
0.000

@<SCITEGIC>MOL_PROPERTY
Tether
SciTegic.value.DoubleValue
0.000

@<TRIPOS>MOLECULE
guest-s16_confgen4.mol2 : confsearch ligand conformer 277
          13          13           1
SMALL
USER_CHARGES
 
@<TRIPOS>ATOM
       1    C1      18.961248   18.741872   21.122937 C.3        1 MOL1        -0.1693
       2    H1      19.483681   19.124453   20.236212 H          1 MOL1         0.0829
       3    H2      17.984308   18.352111   20.813078 H          1 MOL1         0.0829
       4    C2      18.955980   19.712981   22.349415 C.3        1 MOL1        -0.1768
       5    H3      18.184752   19.498962   23.099880 H          1 MOL1         0.0829
       6    H4      18.934481   20.783335   22.116920 H          1 MOL1         0.0829
       7    C3      20.358556   19.115702   22.673812 C.3        1 MOL1         0.1211
       8    H5      21.181037   19.577744   22.110692 H          1 MOL1         0.0786
       9    C4      19.818796   17.801674   22.032851 C.3        1 MOL1        -0.1768
      10    H6      19.238788   17.168079   22.715298 H          1 MOL1         0.0829
      11    H7      20.562472   17.180604   21.521794 H          1 MOL1         0.0829
      12    O1      20.675627   19.031474   24.043820 O.3        1 MOL1        -0.5515
      13    H8      20.842374   19.945389   24.360299 H          1 MOL1         0.3773
@<TRIPOS>BOND
    1     1     2    1
    2     1     3    1
    3     1     4    1
    4     4     5    1
    5     4     6    1
    6     4     7    1
    7     7     8    1
    8     1     9    1
    9     7     9    1
   10     9    10    1
   11     9    11    1
   12     7    12    1
   13    12    13    1
@<TRIPOS>SUBSTRUCTURE
       1 MOL1            1 RESIDUE      1      MOL     
@<SCITEGIC>MOL_PROPERTY
VConf Rank
SciTegic.value.IntegerValue
277

@<SCITEGIC>MOL_PROPERTY
Conf_Id
SciTegic.value.IntegerValue
19

@<SCITEGIC>MOL_PROPERTY
Delta U+W
SciTegic.value.DoubleValue
-0.011

@<SCITEGIC>MOL_PROPERTY
U+W
SciTegic.value.DoubleValue
-3.142

@<SCITEGIC>MOL_PROPERTY
Grad RMS
SciTegic.value.DoubleValue
0.000000

@<SCITEGIC>MOL_PROPERTY
U
SciTegic.value.DoubleValue
-0.154

@<SCITEGIC>MOL_PROPERTY
W
SciTegic.value.DoubleValue
-2.989

@<SCITEGIC>MOL_PROPERTY
W(PB)
SciTegic.value.DoubleValue
-4.588

@<SCITEGIC>MOL_PROPERTY
W(SA)
SciTegic.value.DoubleValue
1.599

@<SCITEGIC>MOL_PROPERTY
Valence
SciTegic.value.DoubleValue
6.334

@<SCITEGIC>MOL_PROPERTY
Coulomb
SciTegic.value.DoubleValue
-7.439

@<SCITEGIC>MOL_PROPERTY
VdW
SciTegic.value.DoubleValue
0.951

@<SCITEGIC>MOL_PROPERTY
VdW6
SciTegic.value.DoubleValue
-2.120

@<SCITEGIC>MOL_PROPERTY
VdW12
SciTegic.value.DoubleValue
3.072

@<SCITEGIC>MOL_PROPERTY
Bond
SciTegic.value.DoubleValue
0.065

@<SCITEGIC>MOL_PROPERTY
Angle
SciTegic.value.DoubleValue
0.930

@<SCITEGIC>MOL_PROPERTY
Pdih
SciTegic.value.DoubleValue
5.339

@<SCITEGIC>MOL_PROPERTY
Idih
SciTegic.value.DoubleValue
0.000

@<SCITEGIC>MOL_PROPERTY
Tether
SciTegic.value.DoubleValue
0.000

@<TRIPOS>MOLECULE
guest-s16_confgen4.mol2 : confsearch ligand conformer 278
          13          13           1
SMALL
USER_CHARGES
 
@<TRIPOS>ATOM
       1    C1      19.808934   17.841774   22.412083 C.3        1 MOL1        -0.1693
       2    H1      19.652800   16.975791   23.066051 H          1 MOL1         0.0829
       3    H2      20.251107   17.494471   21.469178 H          1 MOL1         0.0829
       4    C2      20.534806   19.069258   23.056570 C.3        1 MOL1        -0.1768
       5    H3      20.351146   19.194056   24.130563 H          1 MOL1         0.0829
       6    H4      21.612877   19.140660   22.874752 H          1 MOL1         0.0829
       7    C3      19.633228   19.959988   22.145974 C.3        1 MOL1         0.1211
       8    H5      19.316125   20.906518   22.602416 H          1 MOL1         0.0786
       9    C4      18.587626   18.805160   22.241803 C.3        1 MOL1        -0.1768
      10    H6      17.968489   18.643311   21.352519 H          1 MOL1         0.0829
      11    H7      17.931414   18.865449   23.118572 H          1 MOL1         0.0829
      12    O1      20.145661   20.195685   20.849825 O.3        1 MOL1        -0.5515
      13    H8      19.427474   20.607576   20.323795 H          1 MOL1         0.3773
@<TRIPOS>BOND
    1     1     2    1
    2     1     3    1
    3     1     4    1
    4     4     5    1
    5     4     6    1
    6     4     7    1
    7     7     8    1
    8     1     9    1
    9     7     9    1
   10     9    10    1
   11     9    11    1
   12     7    12    1
   13    12    13    1
@<TRIPOS>SUBSTRUCTURE
       1 MOL1            1 RESIDUE      1      MOL     
@<SCITEGIC>MOL_PROPERTY
VConf Rank
SciTegic.value.IntegerValue
278

@<SCITEGIC>MOL_PROPERTY
Conf_Id
SciTegic.value.IntegerValue
20

@<SCITEGIC>MOL_PROPERTY
Delta U+W
SciTegic.value.DoubleValue
1.030

@<SCITEGIC>MOL_PROPERTY
U+W
SciTegic.value.DoubleValue
-2.101

@<SCITEGIC>MOL_PROPERTY
Grad RMS
SciTegic.value.DoubleValue
0.000000

@<SCITEGIC>MOL_PROPERTY
U
SciTegic.value.DoubleValue
0.841

@<SCITEGIC>MOL_PROPERTY
W
SciTegic.value.DoubleValue
-2.942

@<SCITEGIC>MOL_PROPERTY
W(PB)
SciTegic.value.DoubleValue
-4.530

@<SCITEGIC>MOL_PROPERTY
W(SA)
SciTegic.value.DoubleValue
1.587

@<SCITEGIC>MOL_PROPERTY
Valence
SciTegic.value.DoubleValue
6.736

@<SCITEGIC>MOL_PROPERTY
Coulomb
SciTegic.value.DoubleValue
-7.246

@<SCITEGIC>MOL_PROPERTY
VdW
SciTegic.value.DoubleValue
1.352

@<SCITEGIC>MOL_PROPERTY
VdW6
SciTegic.value.DoubleValue
-2.500

@<SCITEGIC>MOL_PROPERTY
VdW12
SciTegic.value.DoubleValue
3.851

@<SCITEGIC>MOL_PROPERTY
Bond
SciTegic.value.DoubleValue
0.063

@<SCITEGIC>MOL_PROPERTY
Angle
SciTegic.value.DoubleValue
0.687

@<SCITEGIC>MOL_PROPERTY
Pdih
SciTegic.value.DoubleValue
5.986

@<SCITEGIC>MOL_PROPERTY
Idih
SciTegic.value.DoubleValue
0.000

@<SCITEGIC>MOL_PROPERTY
Tether
SciTegic.value.DoubleValue
0.000

@<TRIPOS>MOLECULE
guest-s16_confgen4.mol2 : confsearch ligand conformer 279
          13          13           1
SMALL
USER_CHARGES
 
@<TRIPOS>ATOM
       1    C1      20.900479   19.500656   22.101475 C.3        1 MOL1        -0.1693
       2    H1      20.961251   20.594435   22.176471 H          1 MOL1         0.0829
       3    H2      21.909829   19.104446   21.938223 H          1 MOL1         0.0829
       4    C2      19.790042   18.972121   21.134553 C.3        1 MOL1        -0.1768
       5    H3      19.571236   19.598999   20.263094 H          1 MOL1         0.0829
       6    H4      19.931316   17.937796   20.797505 H          1 MOL1         0.0829
       7    C3      18.826087   19.139537   22.347779 C.3        1 MOL1         0.1211
       8    H5      18.446439   20.162399   22.475510 H          1 MOL1         0.0786
       9    C4      20.066876   18.812878   23.232591 C.3        1 MOL1        -0.1768
      10    H6      20.270026   17.742960   23.364480 H          1 MOL1         0.0829
      11    H7      20.092555   19.299118   24.214020 H          1 MOL1         0.0829
      12    O1      17.772906   18.207888   22.416034 O.3        1 MOL1        -0.5515
      13    H8      18.169562   17.319605   22.296299 H          1 MOL1         0.3773
@<TRIPOS>BOND
    1     1     2    1
    2     1     3    1
    3     1     4    1
    4     4     5    1
    5     4     6    1
    6     4     7    1
    7     7     8    1
    8     1     9    1
    9     7     9    1
   10     9    10    1
   11     9    11    1
   12     7    12    1
   13    12    13    1
@<TRIPOS>SUBSTRUCTURE
       1 MOL1            1 RESIDUE      1      MOL     
@<SCITEGIC>MOL_PROPERTY
VConf Rank
SciTegic.value.IntegerValue
279

@<SCITEGIC>MOL_PROPERTY
Conf_Id
SciTegic.value.IntegerValue
24

@<SCITEGIC>MOL_PROPERTY
Delta U+W
SciTegic.value.DoubleValue
0.356

@<SCITEGIC>MOL_PROPERTY
U+W
SciTegic.value.DoubleValue
-2.775

@<SCITEGIC>MOL_PROPERTY
Grad RMS
SciTegic.value.DoubleValue
0.000000

@<SCITEGIC>MOL_PROPERTY
U
SciTegic.value.DoubleValue
-0.184

@<SCITEGIC>MOL_PROPERTY
W
SciTegic.value.DoubleValue
-2.591

@<SCITEGIC>MOL_PROPERTY
W(PB)
SciTegic.value.DoubleValue
-4.184

@<SCITEGIC>MOL_PROPERTY
W(SA)
SciTegic.value.DoubleValue
1.593

@<SCITEGIC>MOL_PROPERTY
Valence
SciTegic.value.DoubleValue
6.840

@<SCITEGIC>MOL_PROPERTY
Coulomb
SciTegic.value.DoubleValue
-7.916

@<SCITEGIC>MOL_PROPERTY
VdW
SciTegic.value.DoubleValue
0.893

@<SCITEGIC>MOL_PROPERTY
VdW6
SciTegic.value.DoubleValue
-2.167

@<SCITEGIC>MOL_PROPERTY
VdW12
SciTegic.value.DoubleValue
3.060

@<SCITEGIC>MOL_PROPERTY
Bond
SciTegic.value.DoubleValue
0.059

@<SCITEGIC>MOL_PROPERTY
Angle
SciTegic.value.DoubleValue
0.918

@<SCITEGIC>MOL_PROPERTY
Pdih
SciTegic.value.DoubleValue
5.862

@<SCITEGIC>MOL_PROPERTY
Idih
SciTegic.value.DoubleValue
0.000

@<SCITEGIC>MOL_PROPERTY
Tether
SciTegic.value.DoubleValue
0.000

@<TRIPOS>MOLECULE
guest-s16_confgen4.mol2 : confsearch ligand conformer 280
          13          13           1
SMALL
USER_CHARGES
 
@<TRIPOS>ATOM
       1    C1      19.792817   18.979817   23.329950 C.3        1 MOL1        -0.1693
       2    H1      20.153652   19.533866   24.204708 H          1 MOL1         0.0829
       3    H2      19.337401   18.043438   23.676484 H          1 MOL1         0.0829
       4    C2      20.812295   18.820091   22.152968 C.3        1 MOL1        -0.1768
       5    H3      21.526729   19.646731   22.056708 H          1 MOL1         0.0829
       6    H4      21.366329   17.875336   22.118417 H          1 MOL1         0.0829
       7    C3      19.584275   18.925703   21.196513 C.3        1 MOL1         0.1211
       8    H5      19.778175   19.454261   20.254433 H          1 MOL1         0.0786
       9    C4      18.927394   19.795847   22.312466 C.3        1 MOL1        -0.1768
      10    H6      19.179678   20.861728   22.255314 H          1 MOL1         0.0829
      11    H7      17.840782   19.700407   22.416747 H          1 MOL1         0.0829
      12    O1      18.929276   17.702754   20.937475 O.3        1 MOL1        -0.5515
      13    H8      18.783054   17.277991   21.807825 H          1 MOL1         0.3773
@<TRIPOS>BOND
    1     1     2    1
    2     1     3    1
    3     1     4    1
    4     4     5    1
    5     4     6    1
    6     4     7    1
    7     7     8    1
    8     1     9    1
    9     7     9    1
   10     9    10    1
   11     9    11    1
   12     7    12    1
   13    12    13    1
@<TRIPOS>SUBSTRUCTURE
       1 MOL1            1 RESIDUE      1      MOL     
@<SCITEGIC>MOL_PROPERTY
VConf Rank
SciTegic.value.IntegerValue
280

@<SCITEGIC>MOL_PROPERTY
Conf_Id
SciTegic.value.IntegerValue
44

@<SCITEGIC>MOL_PROPERTY
Delta U+W
SciTegic.value.DoubleValue
0.823

@<SCITEGIC>MOL_PROPERTY
U+W
SciTegic.value.DoubleValue
-2.308

@<SCITEGIC>MOL_PROPERTY
Grad RMS
SciTegic.value.DoubleValue
0.000000

@<SCITEGIC>MOL_PROPERTY
U
SciTegic.value.DoubleValue
0.039

@<SCITEGIC>MOL_PROPERTY
W
SciTegic.value.DoubleValue
-2.348

@<SCITEGIC>MOL_PROPERTY
W(PB)
SciTegic.value.DoubleValue
-3.918

@<SCITEGIC>MOL_PROPERTY
W(SA)
SciTegic.value.DoubleValue
1.571

@<SCITEGIC>MOL_PROPERTY
Valence
SciTegic.value.DoubleValue
7.320

@<SCITEGIC>MOL_PROPERTY
Coulomb
SciTegic.value.DoubleValue
-8.530

@<SCITEGIC>MOL_PROPERTY
VdW
SciTegic.value.DoubleValue
1.249

@<SCITEGIC>MOL_PROPERTY
VdW6
SciTegic.value.DoubleValue
-2.615

@<SCITEGIC>MOL_PROPERTY
VdW12
SciTegic.value.DoubleValue
3.864

@<SCITEGIC>MOL_PROPERTY
Bond
SciTegic.value.DoubleValue
0.056

@<SCITEGIC>MOL_PROPERTY
Angle
SciTegic.value.DoubleValue
0.694

@<SCITEGIC>MOL_PROPERTY
Pdih
SciTegic.value.DoubleValue
6.570

@<SCITEGIC>MOL_PROPERTY
Idih
SciTegic.value.DoubleValue
0.000

@<SCITEGIC>MOL_PROPERTY
Tether
SciTegic.value.DoubleValue
0.000

@<TRIPOS>MOLECULE
guest-s16_confgen4.mol2 : confsearch ligand conformer 281
          13          13           1
SMALL
USER_CHARGES
 
@<TRIPOS>ATOM
       1    C1      20.709439   18.921596   21.448200 C.3        1 MOL1        -0.1693
       2    H1      21.669179   19.098995   21.951205 H          1 MOL1         0.0829
       3    H2      20.906459   18.637147   20.407714 H          1 MOL1         0.0829
       4    C2      19.640756   20.043676   21.663046 C.3        1 MOL1        -0.1768
       5    H3      20.025347   21.063737   21.770404 H          1 MOL1         0.0829
       6    H4      18.825854   20.049222   20.928546 H          1 MOL1         0.0829
       7    C3      19.306575   19.302088   22.992414 C.3        1 MOL1         0.1211
       8    H5      19.974126   19.563205   23.825034 H          1 MOL1         0.0786
       9    C4      19.717629   18.003078   22.235578 C.3        1 MOL1        -0.1768
      10    H6      20.171754   17.216479   22.848118 H          1 MOL1         0.0829
      11    H7      18.921000   17.559756   21.625135 H          1 MOL1         0.0829
      12    O1      17.957778   19.364407   23.394173 O.3        1 MOL1        -0.5515
      13    H8      17.846830   18.734519   24.138575 H          1 MOL1         0.3773
@<TRIPOS>BOND
    1     1     2    1
    2     1     3    1
    3     1     4    1
    4     4     5    1
    5     4     6    1
    6     4     7    1
    7     7     8    1
    8     1     9    1
    9     7     9    1
   10     9    10    1
   11     9    11    1
   12     7    12    1
   13    12    13    1
@<TRIPOS>SUBSTRUCTURE
       1 MOL1            1 RESIDUE      1      MOL     
@<SCITEGIC>MOL_PROPERTY
VConf Rank
SciTegic.value.IntegerValue
281

@<SCITEGIC>MOL_PROPERTY
Conf_Id
SciTegic.value.IntegerValue
22

@<SCITEGIC>MOL_PROPERTY
Delta U+W
SciTegic.value.DoubleValue
0.000

@<SCITEGIC>MOL_PROPERTY
U+W
SciTegic.value.DoubleValue
-3.131

@<SCITEGIC>MOL_PROPERTY
Grad RMS
SciTegic.value.DoubleValue
0.000000

@<SCITEGIC>MOL_PROPERTY
U
SciTegic.value.DoubleValue
-0.154

@<SCITEGIC>MOL_PROPERTY
W
SciTegic.value.DoubleValue
-2.978

@<SCITEGIC>MOL_PROPERTY
W(PB)
SciTegic.value.DoubleValue
-4.579

@<SCITEGIC>MOL_PROPERTY
W(SA)
SciTegic.value.DoubleValue
1.601

@<SCITEGIC>MOL_PROPERTY
Valence
SciTegic.value.DoubleValue
6.333

@<SCITEGIC>MOL_PROPERTY
Coulomb
SciTegic.value.DoubleValue
-7.439

@<SCITEGIC>MOL_PROPERTY
VdW
SciTegic.value.DoubleValue
0.952

@<SCITEGIC>MOL_PROPERTY
VdW6
SciTegic.value.DoubleValue
-2.120

@<SCITEGIC>MOL_PROPERTY
VdW12
SciTegic.value.DoubleValue
3.072

@<SCITEGIC>MOL_PROPERTY
Bond
SciTegic.value.DoubleValue
0.065

@<SCITEGIC>MOL_PROPERTY
Angle
SciTegic.value.DoubleValue
0.931

@<SCITEGIC>MOL_PROPERTY
Pdih
SciTegic.value.DoubleValue
5.338

@<SCITEGIC>MOL_PROPERTY
Idih
SciTegic.value.DoubleValue
0.000

@<SCITEGIC>MOL_PROPERTY
Tether
SciTegic.value.DoubleValue
0.000

@<TRIPOS>MOLECULE
guest-s16_confgen4.mol2 : confsearch ligand conformer 282
          13          13           1
SMALL
USER_CHARGES
 
@<TRIPOS>ATOM
       1    C1      18.697048   18.341344   22.974314 C.3        1 MOL1        -0.1693
       2    H1      17.852459   17.964702   22.382371 H          1 MOL1         0.0829
       3    H2      18.489002   18.161213   24.035732 H          1 MOL1         0.0829
       4    C2      19.164729   19.786895   22.601509 C.3        1 MOL1        -0.1768
       5    H3      19.762256   20.288329   23.373079 H          1 MOL1         0.0829
       6    H4      18.382670   20.473551   22.259367 H          1 MOL1         0.0829
       7    C3      20.000838   19.096522   21.481911 C.3        1 MOL1         0.1211
       8    H5      19.428965   18.876005   20.570102 H          1 MOL1         0.0786
       9    C4      20.105866   17.891315   22.464403 C.3        1 MOL1        -0.1768
      10    H6      20.911513   17.976928   23.204125 H          1 MOL1         0.0829
      11    H7      20.158246   16.900887   21.999354 H          1 MOL1         0.0829
      12    O1      21.221671   19.724974   21.167005 O.3        1 MOL1        -0.5515
      13    H8      21.006835   20.551715   20.683737 H          1 MOL1         0.3773
@<TRIPOS>BOND
    1     1     2    1
    2     1     3    1
    3     1     4    1
    4     4     5    1
    5     4     6    1
    6     4     7    1
    7     7     8    1
    8     1     9    1
    9     7     9    1
   10     9    10    1
   11     9    11    1
   12     7    12    1
   13    12    13    1
@<TRIPOS>SUBSTRUCTURE
       1 MOL1            1 RESIDUE      1      MOL     
@<SCITEGIC>MOL_PROPERTY
VConf Rank
SciTegic.value.IntegerValue
282

@<SCITEGIC>MOL_PROPERTY
Conf_Id
SciTegic.value.IntegerValue
19

@<SCITEGIC>MOL_PROPERTY
Delta U+W
SciTegic.value.DoubleValue
-0.011

@<SCITEGIC>MOL_PROPERTY
U+W
SciTegic.value.DoubleValue
-3.142

@<SCITEGIC>MOL_PROPERTY
Grad RMS
SciTegic.value.DoubleValue
0.000000

@<SCITEGIC>MOL_PROPERTY
U
SciTegic.value.DoubleValue
-0.154

@<SCITEGIC>MOL_PROPERTY
W
SciTegic.value.DoubleValue
-2.989

@<SCITEGIC>MOL_PROPERTY
W(PB)
SciTegic.value.DoubleValue
-4.588

@<SCITEGIC>MOL_PROPERTY
W(SA)
SciTegic.value.DoubleValue
1.599

@<SCITEGIC>MOL_PROPERTY
Valence
SciTegic.value.DoubleValue
6.334

@<SCITEGIC>MOL_PROPERTY
Coulomb
SciTegic.value.DoubleValue
-7.439

@<SCITEGIC>MOL_PROPERTY
VdW
SciTegic.value.DoubleValue
0.951

@<SCITEGIC>MOL_PROPERTY
VdW6
SciTegic.value.DoubleValue
-2.120

@<SCITEGIC>MOL_PROPERTY
VdW12
SciTegic.value.DoubleValue
3.072

@<SCITEGIC>MOL_PROPERTY
Bond
SciTegic.value.DoubleValue
0.065

@<SCITEGIC>MOL_PROPERTY
Angle
SciTegic.value.DoubleValue
0.930

@<SCITEGIC>MOL_PROPERTY
Pdih
SciTegic.value.DoubleValue
5.339

@<SCITEGIC>MOL_PROPERTY
Idih
SciTegic.value.DoubleValue
0.000

@<SCITEGIC>MOL_PROPERTY
Tether
SciTegic.value.DoubleValue
0.000

@<TRIPOS>MOLECULE
guest-s16_confgen4.mol2 : confsearch ligand conformer 283
          13          13           1
SMALL
USER_CHARGES
 
@<TRIPOS>ATOM
       1    C1      20.517586   19.864039   22.001678 C.3        1 MOL1        -0.1693
       2    H1      21.422632   20.038996   21.408164 H          1 MOL1         0.0829
       3    H2      20.251782   20.794963   22.519301 H          1 MOL1         0.0829
       4    C2      20.528111   18.593292   22.914949 C.3        1 MOL1        -0.1768
       5    H3      21.122492   17.757960   22.525465 H          1 MOL1         0.0829
       6    H4      20.798727   18.756867   23.963950 H          1 MOL1         0.0829
       7    C3      18.999928   18.483754   22.618157 C.3        1 MOL1         0.1211
       8    H5      18.622911   17.456249   22.535064 H          1 MOL1         0.0786
       9    C4      19.328432   19.171910   21.256312 C.3        1 MOL1        -0.1768
      10    H6      18.557073   19.840218   20.857915 H          1 MOL1         0.0829
      11    H7      19.632269   18.476958   20.464037 H          1 MOL1         0.0829
      12    O1      18.170878   19.234878   23.482236 O.3        1 MOL1        -0.5515
      13    H8      17.268867   19.229612   23.096873 H          1 MOL1         0.3773
@<TRIPOS>BOND
    1     1     2    1
    2     1     3    1
    3     1     4    1
    4     4     5    1
    5     4     6    1
    6     4     7    1
    7     7     8    1
    8     1     9    1
    9     7     9    1
   10     9    10    1
   11     9    11    1
   12     7    12    1
   13    12    13    1
@<TRIPOS>SUBSTRUCTURE
       1 MOL1            1 RESIDUE      1      MOL     
@<SCITEGIC>MOL_PROPERTY
VConf Rank
SciTegic.value.IntegerValue
283

@<SCITEGIC>MOL_PROPERTY
Conf_Id
SciTegic.value.IntegerValue
20

@<SCITEGIC>MOL_PROPERTY
Delta U+W
SciTegic.value.DoubleValue
1.030

@<SCITEGIC>MOL_PROPERTY
U+W
SciTegic.value.DoubleValue
-2.101

@<SCITEGIC>MOL_PROPERTY
Grad RMS
SciTegic.value.DoubleValue
0.000000

@<SCITEGIC>MOL_PROPERTY
U
SciTegic.value.DoubleValue
0.841

@<SCITEGIC>MOL_PROPERTY
W
SciTegic.value.DoubleValue
-2.942

@<SCITEGIC>MOL_PROPERTY
W(PB)
SciTegic.value.DoubleValue
-4.530

@<SCITEGIC>MOL_PROPERTY
W(SA)
SciTegic.value.DoubleValue
1.587

@<SCITEGIC>MOL_PROPERTY
Valence
SciTegic.value.DoubleValue
6.736

@<SCITEGIC>MOL_PROPERTY
Coulomb
SciTegic.value.DoubleValue
-7.246

@<SCITEGIC>MOL_PROPERTY
VdW
SciTegic.value.DoubleValue
1.352

@<SCITEGIC>MOL_PROPERTY
VdW6
SciTegic.value.DoubleValue
-2.500

@<SCITEGIC>MOL_PROPERTY
VdW12
SciTegic.value.DoubleValue
3.851

@<SCITEGIC>MOL_PROPERTY
Bond
SciTegic.value.DoubleValue
0.063

@<SCITEGIC>MOL_PROPERTY
Angle
SciTegic.value.DoubleValue
0.687

@<SCITEGIC>MOL_PROPERTY
Pdih
SciTegic.value.DoubleValue
5.986

@<SCITEGIC>MOL_PROPERTY
Idih
SciTegic.value.DoubleValue
0.000

@<SCITEGIC>MOL_PROPERTY
Tether
SciTegic.value.DoubleValue
0.000

@<TRIPOS>MOLECULE
guest-s16_confgen4.mol2 : confsearch ligand conformer 284
          13          13           1
SMALL
USER_CHARGES
 
@<TRIPOS>ATOM
       1    C1      19.108296   18.813218   23.314637 C.3        1 MOL1        -0.1693
       2    H1      19.532732   19.271342   24.217769 H          1 MOL1         0.0829
       3    H2      18.173237   18.308145   23.584798 H          1 MOL1         0.0829
       4    C2      20.122333   17.975071   22.468118 C.3        1 MOL1        -0.1768
       5    H3      20.911139   17.462402   23.029588 H          1 MOL1         0.0829
       6    H4      19.659854   17.259190   21.777455 H          1 MOL1         0.0829
       7    C3      20.524425   19.337448   21.826707 C.3        1 MOL1         0.1211
       8    H5      21.251997   19.909391   22.418496 H          1 MOL1         0.0786
       9    C4      19.043790   19.758913   22.070106 C.3        1 MOL1        -0.1768
      10    H6      18.340242   19.441743   21.290483 H          1 MOL1         0.0829
      11    H7      18.880079   20.821648   22.280069 H          1 MOL1         0.0829
      12    O1      20.921529   19.276506   20.477481 O.3        1 MOL1        -0.5515
      13    H8      20.238950   18.757820   20.002328 H          1 MOL1         0.3773
@<TRIPOS>BOND
    1     1     2    1
    2     1     3    1
    3     1     4    1
    4     4     5    1
    5     4     6    1
    6     4     7    1
    7     7     8    1
    8     1     9    1
    9     7     9    1
   10     9    10    1
   11     9    11    1
   12     7    12    1
   13    12    13    1
@<TRIPOS>SUBSTRUCTURE
       1 MOL1            1 RESIDUE      1      MOL     
@<SCITEGIC>MOL_PROPERTY
VConf Rank
SciTegic.value.IntegerValue
284

@<SCITEGIC>MOL_PROPERTY
Conf_Id
SciTegic.value.IntegerValue
24

@<SCITEGIC>MOL_PROPERTY
Delta U+W
SciTegic.value.DoubleValue
0.356

@<SCITEGIC>MOL_PROPERTY
U+W
SciTegic.value.DoubleValue
-2.775

@<SCITEGIC>MOL_PROPERTY
Grad RMS
SciTegic.value.DoubleValue
0.000000

@<SCITEGIC>MOL_PROPERTY
U
SciTegic.value.DoubleValue
-0.184

@<SCITEGIC>MOL_PROPERTY
W
SciTegic.value.DoubleValue
-2.591

@<SCITEGIC>MOL_PROPERTY
W(PB)
SciTegic.value.DoubleValue
-4.184

@<SCITEGIC>MOL_PROPERTY
W(SA)
SciTegic.value.DoubleValue
1.593

@<SCITEGIC>MOL_PROPERTY
Valence
SciTegic.value.DoubleValue
6.840

@<SCITEGIC>MOL_PROPERTY
Coulomb
SciTegic.value.DoubleValue
-7.916

@<SCITEGIC>MOL_PROPERTY
VdW
SciTegic.value.DoubleValue
0.893

@<SCITEGIC>MOL_PROPERTY
VdW6
SciTegic.value.DoubleValue
-2.167

@<SCITEGIC>MOL_PROPERTY
VdW12
SciTegic.value.DoubleValue
3.060

@<SCITEGIC>MOL_PROPERTY
Bond
SciTegic.value.DoubleValue
0.059

@<SCITEGIC>MOL_PROPERTY
Angle
SciTegic.value.DoubleValue
0.918

@<SCITEGIC>MOL_PROPERTY
Pdih
SciTegic.value.DoubleValue
5.862

@<SCITEGIC>MOL_PROPERTY
Idih
SciTegic.value.DoubleValue
0.000

@<SCITEGIC>MOL_PROPERTY
Tether
SciTegic.value.DoubleValue
0.000

@<TRIPOS>MOLECULE
guest-s16_confgen4.mol2 : confsearch ligand conformer 285
          13          13           1
SMALL
USER_CHARGES
 
@<TRIPOS>ATOM
       1    C1      20.314065   19.905887   22.132883 C.3        1 MOL1        -0.1693
       2    H1      20.302042   20.999500   22.053886 H          1 MOL1         0.0829
       3    H2      21.358951   19.570606   22.142600 H          1 MOL1         0.0829
       4    C2      19.385265   19.137557   21.134315 C.3        1 MOL1        -0.1768
       5    H3      18.479271   19.684276   20.845718 H          1 MOL1         0.0829
       6    H4      19.864274   18.753785   20.226582 H          1 MOL1         0.0829
       7    C3      19.165436   18.101138   22.279524 C.3        1 MOL1         0.1211
       8    H5      18.156539   17.671516   22.324678 H          1 MOL1         0.0786
       9    C4      19.414836   19.291214   23.257027 C.3        1 MOL1        -0.1768
      10    H6      18.516093   19.875608   23.488889 H          1 MOL1         0.0829
      11    H7      19.919584   19.041190   24.196935 H          1 MOL1         0.0829
      12    O1      20.130570   17.073263   22.340480 O.3        1 MOL1        -0.5515
      13    H8      21.004932   17.512431   22.296494 H          1 MOL1         0.3773
@<TRIPOS>BOND
    1     1     2    1
    2     1     3    1
    3     1     4    1
    4     4     5    1
    5     4     6    1
    6     4     7    1
    7     7     8    1
    8     1     9    1
    9     7     9    1
   10     9    10    1
   11     9    11    1
   12     7    12    1
   13    12    13    1
@<TRIPOS>SUBSTRUCTURE
       1 MOL1            1 RESIDUE      1      MOL     
@<SCITEGIC>MOL_PROPERTY
VConf Rank
SciTegic.value.IntegerValue
285

@<SCITEGIC>MOL_PROPERTY
Conf_Id
SciTegic.value.IntegerValue
44

@<SCITEGIC>MOL_PROPERTY
Delta U+W
SciTegic.value.DoubleValue
0.823

@<SCITEGIC>MOL_PROPERTY
U+W
SciTegic.value.DoubleValue
-2.308

@<SCITEGIC>MOL_PROPERTY
Grad RMS
SciTegic.value.DoubleValue
0.000000

@<SCITEGIC>MOL_PROPERTY
U
SciTegic.value.DoubleValue
0.039

@<SCITEGIC>MOL_PROPERTY
W
SciTegic.value.DoubleValue
-2.348

@<SCITEGIC>MOL_PROPERTY
W(PB)
SciTegic.value.DoubleValue
-3.918

@<SCITEGIC>MOL_PROPERTY
W(SA)
SciTegic.value.DoubleValue
1.571

@<SCITEGIC>MOL_PROPERTY
Valence
SciTegic.value.DoubleValue
7.320

@<SCITEGIC>MOL_PROPERTY
Coulomb
SciTegic.value.DoubleValue
-8.530

@<SCITEGIC>MOL_PROPERTY
VdW
SciTegic.value.DoubleValue
1.249

@<SCITEGIC>MOL_PROPERTY
VdW6
SciTegic.value.DoubleValue
-2.615

@<SCITEGIC>MOL_PROPERTY
VdW12
SciTegic.value.DoubleValue
3.864

@<SCITEGIC>MOL_PROPERTY
Bond
SciTegic.value.DoubleValue
0.056

@<SCITEGIC>MOL_PROPERTY
Angle
SciTegic.value.DoubleValue
0.694

@<SCITEGIC>MOL_PROPERTY
Pdih
SciTegic.value.DoubleValue
6.570

@<SCITEGIC>MOL_PROPERTY
Idih
SciTegic.value.DoubleValue
0.000

@<SCITEGIC>MOL_PROPERTY
Tether
SciTegic.value.DoubleValue
0.000

@<TRIPOS>MOLECULE
guest-s16_confgen4.mol2 : confsearch ligand conformer 286
          13          13           1
SMALL
USER_CHARGES
 
@<TRIPOS>ATOM
       1    C1      19.834362   18.637489   23.492897 C.3        1 MOL1        -0.1693
       2    H1      20.206800   19.424182   24.162217 H          1 MOL1         0.0829
       3    H2      19.656718   17.730507   24.082951 H          1 MOL1         0.0829
       4    C2      20.661751   18.450794   22.178409 C.3        1 MOL1        -0.1768
       5    H3      21.736907   18.647365   22.251612 H          1 MOL1         0.0829
       6    H4      20.512538   17.488027   21.674028 H          1 MOL1         0.0829
       7    C3      19.796689   19.617018   21.612337 C.3        1 MOL1         0.1211
       8    H5      20.165218   20.615118   21.886283 H          1 MOL1         0.0786
       9    C4      18.670245   19.080322   22.546294 C.3        1 MOL1        -0.1768
      10    H6      17.982637   19.833123   22.947117 H          1 MOL1         0.0829
      11    H7      18.083378   18.254707   22.124700 H          1 MOL1         0.0829
      12    O1      19.520167   19.547111   20.232774 O.3        1 MOL1        -0.5515
      13    H8      18.845318   20.232143   20.036523 H          1 MOL1         0.3773
@<TRIPOS>BOND
    1     1     2    1
    2     1     3    1
    3     1     4    1
    4     4     5    1
    5     4     6    1
    6     4     7    1
    7     7     8    1
    8     1     9    1
    9     7     9    1
   10     9    10    1
   11     9    11    1
   12     7    12    1
   13    12    13    1
@<TRIPOS>SUBSTRUCTURE
       1 MOL1            1 RESIDUE      1      MOL     
@<SCITEGIC>MOL_PROPERTY
VConf Rank
SciTegic.value.IntegerValue
286

@<SCITEGIC>MOL_PROPERTY
Conf_Id
SciTegic.value.IntegerValue
22

@<SCITEGIC>MOL_PROPERTY
Delta U+W
SciTegic.value.DoubleValue
0.000

@<SCITEGIC>MOL_PROPERTY
U+W
SciTegic.value.DoubleValue
-3.131

@<SCITEGIC>MOL_PROPERTY
Grad RMS
SciTegic.value.DoubleValue
0.000000

@<SCITEGIC>MOL_PROPERTY
U
SciTegic.value.DoubleValue
-0.154

@<SCITEGIC>MOL_PROPERTY
W
SciTegic.value.DoubleValue
-2.978

@<SCITEGIC>MOL_PROPERTY
W(PB)
SciTegic.value.DoubleValue
-4.579

@<SCITEGIC>MOL_PROPERTY
W(SA)
SciTegic.value.DoubleValue
1.601

@<SCITEGIC>MOL_PROPERTY
Valence
SciTegic.value.DoubleValue
6.333

@<SCITEGIC>MOL_PROPERTY
Coulomb
SciTegic.value.DoubleValue
-7.439

@<SCITEGIC>MOL_PROPERTY
VdW
SciTegic.value.DoubleValue
0.952

@<SCITEGIC>MOL_PROPERTY
VdW6
SciTegic.value.DoubleValue
-2.120

@<SCITEGIC>MOL_PROPERTY
VdW12
SciTegic.value.DoubleValue
3.072

@<SCITEGIC>MOL_PROPERTY
Bond
SciTegic.value.DoubleValue
0.065

@<SCITEGIC>MOL_PROPERTY
Angle
SciTegic.value.DoubleValue
0.931

@<SCITEGIC>MOL_PROPERTY
Pdih
SciTegic.value.DoubleValue
5.338

@<SCITEGIC>MOL_PROPERTY
Idih
SciTegic.value.DoubleValue
0.000

@<SCITEGIC>MOL_PROPERTY
Tether
SciTegic.value.DoubleValue
0.000

@<TRIPOS>MOLECULE
guest-s16_confgen4.mol2 : confsearch ligand conformer 287
          13          13           1
SMALL
USER_CHARGES
 
@<TRIPOS>ATOM
       1    C1      19.822009   19.672451   21.175125 C.3        1 MOL1        -0.1693
       2    H1      20.753141   19.439518   20.641907 H          1 MOL1         0.0829
       3    H2      19.334031   20.517673   20.675309 H          1 MOL1         0.0829
       4    C2      19.967636   19.783893   22.728735 C.3        1 MOL1        -0.1768
       5    H3      19.153042   20.323618   23.227660 H          1 MOL1         0.0829
       6    H4      20.924300   20.170433   23.096910 H          1 MOL1         0.0829
       7    C3      19.814317   18.232869   22.732358 C.3        1 MOL1         0.1211
       8    H5      20.747920   17.692039   22.525110 H          1 MOL1         0.0786
       9    C4      18.913531   18.435120   21.476761 C.3        1 MOL1        -0.1768
      10    H6      17.867415   18.676827   21.702159 H          1 MOL1         0.0829
      11    H7      18.937117   17.626287   20.738389 H          1 MOL1         0.0829
      12    O1      19.163795   17.694110   23.859792 O.3        1 MOL1        -0.5515
      13    H8      19.783845   17.769543   24.616794 H          1 MOL1         0.3773
@<TRIPOS>BOND
    1     1     2    1
    2     1     3    1
    3     1     4    1
    4     4     5    1
    5     4     6    1
    6     4     7    1
    7     7     8    1
    8     1     9    1
    9     7     9    1
   10     9    10    1
   11     9    11    1
   12     7    12    1
   13    12    13    1
@<TRIPOS>SUBSTRUCTURE
       1 MOL1            1 RESIDUE      1      MOL     
@<SCITEGIC>MOL_PROPERTY
VConf Rank
SciTegic.value.IntegerValue
287

@<SCITEGIC>MOL_PROPERTY
Conf_Id
SciTegic.value.IntegerValue
19

@<SCITEGIC>MOL_PROPERTY
Delta U+W
SciTegic.value.DoubleValue
-0.011

@<SCITEGIC>MOL_PROPERTY
U+W
SciTegic.value.DoubleValue
-3.142

@<SCITEGIC>MOL_PROPERTY
Grad RMS
SciTegic.value.DoubleValue
0.000000

@<SCITEGIC>MOL_PROPERTY
U
SciTegic.value.DoubleValue
-0.154

@<SCITEGIC>MOL_PROPERTY
W
SciTegic.value.DoubleValue
-2.989

@<SCITEGIC>MOL_PROPERTY
W(PB)
SciTegic.value.DoubleValue
-4.588

@<SCITEGIC>MOL_PROPERTY
W(SA)
SciTegic.value.DoubleValue
1.599

@<SCITEGIC>MOL_PROPERTY
Valence
SciTegic.value.DoubleValue
6.334

@<SCITEGIC>MOL_PROPERTY
Coulomb
SciTegic.value.DoubleValue
-7.439

@<SCITEGIC>MOL_PROPERTY
VdW
SciTegic.value.DoubleValue
0.951

@<SCITEGIC>MOL_PROPERTY
VdW6
SciTegic.value.DoubleValue
-2.120

@<SCITEGIC>MOL_PROPERTY
VdW12
SciTegic.value.DoubleValue
3.072

@<SCITEGIC>MOL_PROPERTY
Bond
SciTegic.value.DoubleValue
0.065

@<SCITEGIC>MOL_PROPERTY
Angle
SciTegic.value.DoubleValue
0.930

@<SCITEGIC>MOL_PROPERTY
Pdih
SciTegic.value.DoubleValue
5.339

@<SCITEGIC>MOL_PROPERTY
Idih
SciTegic.value.DoubleValue
0.000

@<SCITEGIC>MOL_PROPERTY
Tether
SciTegic.value.DoubleValue
0.000

@<TRIPOS>MOLECULE
guest-s16_confgen4.mol2 : confsearch ligand conformer 288
          13          13           1
SMALL
USER_CHARGES
 
@<TRIPOS>ATOM
       1    C1      19.749910   17.886358   21.905079 C.3        1 MOL1        -0.1693
       2    H1      20.427985   17.147980   21.461243 H          1 MOL1         0.0829
       3    H2      18.813800   17.382898   22.179730 H          1 MOL1         0.0829
       4    C2      19.560778   19.216908   21.103308 C.3        1 MOL1        -0.1768
       5    H3      20.438488   19.527605   20.523775 H          1 MOL1         0.0829
       6    H4      18.677874   19.267613   20.456545 H          1 MOL1         0.0829
       7    C3      19.427369   19.921869   22.489187 C.3        1 MOL1         0.1211
       8    H5      19.858309   20.930451   22.532367 H          1 MOL1         0.0786
       9    C4      20.356528   18.790070   23.029365 C.3        1 MOL1        -0.1768
      10    H6      20.169513   18.466204   24.059165 H          1 MOL1         0.0829
      11    H7      21.427768   18.996861   22.916858 H          1 MOL1         0.0829
      12    O1      18.120890   19.930491   23.028799 O.3        1 MOL1        -0.5515
      13    H8      18.192475   20.234387   23.958680 H          1 MOL1         0.3773
@<TRIPOS>BOND
    1     1     2    1
    2     1     3    1
    3     1     4    1
    4     4     5    1
    5     4     6    1
    6     4     7    1
    7     7     8    1
    8     1     9    1
    9     7     9    1
   10     9    10    1
   11     9    11    1
   12     7    12    1
   13    12    13    1
@<TRIPOS>SUBSTRUCTURE
       1 MOL1            1 RESIDUE      1      MOL     
@<SCITEGIC>MOL_PROPERTY
VConf Rank
SciTegic.value.IntegerValue
288

@<SCITEGIC>MOL_PROPERTY
Conf_Id
SciTegic.value.IntegerValue
20

@<SCITEGIC>MOL_PROPERTY
Delta U+W
SciTegic.value.DoubleValue
1.030

@<SCITEGIC>MOL_PROPERTY
U+W
SciTegic.value.DoubleValue
-2.101

@<SCITEGIC>MOL_PROPERTY
Grad RMS
SciTegic.value.DoubleValue
0.000000

@<SCITEGIC>MOL_PROPERTY
U
SciTegic.value.DoubleValue
0.841

@<SCITEGIC>MOL_PROPERTY
W
SciTegic.value.DoubleValue
-2.942

@<SCITEGIC>MOL_PROPERTY
W(PB)
SciTegic.value.DoubleValue
-4.530

@<SCITEGIC>MOL_PROPERTY
W(SA)
SciTegic.value.DoubleValue
1.587

@<SCITEGIC>MOL_PROPERTY
Valence
SciTegic.value.DoubleValue
6.736

@<SCITEGIC>MOL_PROPERTY
Coulomb
SciTegic.value.DoubleValue
-7.246

@<SCITEGIC>MOL_PROPERTY
VdW
SciTegic.value.DoubleValue
1.352

@<SCITEGIC>MOL_PROPERTY
VdW6
SciTegic.value.DoubleValue
-2.500

@<SCITEGIC>MOL_PROPERTY
VdW12
SciTegic.value.DoubleValue
3.851

@<SCITEGIC>MOL_PROPERTY
Bond
SciTegic.value.DoubleValue
0.063

@<SCITEGIC>MOL_PROPERTY
Angle
SciTegic.value.DoubleValue
0.687

@<SCITEGIC>MOL_PROPERTY
Pdih
SciTegic.value.DoubleValue
5.986

@<SCITEGIC>MOL_PROPERTY
Idih
SciTegic.value.DoubleValue
0.000

@<SCITEGIC>MOL_PROPERTY
Tether
SciTegic.value.DoubleValue
0.000

@<TRIPOS>MOLECULE
guest-s16_confgen4.mol2 : confsearch ligand conformer 289
          13          13           1
SMALL
USER_CHARGES
 
@<TRIPOS>ATOM
       1    C1      20.343479   19.963958   21.697039 C.3        1 MOL1        -0.1693
       2    H1      21.361083   20.191941   22.040804 H          1 MOL1         0.0829
       3    H2      20.055135   20.704602   20.941575 H          1 MOL1         0.0829
       4    C2      19.307732   19.711014   22.841855 C.3        1 MOL1        -0.1768
       5    H3      19.465068   20.275205   23.767720 H          1 MOL1         0.0829
       6    H4      18.258118   19.815017   22.540386 H          1 MOL1         0.0829
       7    C3      19.847620   18.248935   22.840278 C.3        1 MOL1         0.1211
       8    H5      20.765277   18.113738   23.428769 H          1 MOL1         0.0786
       9    C4      20.101574   18.465602   21.317872 C.3        1 MOL1        -0.1768
      10    H6      19.229394   18.291240   20.675775 H          1 MOL1         0.0829
      11    H7      20.959992   17.929903   20.897829 H          1 MOL1         0.0829
      12    O1      18.902914   17.255422   23.160086 O.3        1 MOL1        -0.5515
      13    H8      18.111216   17.426260   22.608046 H          1 MOL1         0.3773
@<TRIPOS>BOND
    1     1     2    1
    2     1     3    1
    3     1     4    1
    4     4     5    1
    5     4     6    1
    6     4     7    1
    7     7     8    1
    8     1     9    1
    9     7     9    1
   10     9    10    1
   11     9    11    1
   12     7    12    1
   13    12    13    1
@<TRIPOS>SUBSTRUCTURE
       1 MOL1            1 RESIDUE      1      MOL     
@<SCITEGIC>MOL_PROPERTY
VConf Rank
SciTegic.value.IntegerValue
289

@<SCITEGIC>MOL_PROPERTY
Conf_Id
SciTegic.value.IntegerValue
24

@<SCITEGIC>MOL_PROPERTY
Delta U+W
SciTegic.value.DoubleValue
0.356

@<SCITEGIC>MOL_PROPERTY
U+W
SciTegic.value.DoubleValue
-2.775

@<SCITEGIC>MOL_PROPERTY
Grad RMS
SciTegic.value.DoubleValue
0.000000

@<SCITEGIC>MOL_PROPERTY
U
SciTegic.value.DoubleValue
-0.184

@<SCITEGIC>MOL_PROPERTY
W
SciTegic.value.DoubleValue
-2.591

@<SCITEGIC>MOL_PROPERTY
W(PB)
SciTegic.value.DoubleValue
-4.184

@<SCITEGIC>MOL_PROPERTY
W(SA)
SciTegic.value.DoubleValue
1.593

@<SCITEGIC>MOL_PROPERTY
Valence
SciTegic.value.DoubleValue
6.840

@<SCITEGIC>MOL_PROPERTY
Coulomb
SciTegic.value.DoubleValue
-7.916

@<SCITEGIC>MOL_PROPERTY
VdW
SciTegic.value.DoubleValue
0.893

@<SCITEGIC>MOL_PROPERTY
VdW6
SciTegic.value.DoubleValue
-2.167

@<SCITEGIC>MOL_PROPERTY
VdW12
SciTegic.value.DoubleValue
3.060

@<SCITEGIC>MOL_PROPERTY
Bond
SciTegic.value.DoubleValue
0.059

@<SCITEGIC>MOL_PROPERTY
Angle
SciTegic.value.DoubleValue
0.918

@<SCITEGIC>MOL_PROPERTY
Pdih
SciTegic.value.DoubleValue
5.862

@<SCITEGIC>MOL_PROPERTY
Idih
SciTegic.value.DoubleValue
0.000

@<SCITEGIC>MOL_PROPERTY
Tether
SciTegic.value.DoubleValue
0.000

@<TRIPOS>MOLECULE
guest-s16_confgen4.mol2 : confsearch ligand conformer 290
          13          13           1
SMALL
USER_CHARGES
 
@<TRIPOS>ATOM
       1    C1      20.531642   19.512650   21.690328 C.3        1 MOL1        -0.1693
       2    H1      20.854322   20.020110   20.773412 H          1 MOL1         0.0829
       3    H2      21.360633   19.535324   22.409045 H          1 MOL1         0.0829
       4    C2      19.865595   18.109325   21.497458 C.3        1 MOL1        -0.1768
       5    H3      19.321917   17.991621   20.552167 H          1 MOL1         0.0829
       6    H4      20.520118   17.241038   21.633053 H          1 MOL1         0.0829
       7    C3      18.957792   18.475167   22.712385 C.3        1 MOL1         0.1211
       8    H5      17.927688   18.102285   22.646578 H          1 MOL1         0.0786
       9    C4      19.146929   19.958674   22.268055 C.3        1 MOL1        -0.1768
      10    H6      18.427046   20.294404   21.511703 H          1 MOL1         0.0829
      11    H7      19.175915   20.700089   23.074387 H          1 MOL1         0.0829
      12    O1      19.504569   18.161500   23.975070 O.3        1 MOL1        -0.5515
      13    H8      20.417692   18.515785   23.976367 H          1 MOL1         0.3773
@<TRIPOS>BOND
    1     1     2    1
    2     1     3    1
    3     1     4    1
    4     4     5    1
    5     4     6    1
    6     4     7    1
    7     7     8    1
    8     1     9    1
    9     7     9    1
   10     9    10    1
   11     9    11    1
   12     7    12    1
   13    12    13    1
@<TRIPOS>SUBSTRUCTURE
       1 MOL1            1 RESIDUE      1      MOL     
@<SCITEGIC>MOL_PROPERTY
VConf Rank
SciTegic.value.IntegerValue
290

@<SCITEGIC>MOL_PROPERTY
Conf_Id
SciTegic.value.IntegerValue
44

@<SCITEGIC>MOL_PROPERTY
Delta U+W
SciTegic.value.DoubleValue
0.823

@<SCITEGIC>MOL_PROPERTY
U+W
SciTegic.value.DoubleValue
-2.308

@<SCITEGIC>MOL_PROPERTY
Grad RMS
SciTegic.value.DoubleValue
0.000000

@<SCITEGIC>MOL_PROPERTY
U
SciTegic.value.DoubleValue
0.039

@<SCITEGIC>MOL_PROPERTY
W
SciTegic.value.DoubleValue
-2.348

@<SCITEGIC>MOL_PROPERTY
W(PB)
SciTegic.value.DoubleValue
-3.918

@<SCITEGIC>MOL_PROPERTY
W(SA)
SciTegic.value.DoubleValue
1.571

@<SCITEGIC>MOL_PROPERTY
Valence
SciTegic.value.DoubleValue
7.320

@<SCITEGIC>MOL_PROPERTY
Coulomb
SciTegic.value.DoubleValue
-8.530

@<SCITEGIC>MOL_PROPERTY
VdW
SciTegic.value.DoubleValue
1.249

@<SCITEGIC>MOL_PROPERTY
VdW6
SciTegic.value.DoubleValue
-2.615

@<SCITEGIC>MOL_PROPERTY
VdW12
SciTegic.value.DoubleValue
3.864

@<SCITEGIC>MOL_PROPERTY
Bond
SciTegic.value.DoubleValue
0.056

@<SCITEGIC>MOL_PROPERTY
Angle
SciTegic.value.DoubleValue
0.694

@<SCITEGIC>MOL_PROPERTY
Pdih
SciTegic.value.DoubleValue
6.570

@<SCITEGIC>MOL_PROPERTY
Idih
SciTegic.value.DoubleValue
0.000

@<SCITEGIC>MOL_PROPERTY
Tether
SciTegic.value.DoubleValue
0.000

@<TRIPOS>MOLECULE
guest-s16_confgen4.mol2 : confsearch ligand conformer 291
          13          13           1
SMALL
USER_CHARGES
 
@<TRIPOS>ATOM
       1    C1      19.982619   18.258903   21.234857 C.3        1 MOL1        -0.1693
       2    H1      19.287807   17.419617   21.099134 H          1 MOL1         0.0829
       3    H2      20.729998   18.228248   20.433095 H          1 MOL1         0.0829
       4    C2      20.539986   18.418643   22.687831 C.3        1 MOL1        -0.1768
       5    H3      20.677093   17.493238   23.257733 H          1 MOL1         0.0829
       6    H4      21.454203   19.020035   22.766063 H          1 MOL1         0.0829
       7    C3      19.224564   19.203222   22.975839 C.3        1 MOL1         0.1211
       8    H5      18.366432   18.558257   23.209703 H          1 MOL1         0.0786
       9    C4      19.296835   19.643021   21.482337 C.3        1 MOL1        -0.1768
      10    H6      18.334325   19.800388   20.983356 H          1 MOL1         0.0829
      11    H7      19.938798   20.512575   21.293785 H          1 MOL1         0.0829
      12    O1      19.338528   20.245069   23.917174 O.3        1 MOL1        -0.5515
      13    H8      18.501540   20.756691   23.887235 H          1 MOL1         0.3773
@<TRIPOS>BOND
    1     1     2    1
    2     1     3    1
    3     1     4    1
    4     4     5    1
    5     4     6    1
    6     4     7    1
    7     7     8    1
    8     1     9    1
    9     7     9    1
   10     9    10    1
   11     9    11    1
   12     7    12    1
   13    12    13    1
@<TRIPOS>SUBSTRUCTURE
       1 MOL1            1 RESIDUE      1      MOL     
@<SCITEGIC>MOL_PROPERTY
VConf Rank
SciTegic.value.IntegerValue
291

@<SCITEGIC>MOL_PROPERTY
Conf_Id
SciTegic.value.IntegerValue
22

@<SCITEGIC>MOL_PROPERTY
Delta U+W
SciTegic.value.DoubleValue
0.000

@<SCITEGIC>MOL_PROPERTY
U+W
SciTegic.value.DoubleValue
-3.131

@<SCITEGIC>MOL_PROPERTY
Grad RMS
SciTegic.value.DoubleValue
0.000000

@<SCITEGIC>MOL_PROPERTY
U
SciTegic.value.DoubleValue
-0.154

@<SCITEGIC>MOL_PROPERTY
W
SciTegic.value.DoubleValue
-2.978

@<SCITEGIC>MOL_PROPERTY
W(PB)
SciTegic.value.DoubleValue
-4.579

@<SCITEGIC>MOL_PROPERTY
W(SA)
SciTegic.value.DoubleValue
1.601

@<SCITEGIC>MOL_PROPERTY
Valence
SciTegic.value.DoubleValue
6.333

@<SCITEGIC>MOL_PROPERTY
Coulomb
SciTegic.value.DoubleValue
-7.439

@<SCITEGIC>MOL_PROPERTY
VdW
SciTegic.value.DoubleValue
0.952

@<SCITEGIC>MOL_PROPERTY
VdW6
SciTegic.value.DoubleValue
-2.120

@<SCITEGIC>MOL_PROPERTY
VdW12
SciTegic.value.DoubleValue
3.072

@<SCITEGIC>MOL_PROPERTY
Bond
SciTegic.value.DoubleValue
0.065

@<SCITEGIC>MOL_PROPERTY
Angle
SciTegic.value.DoubleValue
0.931

@<SCITEGIC>MOL_PROPERTY
Pdih
SciTegic.value.DoubleValue
5.338

@<SCITEGIC>MOL_PROPERTY
Idih
SciTegic.value.DoubleValue
0.000

@<SCITEGIC>MOL_PROPERTY
Tether
SciTegic.value.DoubleValue
0.000

@<TRIPOS>MOLECULE
guest-s16_confgen4.mol2 : confsearch ligand conformer 292
          13          13           1
SMALL
USER_CHARGES
 
@<TRIPOS>ATOM
       1    C1      20.245184   20.021472   22.647729 C.3        1 MOL1        -0.1693
       2    H1      19.563471   20.784650   23.045740 H          1 MOL1         0.0829
       3    H2      21.264763   20.424907   22.653825 H          1 MOL1         0.0829
       4    C2      19.776596   19.358478   21.310496 C.3        1 MOL1        -0.1768
       5    H3      20.571448   18.856173   20.745083 H          1 MOL1         0.0829
       6    H4      19.209014   19.999770   20.627291 H          1 MOL1         0.0829
       7    C3      18.930721   18.413981   22.216926 C.3        1 MOL1         0.1211
       8    H5      17.966805   18.839777   22.527773 H          1 MOL1         0.0786
       9    C4      20.066462   18.596641   23.268388 C.3        1 MOL1        -0.1768
      10    H6      20.923482   17.925276   23.132846 H          1 MOL1         0.0829
      11    H7      19.754100   18.561886   24.317761 H          1 MOL1         0.0829
      12    O1      18.764790   17.101996   21.731426 O.3        1 MOL1        -0.5515
      13    H8      18.145262   17.149375   20.971726 H          1 MOL1         0.3773
@<TRIPOS>BOND
    1     1     2    1
    2     1     3    1
    3     1     4    1
    4     4     5    1
    5     4     6    1
    6     4     7    1
    7     7     8    1
    8     1     9    1
    9     7     9    1
   10     9    10    1
   11     9    11    1
   12     7    12    1
   13    12    13    1
@<TRIPOS>SUBSTRUCTURE
       1 MOL1            1 RESIDUE      1      MOL     
@<SCITEGIC>MOL_PROPERTY
VConf Rank
SciTegic.value.IntegerValue
292

@<SCITEGIC>MOL_PROPERTY
Conf_Id
SciTegic.value.IntegerValue
19

@<SCITEGIC>MOL_PROPERTY
Delta U+W
SciTegic.value.DoubleValue
-0.011

@<SCITEGIC>MOL_PROPERTY
U+W
SciTegic.value.DoubleValue
-3.142

@<SCITEGIC>MOL_PROPERTY
Grad RMS
SciTegic.value.DoubleValue
0.000000

@<SCITEGIC>MOL_PROPERTY
U
SciTegic.value.DoubleValue
-0.154

@<SCITEGIC>MOL_PROPERTY
W
SciTegic.value.DoubleValue
-2.989

@<SCITEGIC>MOL_PROPERTY
W(PB)
SciTegic.value.DoubleValue
-4.588

@<SCITEGIC>MOL_PROPERTY
W(SA)
SciTegic.value.DoubleValue
1.599

@<SCITEGIC>MOL_PROPERTY
Valence
SciTegic.value.DoubleValue
6.334

@<SCITEGIC>MOL_PROPERTY
Coulomb
SciTegic.value.DoubleValue
-7.439

@<SCITEGIC>MOL_PROPERTY
VdW
SciTegic.value.DoubleValue
0.951

@<SCITEGIC>MOL_PROPERTY
VdW6
SciTegic.value.DoubleValue
-2.120

@<SCITEGIC>MOL_PROPERTY
VdW12
SciTegic.value.DoubleValue
3.072

@<SCITEGIC>MOL_PROPERTY
Bond
SciTegic.value.DoubleValue
0.065

@<SCITEGIC>MOL_PROPERTY
Angle
SciTegic.value.DoubleValue
0.930

@<SCITEGIC>MOL_PROPERTY
Pdih
SciTegic.value.DoubleValue
5.339

@<SCITEGIC>MOL_PROPERTY
Idih
SciTegic.value.DoubleValue
0.000

@<SCITEGIC>MOL_PROPERTY
Tether
SciTegic.value.DoubleValue
0.000

@<TRIPOS>MOLECULE
guest-s16_confgen4.mol2 : confsearch ligand conformer 293
          13          13           1
SMALL
USER_CHARGES
 
@<TRIPOS>ATOM
       1    C1      20.697105   19.660921   22.404784 C.3        1 MOL1        -0.1693
       2    H1      21.217780   20.463470   22.940311 H          1 MOL1         0.0829
       3    H2      21.417075   19.149246   21.752834 H          1 MOL1         0.0829
       4    C2      19.355105   20.058207   21.704661 C.3        1 MOL1        -0.1768
       5    H3      18.799812   20.859633   22.206789 H          1 MOL1         0.0829
       6    H4      19.420822   20.293342   20.636585 H          1 MOL1         0.0829
       7    C3      18.857987   18.620521   22.053029 C.3        1 MOL1         0.1211
       8    H5      17.792276   18.554471   22.307411 H          1 MOL1         0.0786
       9    C4      19.819053   18.705963   23.279873 C.3        1 MOL1        -0.1768
      10    H6      20.290866   17.765833   23.586304 H          1 MOL1         0.0829
      11    H7      19.376529   19.179800   24.164535 H          1 MOL1         0.0829
      12    O1      19.190603   17.629354   21.101663 O.3        1 MOL1        -0.5515
      13    H8      18.986674   16.758936   21.505322 H          1 MOL1         0.3773
@<TRIPOS>BOND
    1     1     2    1
    2     1     3    1
    3     1     4    1
    4     4     5    1
    5     4     6    1
    6     4     7    1
    7     7     8    1
    8     1     9    1
    9     7     9    1
   10     9    10    1
   11     9    11    1
   12     7    12    1
   13    12    13    1
@<TRIPOS>SUBSTRUCTURE
       1 MOL1            1 RESIDUE      1      MOL     
@<SCITEGIC>MOL_PROPERTY
VConf Rank
SciTegic.value.IntegerValue
293

@<SCITEGIC>MOL_PROPERTY
Conf_Id
SciTegic.value.IntegerValue
20

@<SCITEGIC>MOL_PROPERTY
Delta U+W
SciTegic.value.DoubleValue
1.030

@<SCITEGIC>MOL_PROPERTY
U+W
SciTegic.value.DoubleValue
-2.101

@<SCITEGIC>MOL_PROPERTY
Grad RMS
SciTegic.value.DoubleValue
0.000000

@<SCITEGIC>MOL_PROPERTY
U
SciTegic.value.DoubleValue
0.841

@<SCITEGIC>MOL_PROPERTY
W
SciTegic.value.DoubleValue
-2.942

@<SCITEGIC>MOL_PROPERTY
W(PB)
SciTegic.value.DoubleValue
-4.530

@<SCITEGIC>MOL_PROPERTY
W(SA)
SciTegic.value.DoubleValue
1.587

@<SCITEGIC>MOL_PROPERTY
Valence
SciTegic.value.DoubleValue
6.736

@<SCITEGIC>MOL_PROPERTY
Coulomb
SciTegic.value.DoubleValue
-7.246

@<SCITEGIC>MOL_PROPERTY
VdW
SciTegic.value.DoubleValue
1.352

@<SCITEGIC>MOL_PROPERTY
VdW6
SciTegic.value.DoubleValue
-2.500

@<SCITEGIC>MOL_PROPERTY
VdW12
SciTegic.value.DoubleValue
3.851

@<SCITEGIC>MOL_PROPERTY
Bond
SciTegic.value.DoubleValue
0.063

@<SCITEGIC>MOL_PROPERTY
Angle
SciTegic.value.DoubleValue
0.687

@<SCITEGIC>MOL_PROPERTY
Pdih
SciTegic.value.DoubleValue
5.986

@<SCITEGIC>MOL_PROPERTY
Idih
SciTegic.value.DoubleValue
0.000

@<SCITEGIC>MOL_PROPERTY
Tether
SciTegic.value.DoubleValue
0.000

@<TRIPOS>MOLECULE
guest-s16_confgen4.mol2 : confsearch ligand conformer 294
          13          13           1
SMALL
USER_CHARGES
 
@<TRIPOS>ATOM
       1    C1      20.537024   19.818618   21.692946 C.3        1 MOL1        -0.1693
       2    H1      21.511031   19.980669   22.173278 H          1 MOL1         0.0829
       3    H2      20.462218   20.479989   20.821502 H          1 MOL1         0.0829
       4    C2      19.315819   19.829355   22.670647 C.3        1 MOL1        -0.1768
       5    H3      19.400202   20.490368   23.540264 H          1 MOL1         0.0829
       6    H4      18.345707   20.003476   22.189034 H          1 MOL1         0.0829
       7    C3      19.661680   18.330834   22.923574 C.3        1 MOL1         0.1211
       8    H5      20.454879   18.177636   23.667926 H          1 MOL1         0.0786
       9    C4      20.169281   18.317579   21.450034 C.3        1 MOL1        -0.1768
      10    H6      19.389929   18.153800   20.695598 H          1 MOL1         0.0829
      11    H7      21.007399   17.643463   21.241664 H          1 MOL1         0.0829
      12    O1      18.562105   17.493640   23.191638 O.3        1 MOL1        -0.5515
      13    H8      17.891328   17.673411   22.499929 H          1 MOL1         0.3773
@<TRIPOS>BOND
    1     1     2    1
    2     1     3    1
    3     1     4    1
    4     4     5    1
    5     4     6    1
    6     4     7    1
    7     7     8    1
    8     1     9    1
    9     7     9    1
   10     9    10    1
   11     9    11    1
   12     7    12    1
   13    12    13    1
@<TRIPOS>SUBSTRUCTURE
       1 MOL1            1 RESIDUE      1      MOL     
@<SCITEGIC>MOL_PROPERTY
VConf Rank
SciTegic.value.IntegerValue
294

@<SCITEGIC>MOL_PROPERTY
Conf_Id
SciTegic.value.IntegerValue
24

@<SCITEGIC>MOL_PROPERTY
Delta U+W
SciTegic.value.DoubleValue
0.356

@<SCITEGIC>MOL_PROPERTY
U+W
SciTegic.value.DoubleValue
-2.775

@<SCITEGIC>MOL_PROPERTY
Grad RMS
SciTegic.value.DoubleValue
0.000000

@<SCITEGIC>MOL_PROPERTY
U
SciTegic.value.DoubleValue
-0.184

@<SCITEGIC>MOL_PROPERTY
W
SciTegic.value.DoubleValue
-2.591

@<SCITEGIC>MOL_PROPERTY
W(PB)
SciTegic.value.DoubleValue
-4.184

@<SCITEGIC>MOL_PROPERTY
W(SA)
SciTegic.value.DoubleValue
1.593

@<SCITEGIC>MOL_PROPERTY
Valence
SciTegic.value.DoubleValue
6.840

@<SCITEGIC>MOL_PROPERTY
Coulomb
SciTegic.value.DoubleValue
-7.916

@<SCITEGIC>MOL_PROPERTY
VdW
SciTegic.value.DoubleValue
0.893

@<SCITEGIC>MOL_PROPERTY
VdW6
SciTegic.value.DoubleValue
-2.167

@<SCITEGIC>MOL_PROPERTY
VdW12
SciTegic.value.DoubleValue
3.060

@<SCITEGIC>MOL_PROPERTY
Bond
SciTegic.value.DoubleValue
0.059

@<SCITEGIC>MOL_PROPERTY
Angle
SciTegic.value.DoubleValue
0.918

@<SCITEGIC>MOL_PROPERTY
Pdih
SciTegic.value.DoubleValue
5.862

@<SCITEGIC>MOL_PROPERTY
Idih
SciTegic.value.DoubleValue
0.000

@<SCITEGIC>MOL_PROPERTY
Tether
SciTegic.value.DoubleValue
0.000

@<TRIPOS>MOLECULE
guest-s16_confgen4.mol2 : confsearch ligand conformer 295
          13          13           1
SMALL
USER_CHARGES
 
@<TRIPOS>ATOM
       1    C1      19.264327   17.931056   22.246475 C.3        1 MOL1        -0.1693
       2    H1      18.352958   17.327680   22.334321 H          1 MOL1         0.0829
       3    H2      20.122014   17.252328   22.157044 H          1 MOL1         0.0829
       4    C2      19.434604   19.071349   23.305189 C.3        1 MOL1        -0.1768
       5    H3      18.491534   19.501299   23.664043 H          1 MOL1         0.0829
       6    H4      20.062097   18.836055   24.172137 H          1 MOL1         0.0829
       7    C3      20.119365   19.896070   22.171641 C.3        1 MOL1         0.1211
       8    H5      19.914435   20.973937   22.197971 H          1 MOL1         0.0786
       9    C4      19.222864   19.082827   21.187306 C.3        1 MOL1        -0.1768
      10    H6      18.227878   19.515590   21.026887 H          1 MOL1         0.0829
      11    H7      19.666053   18.857523   20.210817 H          1 MOL1         0.0829
      12    O1      21.505707   19.671938   22.031828 O.3        1 MOL1        -0.5515
      13    H8      21.628022   18.700317   22.014348 H          1 MOL1         0.3773
@<TRIPOS>BOND
    1     1     2    1
    2     1     3    1
    3     1     4    1
    4     4     5    1
    5     4     6    1
    6     4     7    1
    7     7     8    1
    8     1     9    1
    9     7     9    1
   10     9    10    1
   11     9    11    1
   12     7    12    1
   13    12    13    1
@<TRIPOS>SUBSTRUCTURE
       1 MOL1            1 RESIDUE      1      MOL     
@<SCITEGIC>MOL_PROPERTY
VConf Rank
SciTegic.value.IntegerValue
295

@<SCITEGIC>MOL_PROPERTY
Conf_Id
SciTegic.value.IntegerValue
44

@<SCITEGIC>MOL_PROPERTY
Delta U+W
SciTegic.value.DoubleValue
0.823

@<SCITEGIC>MOL_PROPERTY
U+W
SciTegic.value.DoubleValue
-2.308

@<SCITEGIC>MOL_PROPERTY
Grad RMS
SciTegic.value.DoubleValue
0.000000

@<SCITEGIC>MOL_PROPERTY
U
SciTegic.value.DoubleValue
0.039

@<SCITEGIC>MOL_PROPERTY
W
SciTegic.value.DoubleValue
-2.348

@<SCITEGIC>MOL_PROPERTY
W(PB)
SciTegic.value.DoubleValue
-3.918

@<SCITEGIC>MOL_PROPERTY
W(SA)
SciTegic.value.DoubleValue
1.571

@<SCITEGIC>MOL_PROPERTY
Valence
SciTegic.value.DoubleValue
7.320

@<SCITEGIC>MOL_PROPERTY
Coulomb
SciTegic.value.DoubleValue
-8.530

@<SCITEGIC>MOL_PROPERTY
VdW
SciTegic.value.DoubleValue
1.249

@<SCITEGIC>MOL_PROPERTY
VdW6
SciTegic.value.DoubleValue
-2.615

@<SCITEGIC>MOL_PROPERTY
VdW12
SciTegic.value.DoubleValue
3.864

@<SCITEGIC>MOL_PROPERTY
Bond
SciTegic.value.DoubleValue
0.056

@<SCITEGIC>MOL_PROPERTY
Angle
SciTegic.value.DoubleValue
0.694

@<SCITEGIC>MOL_PROPERTY
Pdih
SciTegic.value.DoubleValue
6.570

@<SCITEGIC>MOL_PROPERTY
Idih
SciTegic.value.DoubleValue
0.000

@<SCITEGIC>MOL_PROPERTY
Tether
SciTegic.value.DoubleValue
0.000

@<TRIPOS>MOLECULE
guest-s16_confgen4.mol2 : confsearch ligand conformer 296
          13          13           1
SMALL
USER_CHARGES
 
@<TRIPOS>ATOM
       1    C1      19.580923   18.885910   20.940944 C.3        1 MOL1        -0.1693
       2    H1      20.205744   18.068723   20.557029 H          1 MOL1         0.0829
       3    H2      19.011695   19.313327   20.106898 H          1 MOL1         0.0829
       4    C2      20.331279   19.908906   21.856233 C.3        1 MOL1        -0.1768
       5    H3      21.385717   20.087370   21.619016 H          1 MOL1         0.0829
       6    H4      19.827393   20.876286   21.973963 H          1 MOL1         0.0829
       7    C3      20.057990   18.894384   23.007278 C.3        1 MOL1         0.1211
       8    H5      20.789012   18.075850   23.058965 H          1 MOL1         0.0786
       9    C4      18.759149   18.534010   22.224759 C.3        1 MOL1        -0.1768
      10    H6      18.421508   17.495438   22.311580 H          1 MOL1         0.0829
      11    H7      17.909168   19.199371   22.421284 H          1 MOL1         0.0829
      12    O1      19.856520   19.466202   24.278883 O.3        1 MOL1        -0.5515
      13    H8      19.536629   18.752128   24.871312 H          1 MOL1         0.3773
@<TRIPOS>BOND
    1     1     2    1
    2     1     3    1
    3     1     4    1
    4     4     5    1
    5     4     6    1
    6     4     7    1
    7     7     8    1
    8     1     9    1
    9     7     9    1
   10     9    10    1
   11     9    11    1
   12     7    12    1
   13    12    13    1
@<TRIPOS>SUBSTRUCTURE
       1 MOL1            1 RESIDUE      1      MOL     
@<SCITEGIC>MOL_PROPERTY
VConf Rank
SciTegic.value.IntegerValue
296

@<SCITEGIC>MOL_PROPERTY
Conf_Id
SciTegic.value.IntegerValue
22

@<SCITEGIC>MOL_PROPERTY
Delta U+W
SciTegic.value.DoubleValue
0.000

@<SCITEGIC>MOL_PROPERTY
U+W
SciTegic.value.DoubleValue
-3.131

@<SCITEGIC>MOL_PROPERTY
Grad RMS
SciTegic.value.DoubleValue
0.000000

@<SCITEGIC>MOL_PROPERTY
U
SciTegic.value.DoubleValue
-0.154

@<SCITEGIC>MOL_PROPERTY
W
SciTegic.value.DoubleValue
-2.978

@<SCITEGIC>MOL_PROPERTY
W(PB)
SciTegic.value.DoubleValue
-4.579

@<SCITEGIC>MOL_PROPERTY
W(SA)
SciTegic.value.DoubleValue
1.601

@<SCITEGIC>MOL_PROPERTY
Valence
SciTegic.value.DoubleValue
6.333

@<SCITEGIC>MOL_PROPERTY
Coulomb
SciTegic.value.DoubleValue
-7.439

@<SCITEGIC>MOL_PROPERTY
VdW
SciTegic.value.DoubleValue
0.952

@<SCITEGIC>MOL_PROPERTY
VdW6
SciTegic.value.DoubleValue
-2.120

@<SCITEGIC>MOL_PROPERTY
VdW12
SciTegic.value.DoubleValue
3.072

@<SCITEGIC>MOL_PROPERTY
Bond
SciTegic.value.DoubleValue
0.065

@<SCITEGIC>MOL_PROPERTY
Angle
SciTegic.value.DoubleValue
0.931

@<SCITEGIC>MOL_PROPERTY
Pdih
SciTegic.value.DoubleValue
5.338

@<SCITEGIC>MOL_PROPERTY
Idih
SciTegic.value.DoubleValue
0.000

@<SCITEGIC>MOL_PROPERTY
Tether
SciTegic.value.DoubleValue
0.000

@<TRIPOS>MOLECULE
guest-s16_confgen4.mol2 : confsearch ligand conformer 297
          13          13           1
SMALL
USER_CHARGES
 
@<TRIPOS>ATOM
       1    C1      18.318460   18.804730   22.336118 C.3        1 MOL1        -0.1693
       2    H1      17.780023   19.745873   22.163143 H          1 MOL1         0.0829
       3    H2      17.589857   18.025919   22.590931 H          1 MOL1         0.0829
       4    C2      19.556869   18.923822   23.284533 C.3        1 MOL1        -0.1768
       5    H3      19.894164   17.974451   23.718951 H          1 MOL1         0.0829
       6    H4      19.482874   19.670432   24.082826 H          1 MOL1         0.0829
       7    C3      20.337326   19.366225   22.010030 C.3        1 MOL1         0.1211
       8    H5      20.223779   20.431153   21.764882 H          1 MOL1         0.0786
       9    C4      19.361210   18.434577   21.230241 C.3        1 MOL1        -0.1768
      10    H6      19.657623   17.378442   21.212812 H          1 MOL1         0.0829
      11    H7      19.116155   18.748691   20.209828 H          1 MOL1         0.0829
      12    O1      21.693148   18.985725   21.971095 O.3        1 MOL1        -0.5515
      13    H8      22.170611   19.544341   22.621619 H          1 MOL1         0.3773
@<TRIPOS>BOND
    1     1     2    1
    2     1     3    1
    3     1     4    1
    4     4     5    1
    5     4     6    1
    6     4     7    1
    7     7     8    1
    8     1     9    1
    9     7     9    1
   10     9    10    1
   11     9    11    1
   12     7    12    1
   13    12    13    1
@<TRIPOS>SUBSTRUCTURE
       1 MOL1            1 RESIDUE      1      MOL     
@<SCITEGIC>MOL_PROPERTY
VConf Rank
SciTegic.value.IntegerValue
297

@<SCITEGIC>MOL_PROPERTY
Conf_Id
SciTegic.value.IntegerValue
19

@<SCITEGIC>MOL_PROPERTY
Delta U+W
SciTegic.value.DoubleValue
-0.011

@<SCITEGIC>MOL_PROPERTY
U+W
SciTegic.value.DoubleValue
-3.142

@<SCITEGIC>MOL_PROPERTY
Grad RMS
SciTegic.value.DoubleValue
0.000000

@<SCITEGIC>MOL_PROPERTY
U
SciTegic.value.DoubleValue
-0.154

@<SCITEGIC>MOL_PROPERTY
W
SciTegic.value.DoubleValue
-2.989

@<SCITEGIC>MOL_PROPERTY
W(PB)
SciTegic.value.DoubleValue
-4.588

@<SCITEGIC>MOL_PROPERTY
W(SA)
SciTegic.value.DoubleValue
1.599

@<SCITEGIC>MOL_PROPERTY
Valence
SciTegic.value.DoubleValue
6.334

@<SCITEGIC>MOL_PROPERTY
Coulomb
SciTegic.value.DoubleValue
-7.439

@<SCITEGIC>MOL_PROPERTY
VdW
SciTegic.value.DoubleValue
0.951

@<SCITEGIC>MOL_PROPERTY
VdW6
SciTegic.value.DoubleValue
-2.120

@<SCITEGIC>MOL_PROPERTY
VdW12
SciTegic.value.DoubleValue
3.072

@<SCITEGIC>MOL_PROPERTY
Bond
SciTegic.value.DoubleValue
0.065

@<SCITEGIC>MOL_PROPERTY
Angle
SciTegic.value.DoubleValue
0.930

@<SCITEGIC>MOL_PROPERTY
Pdih
SciTegic.value.DoubleValue
5.339

@<SCITEGIC>MOL_PROPERTY
Idih
SciTegic.value.DoubleValue
0.000

@<SCITEGIC>MOL_PROPERTY
Tether
SciTegic.value.DoubleValue
0.000

@<TRIPOS>MOLECULE
guest-s16_confgen4.mol2 : confsearch ligand conformer 298
          13          13           1
SMALL
USER_CHARGES
 
@<TRIPOS>ATOM
       1    C1      18.765920   18.605726   21.528030 C.3        1 MOL1        -0.1693
       2    H1      17.687746   18.509722   21.353956 H          1 MOL1         0.0829
       3    H2      19.299593   18.184569   20.666040 H          1 MOL1         0.0829
       4    C2      19.285561   18.110859   22.918732 C.3        1 MOL1        -0.1768
       5    H3      18.565616   18.220469   23.738751 H          1 MOL1         0.0829
       6    H4      19.695413   17.095137   22.945614 H          1 MOL1         0.0829
       7    C3      20.334414   19.263049   22.830440 C.3        1 MOL1         0.1211
       8    H5      20.574614   19.737124   23.790840 H          1 MOL1         0.0786
       9    C4      19.267862   20.018219   21.977048 C.3        1 MOL1        -0.1768
      10    H6      19.658318   20.664087   21.182850 H          1 MOL1         0.0829
      11    H7      18.542981   20.590580   22.568593 H          1 MOL1         0.0829
      12    O1      21.524526   18.932602   22.142993 O.3        1 MOL1        -0.5515
      13    H8      22.019122   19.767553   22.000212 H          1 MOL1         0.3773
@<TRIPOS>BOND
    1     1     2    1
    2     1     3    1
    3     1     4    1
    4     4     5    1
    5     4     6    1
    6     4     7    1
    7     7     8    1
    8     1     9    1
    9     7     9    1
   10     9    10    1
   11     9    11    1
   12     7    12    1
   13    12    13    1
@<TRIPOS>SUBSTRUCTURE
       1 MOL1            1 RESIDUE      1      MOL     
@<SCITEGIC>MOL_PROPERTY
VConf Rank
SciTegic.value.IntegerValue
298

@<SCITEGIC>MOL_PROPERTY
Conf_Id
SciTegic.value.IntegerValue
20

@<SCITEGIC>MOL_PROPERTY
Delta U+W
SciTegic.value.DoubleValue
1.030

@<SCITEGIC>MOL_PROPERTY
U+W
SciTegic.value.DoubleValue
-2.101

@<SCITEGIC>MOL_PROPERTY
Grad RMS
SciTegic.value.DoubleValue
0.000000

@<SCITEGIC>MOL_PROPERTY
U
SciTegic.value.DoubleValue
0.841

@<SCITEGIC>MOL_PROPERTY
W
SciTegic.value.DoubleValue
-2.942

@<SCITEGIC>MOL_PROPERTY
W(PB)
SciTegic.value.DoubleValue
-4.530

@<SCITEGIC>MOL_PROPERTY
W(SA)
SciTegic.value.DoubleValue
1.587

@<SCITEGIC>MOL_PROPERTY
Valence
SciTegic.value.DoubleValue
6.736

@<SCITEGIC>MOL_PROPERTY
Coulomb
SciTegic.value.DoubleValue
-7.246

@<SCITEGIC>MOL_PROPERTY
VdW
SciTegic.value.DoubleValue
1.352

@<SCITEGIC>MOL_PROPERTY
VdW6
SciTegic.value.DoubleValue
-2.500

@<SCITEGIC>MOL_PROPERTY
VdW12
SciTegic.value.DoubleValue
3.851

@<SCITEGIC>MOL_PROPERTY
Bond
SciTegic.value.DoubleValue
0.063

@<SCITEGIC>MOL_PROPERTY
Angle
SciTegic.value.DoubleValue
0.687

@<SCITEGIC>MOL_PROPERTY
Pdih
SciTegic.value.DoubleValue
5.986

@<SCITEGIC>MOL_PROPERTY
Idih
SciTegic.value.DoubleValue
0.000

@<SCITEGIC>MOL_PROPERTY
Tether
SciTegic.value.DoubleValue
0.000

@<TRIPOS>MOLECULE
guest-s16_confgen4.mol2 : confsearch ligand conformer 299
          13          13           1
SMALL
USER_CHARGES
 
@<TRIPOS>ATOM
       1    C1      20.570331   18.635529   21.282834 C.3        1 MOL1        -0.1693
       2    H1      21.357863   19.355498   21.023786 H          1 MOL1         0.0829
       3    H2      20.679339   17.752133   20.642404 H          1 MOL1         0.0829
       4    C2      19.132198   19.244342   21.374906 C.3        1 MOL1        -0.1768
       5    H3      18.917583   20.078669   20.698052 H          1 MOL1         0.0829
       6    H4      18.319440   18.511508   21.298952 H          1 MOL1         0.0829
       7    C3      19.524968   19.637942   22.830916 C.3        1 MOL1         0.1211
       8    H5      20.094578   20.574716   22.899413 H          1 MOL1         0.0786
       9    C4      20.415347   18.358833   22.814754 C.3        1 MOL1        -0.1768
      10    H6      19.889390   17.428078   23.060623 H          1 MOL1         0.0829
      11    H7      21.333947   18.411122   23.409507 H          1 MOL1         0.0829
      12    O1      18.471336   19.629209   23.764513 O.3        1 MOL1        -0.5515
      13    H8      18.002283   18.775260   23.657376 H          1 MOL1         0.3773
@<TRIPOS>BOND
    1     1     2    1
    2     1     3    1
    3     1     4    1
    4     4     5    1
    5     4     6    1
    6     4     7    1
    7     7     8    1
    8     1     9    1
    9     7     9    1
   10     9    10    1
   11     9    11    1
   12     7    12    1
   13    12    13    1
@<TRIPOS>SUBSTRUCTURE
       1 MOL1            1 RESIDUE      1      MOL     
@<SCITEGIC>MOL_PROPERTY
VConf Rank
SciTegic.value.IntegerValue
299

@<SCITEGIC>MOL_PROPERTY
Conf_Id
SciTegic.value.IntegerValue
24

@<SCITEGIC>MOL_PROPERTY
Delta U+W
SciTegic.value.DoubleValue
0.356

@<SCITEGIC>MOL_PROPERTY
U+W
SciTegic.value.DoubleValue
-2.775

@<SCITEGIC>MOL_PROPERTY
Grad RMS
SciTegic.value.DoubleValue
0.000000

@<SCITEGIC>MOL_PROPERTY
U
SciTegic.value.DoubleValue
-0.184

@<SCITEGIC>MOL_PROPERTY
W
SciTegic.value.DoubleValue
-2.591

@<SCITEGIC>MOL_PROPERTY
W(PB)
SciTegic.value.DoubleValue
-4.184

@<SCITEGIC>MOL_PROPERTY
W(SA)
SciTegic.value.DoubleValue
1.593

@<SCITEGIC>MOL_PROPERTY
Valence
SciTegic.value.DoubleValue
6.840

@<SCITEGIC>MOL_PROPERTY
Coulomb
SciTegic.value.DoubleValue
-7.916

@<SCITEGIC>MOL_PROPERTY
VdW
SciTegic.value.DoubleValue
0.893

@<SCITEGIC>MOL_PROPERTY
VdW6
SciTegic.value.DoubleValue
-2.167

@<SCITEGIC>MOL_PROPERTY
VdW12
SciTegic.value.DoubleValue
3.060

@<SCITEGIC>MOL_PROPERTY
Bond
SciTegic.value.DoubleValue
0.059

@<SCITEGIC>MOL_PROPERTY
Angle
SciTegic.value.DoubleValue
0.918

@<SCITEGIC>MOL_PROPERTY
Pdih
SciTegic.value.DoubleValue
5.862

@<SCITEGIC>MOL_PROPERTY
Idih
SciTegic.value.DoubleValue
0.000

@<SCITEGIC>MOL_PROPERTY
Tether
SciTegic.value.DoubleValue
0.000

@<TRIPOS>MOLECULE
guest-s16_confgen4.mol2 : confsearch ligand conformer 300
          13          13           1
SMALL
USER_CHARGES
 
@<TRIPOS>ATOM
       1    C1      18.984703   18.949787   21.335398 C.3        1 MOL1        -0.1693
       2    H1      18.526830   19.528025   20.524000 H          1 MOL1         0.0829
       3    H2      18.602210   17.922321   21.287346 H          1 MOL1         0.0829
       4    C2      18.934061   19.605479   22.755835 C.3        1 MOL1        -0.1768
       5    H3      18.950428   20.702161   22.749747 H          1 MOL1         0.0829
       6    H4      18.122556   19.273073   23.412854 H          1 MOL1         0.0829
       7    C3      20.327094   18.949650   23.007510 C.3        1 MOL1         0.1211
       8    H5      21.015988   19.550158   23.615212 H          1 MOL1         0.0786
       9    C4      20.540012   19.067926   21.466513 C.3        1 MOL1        -0.1768
      10    H6      20.950134   20.032807   21.144301 H          1 MOL1         0.0829
      11    H7      21.126350   18.267627   21.001285 H          1 MOL1         0.0829
      12    O1      20.278443   17.627322   23.498232 O.3        1 MOL1        -0.5515
      13    H8      19.653048   17.141634   22.921776 H          1 MOL1         0.3773
@<TRIPOS>BOND
    1     1     2    1
    2     1     3    1
    3     1     4    1
    4     4     5    1
    5     4     6    1
    6     4     7    1
    7     7     8    1
    8     1     9    1
    9     7     9    1
   10     9    10    1
   11     9    11    1
   12     7    12    1
   13    12    13    1
@<TRIPOS>SUBSTRUCTURE
       1 MOL1            1 RESIDUE      1      MOL     
@<SCITEGIC>MOL_PROPERTY
VConf Rank
SciTegic.value.IntegerValue
300

@<SCITEGIC>MOL_PROPERTY
Conf_Id
SciTegic.value.IntegerValue
44

@<SCITEGIC>MOL_PROPERTY
Delta U+W
SciTegic.value.DoubleValue
0.823

@<SCITEGIC>MOL_PROPERTY
U+W
SciTegic.value.DoubleValue
-2.308

@<SCITEGIC>MOL_PROPERTY
Grad RMS
SciTegic.value.DoubleValue
0.000000

@<SCITEGIC>MOL_PROPERTY
U
SciTegic.value.DoubleValue
0.039

@<SCITEGIC>MOL_PROPERTY
W
SciTegic.value.DoubleValue
-2.348

@<SCITEGIC>MOL_PROPERTY
W(PB)
SciTegic.value.DoubleValue
-3.918

@<SCITEGIC>MOL_PROPERTY
W(SA)
SciTegic.value.DoubleValue
1.571

@<SCITEGIC>MOL_PROPERTY
Valence
SciTegic.value.DoubleValue
7.320

@<SCITEGIC>MOL_PROPERTY
Coulomb
SciTegic.value.DoubleValue
-8.530

@<SCITEGIC>MOL_PROPERTY
VdW
SciTegic.value.DoubleValue
1.249

@<SCITEGIC>MOL_PROPERTY
VdW6
SciTegic.value.DoubleValue
-2.615

@<SCITEGIC>MOL_PROPERTY
VdW12
SciTegic.value.DoubleValue
3.864

@<SCITEGIC>MOL_PROPERTY
Bond
SciTegic.value.DoubleValue
0.056

@<SCITEGIC>MOL_PROPERTY
Angle
SciTegic.value.DoubleValue
0.694

@<SCITEGIC>MOL_PROPERTY
Pdih
SciTegic.value.DoubleValue
6.570

@<SCITEGIC>MOL_PROPERTY
Idih
SciTegic.value.DoubleValue
0.000

@<SCITEGIC>MOL_PROPERTY
Tether
SciTegic.value.DoubleValue
0.000

@<TRIPOS>MOLECULE
guest-s16_confgen4.mol2 : confsearch ligand conformer 301
          13          13           1
SMALL
USER_CHARGES
 
@<TRIPOS>ATOM
       1    C1      18.851058   18.998889   23.284367 C.3        1 MOL1        -0.1693
       2    H1      18.739174   19.965193   23.793605 H          1 MOL1         0.0829
       3    H2      18.192627   18.268689   23.769768 H          1 MOL1         0.0829
       4    C2      20.331234   18.545682   23.058558 C.3        1 MOL1        -0.1768
       5    H3      21.052663   18.850783   23.824335 H          1 MOL1         0.0829
       6    H4      20.458883   17.474234   22.860340 H          1 MOL1         0.0829
       7    C3      20.281335   19.437046   21.781128 C.3        1 MOL1         0.1211
       8    H5      20.473657   20.501080   21.975824 H          1 MOL1         0.0786
       9    C4      18.768178   19.067927   21.723696 C.3        1 MOL1        -0.1768
      10    H6      18.104546   19.834863   21.309483 H          1 MOL1         0.0829
      11    H7      18.550802   18.110617   21.233696 H          1 MOL1         0.0829
      12    O1      21.055058   18.979112   20.696602 O.3        1 MOL1        -0.5515
      13    H8      20.813512   19.523791   19.916741 H          1 MOL1         0.3773
@<TRIPOS>BOND
    1     1     2    1
    2     1     3    1
    3     1     4    1
    4     4     5    1
    5     4     6    1
    6     4     7    1
    7     7     8    1
    8     1     9    1
    9     7     9    1
   10     9    10    1
   11     9    11    1
   12     7    12    1
   13    12    13    1
@<TRIPOS>SUBSTRUCTURE
       1 MOL1            1 RESIDUE      1      MOL     
@<SCITEGIC>MOL_PROPERTY
VConf Rank
SciTegic.value.IntegerValue
301

@<SCITEGIC>MOL_PROPERTY
Conf_Id
SciTegic.value.IntegerValue
22

@<SCITEGIC>MOL_PROPERTY
Delta U+W
SciTegic.value.DoubleValue
0.000

@<SCITEGIC>MOL_PROPERTY
U+W
SciTegic.value.DoubleValue
-3.131

@<SCITEGIC>MOL_PROPERTY
Grad RMS
SciTegic.value.DoubleValue
0.000000

@<SCITEGIC>MOL_PROPERTY
U
SciTegic.value.DoubleValue
-0.154

@<SCITEGIC>MOL_PROPERTY
W
SciTegic.value.DoubleValue
-2.978

@<SCITEGIC>MOL_PROPERTY
W(PB)
SciTegic.value.DoubleValue
-4.579

@<SCITEGIC>MOL_PROPERTY
W(SA)
SciTegic.value.DoubleValue
1.601

@<SCITEGIC>MOL_PROPERTY
Valence
SciTegic.value.DoubleValue
6.333

@<SCITEGIC>MOL_PROPERTY
Coulomb
SciTegic.value.DoubleValue
-7.439

@<SCITEGIC>MOL_PROPERTY
VdW
SciTegic.value.DoubleValue
0.952

@<SCITEGIC>MOL_PROPERTY
VdW6
SciTegic.value.DoubleValue
-2.120

@<SCITEGIC>MOL_PROPERTY
VdW12
SciTegic.value.DoubleValue
3.072

@<SCITEGIC>MOL_PROPERTY
Bond
SciTegic.value.DoubleValue
0.065

@<SCITEGIC>MOL_PROPERTY
Angle
SciTegic.value.DoubleValue
0.931

@<SCITEGIC>MOL_PROPERTY
Pdih
SciTegic.value.DoubleValue
5.338

@<SCITEGIC>MOL_PROPERTY
Idih
SciTegic.value.DoubleValue
0.000

@<SCITEGIC>MOL_PROPERTY
Tether
SciTegic.value.DoubleValue
0.000

@<TRIPOS>MOLECULE
guest-s16_confgen4.mol2 : confsearch ligand conformer 302
          13          13           1
SMALL
USER_CHARGES
 
@<TRIPOS>ATOM
       1    C1      20.763311   19.523117   21.931815 C.3        1 MOL1        -0.1693
       2    H1      20.664240   20.609234   21.804854 H          1 MOL1         0.0829
       3    H2      21.796908   19.236535   21.704033 H          1 MOL1         0.0829
       4    C2      19.646485   18.677988   21.234831 C.3        1 MOL1        -0.1768
       5    H3      19.903287   17.623529   21.073700 H          1 MOL1         0.0829
       6    H4      19.241492   19.088671   20.303438 H          1 MOL1         0.0829
       7    C3      18.807660   18.951093   22.519736 C.3        1 MOL1         0.1211
       8    H5      18.293902   19.922233   22.518782 H          1 MOL1         0.0786
       9    C4      20.174203   18.964116   23.268892 C.3        1 MOL1        -0.1768
      10    H6      20.544834   17.972083   23.555401 H          1 MOL1         0.0829
      11    H7      20.234278   19.627440   24.138578 H          1 MOL1         0.0829
      12    O1      17.925329   17.918742   22.894292 O.3        1 MOL1        -0.5515
      13    H8      17.186170   17.919598   22.248657 H          1 MOL1         0.3773
@<TRIPOS>BOND
    1     1     2    1
    2     1     3    1
    3     1     4    1
    4     4     5    1
    5     4     6    1
    6     4     7    1
    7     7     8    1
    8     1     9    1
    9     7     9    1
   10     9    10    1
   11     9    11    1
   12     7    12    1
   13    12    13    1
@<TRIPOS>SUBSTRUCTURE
       1 MOL1            1 RESIDUE      1      MOL     
@<SCITEGIC>MOL_PROPERTY
VConf Rank
SciTegic.value.IntegerValue
302

@<SCITEGIC>MOL_PROPERTY
Conf_Id
SciTegic.value.IntegerValue
19

@<SCITEGIC>MOL_PROPERTY
Delta U+W
SciTegic.value.DoubleValue
-0.011

@<SCITEGIC>MOL_PROPERTY
U+W
SciTegic.value.DoubleValue
-3.142

@<SCITEGIC>MOL_PROPERTY
Grad RMS
SciTegic.value.DoubleValue
0.000000

@<SCITEGIC>MOL_PROPERTY
U
SciTegic.value.DoubleValue
-0.154

@<SCITEGIC>MOL_PROPERTY
W
SciTegic.value.DoubleValue
-2.989

@<SCITEGIC>MOL_PROPERTY
W(PB)
SciTegic.value.DoubleValue
-4.588

@<SCITEGIC>MOL_PROPERTY
W(SA)
SciTegic.value.DoubleValue
1.599

@<SCITEGIC>MOL_PROPERTY
Valence
SciTegic.value.DoubleValue
6.334

@<SCITEGIC>MOL_PROPERTY
Coulomb
SciTegic.value.DoubleValue
-7.439

@<SCITEGIC>MOL_PROPERTY
VdW
SciTegic.value.DoubleValue
0.951

@<SCITEGIC>MOL_PROPERTY
VdW6
SciTegic.value.DoubleValue
-2.120

@<SCITEGIC>MOL_PROPERTY
VdW12
SciTegic.value.DoubleValue
3.072

@<SCITEGIC>MOL_PROPERTY
Bond
SciTegic.value.DoubleValue
0.065

@<SCITEGIC>MOL_PROPERTY
Angle
SciTegic.value.DoubleValue
0.930

@<SCITEGIC>MOL_PROPERTY
Pdih
SciTegic.value.DoubleValue
5.339

@<SCITEGIC>MOL_PROPERTY
Idih
SciTegic.value.DoubleValue
0.000

@<SCITEGIC>MOL_PROPERTY
Tether
SciTegic.value.DoubleValue
0.000

@<TRIPOS>MOLECULE
guest-s16_confgen4.mol2 : confsearch ligand conformer 303
          13          13           1
SMALL
USER_CHARGES
 
@<TRIPOS>ATOM
       1    C1      19.534503   20.101282   21.639367 C.3        1 MOL1        -0.1693
       2    H1      19.379472   21.184656   21.704497 H          1 MOL1         0.0829
       3    H2      19.739648   19.838228   20.593458 H          1 MOL1         0.0829
       4    C2      18.453268   19.208068   22.333682 C.3        1 MOL1        -0.1768
       5    H3      17.984552   19.663052   23.214625 H          1 MOL1         0.0829
       6    H4      17.665797   18.812316   21.682789 H          1 MOL1         0.0829
       7    C3      19.617164   18.222926   22.665751 C.3        1 MOL1         0.1211
       8    H5      19.524518   17.716033   23.634920 H          1 MOL1         0.0786
       9    C4      20.534834   19.485432   22.673178 C.3        1 MOL1        -0.1768
      10    H6      21.560482   19.335324   22.318403 H          1 MOL1         0.0829
      11    H7      20.571037   20.008324   23.636634 H          1 MOL1         0.0829
      12    O1      19.906069   17.280519   21.652563 O.3        1 MOL1        -0.5515
      13    H8      20.750342   16.843537   21.894234 H          1 MOL1         0.3773
@<TRIPOS>BOND
    1     1     2    1
    2     1     3    1
    3     1     4    1
    4     4     5    1
    5     4     6    1
    6     4     7    1
    7     7     8    1
    8     1     9    1
    9     7     9    1
   10     9    10    1
   11     9    11    1
   12     7    12    1
   13    12    13    1
@<TRIPOS>SUBSTRUCTURE
       1 MOL1            1 RESIDUE      1      MOL     
@<SCITEGIC>MOL_PROPERTY
VConf Rank
SciTegic.value.IntegerValue
303

@<SCITEGIC>MOL_PROPERTY
Conf_Id
SciTegic.value.IntegerValue
20

@<SCITEGIC>MOL_PROPERTY
Delta U+W
SciTegic.value.DoubleValue
1.030

@<SCITEGIC>MOL_PROPERTY
U+W
SciTegic.value.DoubleValue
-2.101

@<SCITEGIC>MOL_PROPERTY
Grad RMS
SciTegic.value.DoubleValue
0.000000

@<SCITEGIC>MOL_PROPERTY
U
SciTegic.value.DoubleValue
0.841

@<SCITEGIC>MOL_PROPERTY
W
SciTegic.value.DoubleValue
-2.942

@<SCITEGIC>MOL_PROPERTY
W(PB)
SciTegic.value.DoubleValue
-4.530

@<SCITEGIC>MOL_PROPERTY
W(SA)
SciTegic.value.DoubleValue
1.587

@<SCITEGIC>MOL_PROPERTY
Valence
SciTegic.value.DoubleValue
6.736

@<SCITEGIC>MOL_PROPERTY
Coulomb
SciTegic.value.DoubleValue
-7.246

@<SCITEGIC>MOL_PROPERTY
VdW
SciTegic.value.DoubleValue
1.352

@<SCITEGIC>MOL_PROPERTY
VdW6
SciTegic.value.DoubleValue
-2.500

@<SCITEGIC>MOL_PROPERTY
VdW12
SciTegic.value.DoubleValue
3.851

@<SCITEGIC>MOL_PROPERTY
Bond
SciTegic.value.DoubleValue
0.063

@<SCITEGIC>MOL_PROPERTY
Angle
SciTegic.value.DoubleValue
0.687

@<SCITEGIC>MOL_PROPERTY
Pdih
SciTegic.value.DoubleValue
5.986

@<SCITEGIC>MOL_PROPERTY
Idih
SciTegic.value.DoubleValue
0.000

@<SCITEGIC>MOL_PROPERTY
Tether
SciTegic.value.DoubleValue
0.000

@<TRIPOS>MOLECULE
guest-s16_confgen4.mol2 : confsearch ligand conformer 304
          13          13           1
SMALL
USER_CHARGES
 
@<TRIPOS>ATOM
       1    C1      20.938817   19.149327   22.640522 C.3        1 MOL1        -0.1693
       2    H1      21.175287   18.838383   23.666711 H          1 MOL1         0.0829
       3    H2      21.838993   19.584834   22.190591 H          1 MOL1         0.0829
       4    C2      19.625032   19.986447   22.497145 C.3        1 MOL1        -0.1768
       5    H3      19.371367   20.634324   23.343432 H          1 MOL1         0.0829
       6    H4      19.554243   20.571876   21.572132 H          1 MOL1         0.0829
       7    C3      18.897106   18.608874   22.457490 C.3        1 MOL1         0.1211
       8    H5      18.701033   18.181445   23.450241 H          1 MOL1         0.0786
       9    C4      20.196017   18.070558   21.785032 C.3        1 MOL1        -0.1768
      10    H6      20.252851   18.227763   20.700852 H          1 MOL1         0.0829
      11    H7      20.446617   17.026414   22.002412 H          1 MOL1         0.0829
      12    O1      17.738479   18.560232   21.659346 O.3        1 MOL1        -0.5515
      13    H8      17.972760   18.952361   20.792129 H          1 MOL1         0.3773
@<TRIPOS>BOND
    1     1     2    1
    2     1     3    1
    3     1     4    1
    4     4     5    1
    5     4     6    1
    6     4     7    1
    7     7     8    1
    8     1     9    1
    9     7     9    1
   10     9    10    1
   11     9    11    1
   12     7    12    1
   13    12    13    1
@<TRIPOS>SUBSTRUCTURE
       1 MOL1            1 RESIDUE      1      MOL     
@<SCITEGIC>MOL_PROPERTY
VConf Rank
SciTegic.value.IntegerValue
304

@<SCITEGIC>MOL_PROPERTY
Conf_Id
SciTegic.value.IntegerValue
24

@<SCITEGIC>MOL_PROPERTY
Delta U+W
SciTegic.value.DoubleValue
0.356

@<SCITEGIC>MOL_PROPERTY
U+W
SciTegic.value.DoubleValue
-2.775

@<SCITEGIC>MOL_PROPERTY
Grad RMS
SciTegic.value.DoubleValue
0.000000

@<SCITEGIC>MOL_PROPERTY
U
SciTegic.value.DoubleValue
-0.184

@<SCITEGIC>MOL_PROPERTY
W
SciTegic.value.DoubleValue
-2.591

@<SCITEGIC>MOL_PROPERTY
W(PB)
SciTegic.value.DoubleValue
-4.184

@<SCITEGIC>MOL_PROPERTY
W(SA)
SciTegic.value.DoubleValue
1.593

@<SCITEGIC>MOL_PROPERTY
Valence
SciTegic.value.DoubleValue
6.840

@<SCITEGIC>MOL_PROPERTY
Coulomb
SciTegic.value.DoubleValue
-7.916

@<SCITEGIC>MOL_PROPERTY
VdW
SciTegic.value.DoubleValue
0.893

@<SCITEGIC>MOL_PROPERTY
VdW6
SciTegic.value.DoubleValue
-2.167

@<SCITEGIC>MOL_PROPERTY
VdW12
SciTegic.value.DoubleValue
3.060

@<SCITEGIC>MOL_PROPERTY
Bond
SciTegic.value.DoubleValue
0.059

@<SCITEGIC>MOL_PROPERTY
Angle
SciTegic.value.DoubleValue
0.918

@<SCITEGIC>MOL_PROPERTY
Pdih
SciTegic.value.DoubleValue
5.862

@<SCITEGIC>MOL_PROPERTY
Idih
SciTegic.value.DoubleValue
0.000

@<SCITEGIC>MOL_PROPERTY
Tether
SciTegic.value.DoubleValue
0.000

@<TRIPOS>MOLECULE
guest-s16_confgen4.mol2 : confsearch ligand conformer 305
          13          13           1
SMALL
USER_CHARGES
 
@<TRIPOS>ATOM
       1    C1      19.499019   18.084684   21.543326 C.3        1 MOL1        -0.1693
       2    H1      18.767712   17.333306   21.222399 H          1 MOL1         0.0829
       3    H2      20.434639   17.913592   20.995932 H          1 MOL1         0.0829
       4    C2      19.663917   18.262121   23.089761 C.3        1 MOL1        -0.1768
       5    H3      18.754865   18.058969   23.668872 H          1 MOL1         0.0829
       6    H4      20.498676   17.723152   23.551712 H          1 MOL1         0.0829
       7    C3      19.907498   19.775176   22.797658 C.3        1 MOL1         0.1211
       8    H5      19.502221   20.461171   23.552409 H          1 MOL1         0.0786
       9    C4      18.999535   19.568141   21.545966 C.3        1 MOL1        -0.1768
      10    H6      17.927587   19.685204   21.746560 H          1 MOL1         0.0829
      11    H7      19.256004   20.165949   20.664174 H          1 MOL1         0.0829
      12    O1      21.246568   20.113619   22.507702 O.3        1 MOL1        -0.5515
      13    H8      21.553616   19.472887   21.833538 H          1 MOL1         0.3773
@<TRIPOS>BOND
    1     1     2    1
    2     1     3    1
    3     1     4    1
    4     4     5    1
    5     4     6    1
    6     4     7    1
    7     7     8    1
    8     1     9    1
    9     7     9    1
   10     9    10    1
   11     9    11    1
   12     7    12    1
   13    12    13    1
@<TRIPOS>SUBSTRUCTURE
       1 MOL1            1 RESIDUE      1      MOL     
@<SCITEGIC>MOL_PROPERTY
VConf Rank
SciTegic.value.IntegerValue
305

@<SCITEGIC>MOL_PROPERTY
Conf_Id
SciTegic.value.IntegerValue
44

@<SCITEGIC>MOL_PROPERTY
Delta U+W
SciTegic.value.DoubleValue
0.823

@<SCITEGIC>MOL_PROPERTY
U+W
SciTegic.value.DoubleValue
-2.308

@<SCITEGIC>MOL_PROPERTY
Grad RMS
SciTegic.value.DoubleValue
0.000000

@<SCITEGIC>MOL_PROPERTY
U
SciTegic.value.DoubleValue
0.039

@<SCITEGIC>MOL_PROPERTY
W
SciTegic.value.DoubleValue
-2.348

@<SCITEGIC>MOL_PROPERTY
W(PB)
SciTegic.value.DoubleValue
-3.918

@<SCITEGIC>MOL_PROPERTY
W(SA)
SciTegic.value.DoubleValue
1.571

@<SCITEGIC>MOL_PROPERTY
Valence
SciTegic.value.DoubleValue
7.320

@<SCITEGIC>MOL_PROPERTY
Coulomb
SciTegic.value.DoubleValue
-8.530

@<SCITEGIC>MOL_PROPERTY
VdW
SciTegic.value.DoubleValue
1.249

@<SCITEGIC>MOL_PROPERTY
VdW6
SciTegic.value.DoubleValue
-2.615

@<SCITEGIC>MOL_PROPERTY
VdW12
SciTegic.value.DoubleValue
3.864

@<SCITEGIC>MOL_PROPERTY
Bond
SciTegic.value.DoubleValue
0.056

@<SCITEGIC>MOL_PROPERTY
Angle
SciTegic.value.DoubleValue
0.694

@<SCITEGIC>MOL_PROPERTY
Pdih
SciTegic.value.DoubleValue
6.570

@<SCITEGIC>MOL_PROPERTY
Idih
SciTegic.value.DoubleValue
0.000

@<SCITEGIC>MOL_PROPERTY
Tether
SciTegic.value.DoubleValue
0.000

@<TRIPOS>MOLECULE
guest-s16_confgen4.mol2 : confsearch ligand conformer 306
          13          13           1
SMALL
USER_CHARGES
 
@<TRIPOS>ATOM
       1    C1      19.552475   18.534146   21.036164 C.3        1 MOL1        -0.1693
       2    H1      20.437916   17.970764   20.713393 H          1 MOL1         0.0829
       3    H2      18.788278   18.464763   20.252885 H          1 MOL1         0.0829
       4    C2      19.852519   19.970754   21.577865 C.3        1 MOL1        -0.1768
       5    H3      20.700256   20.492715   21.120854 H          1 MOL1         0.0829
       6    H4      18.988323   20.646431   21.592454 H          1 MOL1         0.0829
       7    C3      20.143693   19.265675   22.936882 C.3        1 MOL1         0.1211
       8    H5      21.160181   18.856032   23.014386 H          1 MOL1         0.0786
       9    C4      19.073721   18.223075   22.492652 C.3        1 MOL1        -0.1768
      10    H6      19.231496   17.197276   22.843386 H          1 MOL1         0.0829
      11    H7      18.037603   18.513986   22.706249 H          1 MOL1         0.0829
      12    O1      19.816624   20.013049   24.085361 O.3        1 MOL1        -0.5515
      13    H8      19.889643   19.409239   24.855612 H          1 MOL1         0.3773
@<TRIPOS>BOND
    1     1     2    1
    2     1     3    1
    3     1     4    1
    4     4     5    1
    5     4     6    1
    6     4     7    1
    7     7     8    1
    8     1     9    1
    9     7     9    1
   10     9    10    1
   11     9    11    1
   12     7    12    1
   13    12    13    1
@<TRIPOS>SUBSTRUCTURE
       1 MOL1            1 RESIDUE      1      MOL     
@<SCITEGIC>MOL_PROPERTY
VConf Rank
SciTegic.value.IntegerValue
306

@<SCITEGIC>MOL_PROPERTY
Conf_Id
SciTegic.value.IntegerValue
22

@<SCITEGIC>MOL_PROPERTY
Delta U+W
SciTegic.value.DoubleValue
0.000

@<SCITEGIC>MOL_PROPERTY
U+W
SciTegic.value.DoubleValue
-3.131

@<SCITEGIC>MOL_PROPERTY
Grad RMS
SciTegic.value.DoubleValue
0.000000

@<SCITEGIC>MOL_PROPERTY
U
SciTegic.value.DoubleValue
-0.154

@<SCITEGIC>MOL_PROPERTY
W
SciTegic.value.DoubleValue
-2.978

@<SCITEGIC>MOL_PROPERTY
W(PB)
SciTegic.value.DoubleValue
-4.579

@<SCITEGIC>MOL_PROPERTY
W(SA)
SciTegic.value.DoubleValue
1.601

@<SCITEGIC>MOL_PROPERTY
Valence
SciTegic.value.DoubleValue
6.333

@<SCITEGIC>MOL_PROPERTY
Coulomb
SciTegic.value.DoubleValue
-7.439

@<SCITEGIC>MOL_PROPERTY
VdW
SciTegic.value.DoubleValue
0.952

@<SCITEGIC>MOL_PROPERTY
VdW6
SciTegic.value.DoubleValue
-2.120

@<SCITEGIC>MOL_PROPERTY
VdW12
SciTegic.value.DoubleValue
3.072

@<SCITEGIC>MOL_PROPERTY
Bond
SciTegic.value.DoubleValue
0.065

@<SCITEGIC>MOL_PROPERTY
Angle
SciTegic.value.DoubleValue
0.931

@<SCITEGIC>MOL_PROPERTY
Pdih
SciTegic.value.DoubleValue
5.338

@<SCITEGIC>MOL_PROPERTY
Idih
SciTegic.value.DoubleValue
0.000

@<SCITEGIC>MOL_PROPERTY
Tether
SciTegic.value.DoubleValue
0.000

@<TRIPOS>MOLECULE
guest-s16_confgen4.mol2 : confsearch ligand conformer 307
          13          13           1
SMALL
USER_CHARGES
 
@<TRIPOS>ATOM
       1    C1      20.877412   19.090685   21.850260 C.3        1 MOL1        -0.1693
       2    H1      21.609010   19.002060   22.664198 H          1 MOL1         0.0829
       3    H2      21.409901   19.348352   20.927004 H          1 MOL1         0.0829
       4    C2      19.625066   19.965243   22.188058 C.3        1 MOL1        -0.1768
       5    H3      19.069272   20.326502   21.313770 H          1 MOL1         0.0829
       6    H4      19.793490   20.805336   22.870736 H          1 MOL1         0.0829
       7    C3      19.046098   18.670123   22.833544 C.3        1 MOL1         0.1211
       8    H5      19.393689   18.489754   23.860048 H          1 MOL1         0.0786
       9    C4      19.863124   17.903900   21.749932 C.3        1 MOL1        -0.1768
      10    H6      19.357764   17.811673   20.780555 H          1 MOL1         0.0829
      11    H7      20.240329   16.918946   22.045808 H          1 MOL1         0.0829
      12    O1      17.647385   18.526663   22.746543 O.3        1 MOL1        -0.5515
      13    H8      17.249558   19.175142   23.366553 H          1 MOL1         0.3773
@<TRIPOS>BOND
    1     1     2    1
    2     1     3    1
    3     1     4    1
    4     4     5    1
    5     4     6    1
    6     4     7    1
    7     7     8    1
    8     1     9    1
    9     7     9    1
   10     9    10    1
   11     9    11    1
   12     7    12    1
   13    12    13    1
@<TRIPOS>SUBSTRUCTURE
       1 MOL1            1 RESIDUE      1      MOL     
@<SCITEGIC>MOL_PROPERTY
VConf Rank
SciTegic.value.IntegerValue
307

@<SCITEGIC>MOL_PROPERTY
Conf_Id
SciTegic.value.IntegerValue
19

@<SCITEGIC>MOL_PROPERTY
Delta U+W
SciTegic.value.DoubleValue
-0.011

@<SCITEGIC>MOL_PROPERTY
U+W
SciTegic.value.DoubleValue
-3.142

@<SCITEGIC>MOL_PROPERTY
Grad RMS
SciTegic.value.DoubleValue
0.000000

@<SCITEGIC>MOL_PROPERTY
U
SciTegic.value.DoubleValue
-0.154

@<SCITEGIC>MOL_PROPERTY
W
SciTegic.value.DoubleValue
-2.989

@<SCITEGIC>MOL_PROPERTY
W(PB)
SciTegic.value.DoubleValue
-4.588

@<SCITEGIC>MOL_PROPERTY
W(SA)
SciTegic.value.DoubleValue
1.599

@<SCITEGIC>MOL_PROPERTY
Valence
SciTegic.value.DoubleValue
6.334

@<SCITEGIC>MOL_PROPERTY
Coulomb
SciTegic.value.DoubleValue
-7.439

@<SCITEGIC>MOL_PROPERTY
VdW
SciTegic.value.DoubleValue
0.951

@<SCITEGIC>MOL_PROPERTY
VdW6
SciTegic.value.DoubleValue
-2.120

@<SCITEGIC>MOL_PROPERTY
VdW12
SciTegic.value.DoubleValue
3.072

@<SCITEGIC>MOL_PROPERTY
Bond
SciTegic.value.DoubleValue
0.065

@<SCITEGIC>MOL_PROPERTY
Angle
SciTegic.value.DoubleValue
0.930

@<SCITEGIC>MOL_PROPERTY
Pdih
SciTegic.value.DoubleValue
5.339

@<SCITEGIC>MOL_PROPERTY
Idih
SciTegic.value.DoubleValue
0.000

@<SCITEGIC>MOL_PROPERTY
Tether
SciTegic.value.DoubleValue
0.000

@<TRIPOS>MOLECULE
guest-s16_confgen4.mol2 : confsearch ligand conformer 308
          13          13           1
SMALL
USER_CHARGES
 
@<TRIPOS>ATOM
       1    C1      18.496218   19.407103   22.599336 C.3        1 MOL1        -0.1693
       2    H1      17.447665   19.457272   22.283113 H          1 MOL1         0.0829
       3    H2      18.567672   19.761663   23.635863 H          1 MOL1         0.0829
       4    C2      19.541108   20.041651   21.622338 C.3        1 MOL1        -0.1768
       5    H3      19.264053   19.988268   20.562548 H          1 MOL1         0.0829
       6    H4      19.853880   21.066342   21.851633 H          1 MOL1         0.0829
       7    C3      20.516799   18.915251   22.085673 C.3        1 MOL1         0.1211
       8    H5      21.185245   18.538159   21.300947 H          1 MOL1         0.0786
       9    C4      19.235314   18.056059   22.321637 C.3        1 MOL1        -0.1768
      10    H6      19.277809   17.350832   23.159015 H          1 MOL1         0.0829
      11    H7      18.883491   17.520926   21.431228 H          1 MOL1         0.0829
      12    O1      21.258914   19.213456   23.251213 O.3        1 MOL1        -0.5515
      13    H8      21.693519   18.382714   23.539557 H          1 MOL1         0.3773
@<TRIPOS>BOND
    1     1     2    1
    2     1     3    1
    3     1     4    1
    4     4     5    1
    5     4     6    1
    6     4     7    1
    7     7     8    1
    8     1     9    1
    9     7     9    1
   10     9    10    1
   11     9    11    1
   12     7    12    1
   13    12    13    1
@<TRIPOS>SUBSTRUCTURE
       1 MOL1            1 RESIDUE      1      MOL     
@<SCITEGIC>MOL_PROPERTY
VConf Rank
SciTegic.value.IntegerValue
308

@<SCITEGIC>MOL_PROPERTY
Conf_Id
SciTegic.value.IntegerValue
20

@<SCITEGIC>MOL_PROPERTY
Delta U+W
SciTegic.value.DoubleValue
1.030

@<SCITEGIC>MOL_PROPERTY
U+W
SciTegic.value.DoubleValue
-2.101

@<SCITEGIC>MOL_PROPERTY
Grad RMS
SciTegic.value.DoubleValue
0.000000

@<SCITEGIC>MOL_PROPERTY
U
SciTegic.value.DoubleValue
0.841

@<SCITEGIC>MOL_PROPERTY
W
SciTegic.value.DoubleValue
-2.942

@<SCITEGIC>MOL_PROPERTY
W(PB)
SciTegic.value.DoubleValue
-4.530

@<SCITEGIC>MOL_PROPERTY
W(SA)
SciTegic.value.DoubleValue
1.587

@<SCITEGIC>MOL_PROPERTY
Valence
SciTegic.value.DoubleValue
6.736

@<SCITEGIC>MOL_PROPERTY
Coulomb
SciTegic.value.DoubleValue
-7.246

@<SCITEGIC>MOL_PROPERTY
VdW
SciTegic.value.DoubleValue
1.352

@<SCITEGIC>MOL_PROPERTY
VdW6
SciTegic.value.DoubleValue
-2.500

@<SCITEGIC>MOL_PROPERTY
VdW12
SciTegic.value.DoubleValue
3.851

@<SCITEGIC>MOL_PROPERTY
Bond
SciTegic.value.DoubleValue
0.063

@<SCITEGIC>MOL_PROPERTY
Angle
SciTegic.value.DoubleValue
0.687

@<SCITEGIC>MOL_PROPERTY
Pdih
SciTegic.value.DoubleValue
5.986

@<SCITEGIC>MOL_PROPERTY
Idih
SciTegic.value.DoubleValue
0.000

@<SCITEGIC>MOL_PROPERTY
Tether
SciTegic.value.DoubleValue
0.000

@<TRIPOS>MOLECULE
guest-s16_confgen4.mol2 : confsearch ligand conformer 309
          13          13           1
SMALL
USER_CHARGES
 
@<TRIPOS>ATOM
       1    C1      19.158583   17.865206   22.548068 C.3        1 MOL1        -0.1693
       2    H1      19.782293   17.018449   22.863753 H          1 MOL1         0.0829
       3    H2      18.105945   17.561936   22.597094 H          1 MOL1         0.0829
       4    C2      19.614269   18.553481   21.219165 C.3        1 MOL1        -0.1768
       5    H3      20.078362   17.900000   20.472257 H          1 MOL1         0.0829
       6    H4      18.840687   19.156135   20.727466 H          1 MOL1         0.0829
       7    C3      20.599335   19.359799   22.118417 C.3        1 MOL1         0.1211
       8    H5      21.532473   18.826099   22.344494 H          1 MOL1         0.0786
       9    C4      19.513413   19.228378   23.228668 C.3        1 MOL1        -0.1768
      10    H6      18.717289   19.981878   23.186118 H          1 MOL1         0.0829
      11    H7      19.888437   19.170935   24.256457 H          1 MOL1         0.0829
      12    O1      20.870776   20.673327   21.690890 O.3        1 MOL1        -0.5515
      13    H8      20.006742   21.097213   21.505188 H          1 MOL1         0.3773
@<TRIPOS>BOND
    1     1     2    1
    2     1     3    1
    3     1     4    1
    4     4     5    1
    5     4     6    1
    6     4     7    1
    7     7     8    1
    8     1     9    1
    9     7     9    1
   10     9    10    1
   11     9    11    1
   12     7    12    1
   13    12    13    1
@<TRIPOS>SUBSTRUCTURE
       1 MOL1            1 RESIDUE      1      MOL     
@<SCITEGIC>MOL_PROPERTY
VConf Rank
SciTegic.value.IntegerValue
309

@<SCITEGIC>MOL_PROPERTY
Conf_Id
SciTegic.value.IntegerValue
24

@<SCITEGIC>MOL_PROPERTY
Delta U+W
SciTegic.value.DoubleValue
0.356

@<SCITEGIC>MOL_PROPERTY
U+W
SciTegic.value.DoubleValue
-2.775

@<SCITEGIC>MOL_PROPERTY
Grad RMS
SciTegic.value.DoubleValue
0.000000

@<SCITEGIC>MOL_PROPERTY
U
SciTegic.value.DoubleValue
-0.184

@<SCITEGIC>MOL_PROPERTY
W
SciTegic.value.DoubleValue
-2.591

@<SCITEGIC>MOL_PROPERTY
W(PB)
SciTegic.value.DoubleValue
-4.184

@<SCITEGIC>MOL_PROPERTY
W(SA)
SciTegic.value.DoubleValue
1.593

@<SCITEGIC>MOL_PROPERTY
Valence
SciTegic.value.DoubleValue
6.840

@<SCITEGIC>MOL_PROPERTY
Coulomb
SciTegic.value.DoubleValue
-7.916

@<SCITEGIC>MOL_PROPERTY
VdW
SciTegic.value.DoubleValue
0.893

@<SCITEGIC>MOL_PROPERTY
VdW6
SciTegic.value.DoubleValue
-2.167

@<SCITEGIC>MOL_PROPERTY
VdW12
SciTegic.value.DoubleValue
3.060

@<SCITEGIC>MOL_PROPERTY
Bond
SciTegic.value.DoubleValue
0.059

@<SCITEGIC>MOL_PROPERTY
Angle
SciTegic.value.DoubleValue
0.918

@<SCITEGIC>MOL_PROPERTY
Pdih
SciTegic.value.DoubleValue
5.862

@<SCITEGIC>MOL_PROPERTY
Idih
SciTegic.value.DoubleValue
0.000

@<SCITEGIC>MOL_PROPERTY
Tether
SciTegic.value.DoubleValue
0.000

@<TRIPOS>MOLECULE
guest-s16_confgen4.mol2 : confsearch ligand conformer 310
          13          13           1
SMALL
USER_CHARGES
 
@<TRIPOS>ATOM
       1    C1      18.683685   19.142643   21.743120 C.3        1 MOL1        -0.1693
       2    H1      17.910762   18.740416   21.077404 H          1 MOL1         0.0829
       3    H2      18.345677   20.117263   22.117503 H          1 MOL1         0.0829
       4    C2      20.145750   19.122902   21.184450 C.3        1 MOL1        -0.1768
       5    H3      20.354774   18.299737   20.490387 H          1 MOL1         0.0829
       6    H4      20.504247   20.056104   20.735760 H          1 MOL1         0.0829
       7    C3      20.604460   18.851061   22.650629 C.3        1 MOL1         0.1211
       8    H5      21.467840   18.180319   22.746380 H          1 MOL1         0.0786
       9    C4      19.216938   18.163987   22.842215 C.3        1 MOL1        -0.1768
      10    H6      19.198230   17.105710   22.554611 H          1 MOL1         0.0829
      11    H7      18.766982   18.262534   23.836466 H          1 MOL1         0.0829
      12    O1      20.804199   20.008985   23.432321 O.3        1 MOL1        -0.5515
      13    H8      20.008312   20.566310   23.308761 H          1 MOL1         0.3773
@<TRIPOS>BOND
    1     1     2    1
    2     1     3    1
    3     1     4    1
    4     4     5    1
    5     4     6    1
    6     4     7    1
    7     7     8    1
    8     1     9    1
    9     7     9    1
   10     9    10    1
   11     9    11    1
   12     7    12    1
   13    12    13    1
@<TRIPOS>SUBSTRUCTURE
       1 MOL1            1 RESIDUE      1      MOL     
@<SCITEGIC>MOL_PROPERTY
VConf Rank
SciTegic.value.IntegerValue
310

@<SCITEGIC>MOL_PROPERTY
Conf_Id
SciTegic.value.IntegerValue
44

@<SCITEGIC>MOL_PROPERTY
Delta U+W
SciTegic.value.DoubleValue
0.823

@<SCITEGIC>MOL_PROPERTY
U+W
SciTegic.value.DoubleValue
-2.308

@<SCITEGIC>MOL_PROPERTY
Grad RMS
SciTegic.value.DoubleValue
0.000000

@<SCITEGIC>MOL_PROPERTY
U
SciTegic.value.DoubleValue
0.039

@<SCITEGIC>MOL_PROPERTY
W
SciTegic.value.DoubleValue
-2.348

@<SCITEGIC>MOL_PROPERTY
W(PB)
SciTegic.value.DoubleValue
-3.918

@<SCITEGIC>MOL_PROPERTY
W(SA)
SciTegic.value.DoubleValue
1.571

@<SCITEGIC>MOL_PROPERTY
Valence
SciTegic.value.DoubleValue
7.320

@<SCITEGIC>MOL_PROPERTY
Coulomb
SciTegic.value.DoubleValue
-8.530

@<SCITEGIC>MOL_PROPERTY
VdW
SciTegic.value.DoubleValue
1.249

@<SCITEGIC>MOL_PROPERTY
VdW6
SciTegic.value.DoubleValue
-2.615

@<SCITEGIC>MOL_PROPERTY
VdW12
SciTegic.value.DoubleValue
3.864

@<SCITEGIC>MOL_PROPERTY
Bond
SciTegic.value.DoubleValue
0.056

@<SCITEGIC>MOL_PROPERTY
Angle
SciTegic.value.DoubleValue
0.694

@<SCITEGIC>MOL_PROPERTY
Pdih
SciTegic.value.DoubleValue
6.570

@<SCITEGIC>MOL_PROPERTY
Idih
SciTegic.value.DoubleValue
0.000

@<SCITEGIC>MOL_PROPERTY
Tether
SciTegic.value.DoubleValue
0.000

@<TRIPOS>MOLECULE
guest-s16_confgen4.mol2 : confsearch ligand conformer 311
          13          13           1
SMALL
USER_CHARGES
 
@<TRIPOS>ATOM
       1    C1      19.853711   18.190304   21.258595 C.3        1 MOL1        -0.1693
       2    H1      18.919488   17.853951   20.789894 H          1 MOL1         0.0829
       3    H2      20.697213   17.744765   20.717912 H          1 MOL1         0.0829
       4    C2      19.889074   18.056894   22.816882 C.3        1 MOL1        -0.1768
       5    H3      19.331448   17.215850   23.243097 H          1 MOL1         0.0829
       6    H4      20.893826   18.073480   23.257090 H          1 MOL1         0.0829
       7    C3      19.155886   19.432074   22.829725 C.3        1 MOL1         0.1211
       8    H5      18.068479   19.355443   22.692850 H          1 MOL1         0.0786
       9    C4      19.939282   19.731017   21.515907 C.3        1 MOL1        -0.1768
      10    H6      19.426809   20.370541   20.788891 H          1 MOL1         0.0829
      11    H7      20.955971   20.114196   21.668586 H          1 MOL1         0.0829
      12    O1      19.465119   20.269303   23.919664 O.3        1 MOL1        -0.5515
      13    H8      19.076423   21.150089   23.729049 H          1 MOL1         0.3773
@<TRIPOS>BOND
    1     1     2    1
    2     1     3    1
    3     1     4    1
    4     4     5    1
    5     4     6    1
    6     4     7    1
    7     7     8    1
    8     1     9    1
    9     7     9    1
   10     9    10    1
   11     9    11    1
   12     7    12    1
   13    12    13    1
@<TRIPOS>SUBSTRUCTURE
       1 MOL1            1 RESIDUE      1      MOL     
@<SCITEGIC>MOL_PROPERTY
VConf Rank
SciTegic.value.IntegerValue
311

@<SCITEGIC>MOL_PROPERTY
Conf_Id
SciTegic.value.IntegerValue
22

@<SCITEGIC>MOL_PROPERTY
Delta U+W
SciTegic.value.DoubleValue
0.000

@<SCITEGIC>MOL_PROPERTY
U+W
SciTegic.value.DoubleValue
-3.131

@<SCITEGIC>MOL_PROPERTY
Grad RMS
SciTegic.value.DoubleValue
0.000000

@<SCITEGIC>MOL_PROPERTY
U
SciTegic.value.DoubleValue
-0.154

@<SCITEGIC>MOL_PROPERTY
W
SciTegic.value.DoubleValue
-2.978

@<SCITEGIC>MOL_PROPERTY
W(PB)
SciTegic.value.DoubleValue
-4.579

@<SCITEGIC>MOL_PROPERTY
W(SA)
SciTegic.value.DoubleValue
1.601

@<SCITEGIC>MOL_PROPERTY
Valence
SciTegic.value.DoubleValue
6.333

@<SCITEGIC>MOL_PROPERTY
Coulomb
SciTegic.value.DoubleValue
-7.439

@<SCITEGIC>MOL_PROPERTY
VdW
SciTegic.value.DoubleValue
0.952

@<SCITEGIC>MOL_PROPERTY
VdW6
SciTegic.value.DoubleValue
-2.120

@<SCITEGIC>MOL_PROPERTY
VdW12
SciTegic.value.DoubleValue
3.072

@<SCITEGIC>MOL_PROPERTY
Bond
SciTegic.value.DoubleValue
0.065

@<SCITEGIC>MOL_PROPERTY
Angle
SciTegic.value.DoubleValue
0.931

@<SCITEGIC>MOL_PROPERTY
Pdih
SciTegic.value.DoubleValue
5.338

@<SCITEGIC>MOL_PROPERTY
Idih
SciTegic.value.DoubleValue
0.000

@<SCITEGIC>MOL_PROPERTY
Tether
SciTegic.value.DoubleValue
0.000

@<TRIPOS>MOLECULE
guest-s16_confgen4.mol2 : confsearch ligand conformer 312
          13          13           1
SMALL
USER_CHARGES
 
@<TRIPOS>ATOM
       1    C1      20.317347   18.400604   21.249788 C.3        1 MOL1        -0.1693
       2    H1      20.314800   17.302616   21.248220 H          1 MOL1         0.0829
       3    H2      20.952123   18.750713   20.427096 H          1 MOL1         0.0829
       4    C2      20.581747   19.052624   22.647033 C.3        1 MOL1        -0.1768
       5    H3      20.907950   20.099519   22.609682 H          1 MOL1         0.0829
       6    H4      21.247119   18.499637   23.319089 H          1 MOL1         0.0829
       7    C3      19.054641   18.858553   22.890912 C.3        1 MOL1         0.1211
       8    H5      18.782646   17.851583   23.236009 H          1 MOL1         0.0786
       9    C4      18.901610   19.058151   21.352866 C.3        1 MOL1        -0.1768
      10    H6      18.857199   20.106591   21.032887 H          1 MOL1         0.0829
      11    H7      18.078476   18.510564   20.881101 H          1 MOL1         0.0829
      12    O1      18.441870   19.843722   23.689976 O.3        1 MOL1        -0.5515
      13    H8      18.744571   19.699505   24.612351 H          1 MOL1         0.3773
@<TRIPOS>BOND
    1     1     2    1
    2     1     3    1
    3     1     4    1
    4     4     5    1
    5     4     6    1
    6     4     7    1
    7     7     8    1
    8     1     9    1
    9     7     9    1
   10     9    10    1
   11     9    11    1
   12     7    12    1
   13    12    13    1
@<TRIPOS>SUBSTRUCTURE
       1 MOL1            1 RESIDUE      1      MOL     
@<SCITEGIC>MOL_PROPERTY
VConf Rank
SciTegic.value.IntegerValue
312

@<SCITEGIC>MOL_PROPERTY
Conf_Id
SciTegic.value.IntegerValue
19

@<SCITEGIC>MOL_PROPERTY
Delta U+W
SciTegic.value.DoubleValue
-0.011

@<SCITEGIC>MOL_PROPERTY
U+W
SciTegic.value.DoubleValue
-3.142

@<SCITEGIC>MOL_PROPERTY
Grad RMS
SciTegic.value.DoubleValue
0.000000

@<SCITEGIC>MOL_PROPERTY
U
SciTegic.value.DoubleValue
-0.154

@<SCITEGIC>MOL_PROPERTY
W
SciTegic.value.DoubleValue
-2.989

@<SCITEGIC>MOL_PROPERTY
W(PB)
SciTegic.value.DoubleValue
-4.588

@<SCITEGIC>MOL_PROPERTY
W(SA)
SciTegic.value.DoubleValue
1.599

@<SCITEGIC>MOL_PROPERTY
Valence
SciTegic.value.DoubleValue
6.334

@<SCITEGIC>MOL_PROPERTY
Coulomb
SciTegic.value.DoubleValue
-7.439

@<SCITEGIC>MOL_PROPERTY
VdW
SciTegic.value.DoubleValue
0.951

@<SCITEGIC>MOL_PROPERTY
VdW6
SciTegic.value.DoubleValue
-2.120

@<SCITEGIC>MOL_PROPERTY
VdW12
SciTegic.value.DoubleValue
3.072

@<SCITEGIC>MOL_PROPERTY
Bond
SciTegic.value.DoubleValue
0.065

@<SCITEGIC>MOL_PROPERTY
Angle
SciTegic.value.DoubleValue
0.930

@<SCITEGIC>MOL_PROPERTY
Pdih
SciTegic.value.DoubleValue
5.339

@<SCITEGIC>MOL_PROPERTY
Idih
SciTegic.value.DoubleValue
0.000

@<SCITEGIC>MOL_PROPERTY
Tether
SciTegic.value.DoubleValue
0.000

@<TRIPOS>MOLECULE
guest-s16_confgen4.mol2 : confsearch ligand conformer 313
          13          13           1
SMALL
USER_CHARGES
 
@<TRIPOS>ATOM
       1    C1      19.905263   20.176247   21.852171 C.3        1 MOL1        -0.1693
       2    H1      20.708186   20.902441   21.679163 H          1 MOL1         0.0829
       3    H2      18.973836   20.575457   21.429935 H          1 MOL1         0.0829
       4    C2      19.774388   19.629434   23.312595 C.3        1 MOL1        -0.1768
       5    H3      20.720972   19.571909   23.863445 H          1 MOL1         0.0829
       6    H4      19.029535   20.123310   23.946372 H          1 MOL1         0.0829
       7    C3      19.327699   18.280989   22.666380 C.3        1 MOL1         0.1211
       8    H5      19.666712   17.383828   23.200221 H          1 MOL1         0.0786
       9    C4      20.218108   18.695760   21.453436 C.3        1 MOL1        -0.1768
      10    H6      19.862869   18.378737   20.466697 H          1 MOL1         0.0829
      11    H7      21.272879   18.412062   21.553172 H          1 MOL1         0.0829
      12    O1      17.945372   18.184368   22.387132 O.3        1 MOL1        -0.5515
      13    H8      17.815867   17.385154   21.833381 H          1 MOL1         0.3773
@<TRIPOS>BOND
    1     1     2    1
    2     1     3    1
    3     1     4    1
    4     4     5    1
    5     4     6    1
    6     4     7    1
    7     7     8    1
    8     1     9    1
    9     7     9    1
   10     9    10    1
   11     9    11    1
   12     7    12    1
   13    12    13    1
@<TRIPOS>SUBSTRUCTURE
       1 MOL1            1 RESIDUE      1      MOL     
@<SCITEGIC>MOL_PROPERTY
VConf Rank
SciTegic.value.IntegerValue
313

@<SCITEGIC>MOL_PROPERTY
Conf_Id
SciTegic.value.IntegerValue
20

@<SCITEGIC>MOL_PROPERTY
Delta U+W
SciTegic.value.DoubleValue
1.030

@<SCITEGIC>MOL_PROPERTY
U+W
SciTegic.value.DoubleValue
-2.101

@<SCITEGIC>MOL_PROPERTY
Grad RMS
SciTegic.value.DoubleValue
0.000000

@<SCITEGIC>MOL_PROPERTY
U
SciTegic.value.DoubleValue
0.841

@<SCITEGIC>MOL_PROPERTY
W
SciTegic.value.DoubleValue
-2.942

@<SCITEGIC>MOL_PROPERTY
W(PB)
SciTegic.value.DoubleValue
-4.530

@<SCITEGIC>MOL_PROPERTY
W(SA)
SciTegic.value.DoubleValue
1.587

@<SCITEGIC>MOL_PROPERTY
Valence
SciTegic.value.DoubleValue
6.736

@<SCITEGIC>MOL_PROPERTY
Coulomb
SciTegic.value.DoubleValue
-7.246

@<SCITEGIC>MOL_PROPERTY
VdW
SciTegic.value.DoubleValue
1.352

@<SCITEGIC>MOL_PROPERTY
VdW6
SciTegic.value.DoubleValue
-2.500

@<SCITEGIC>MOL_PROPERTY
VdW12
SciTegic.value.DoubleValue
3.851

@<SCITEGIC>MOL_PROPERTY
Bond
SciTegic.value.DoubleValue
0.063

@<SCITEGIC>MOL_PROPERTY
Angle
SciTegic.value.DoubleValue
0.687

@<SCITEGIC>MOL_PROPERTY
Pdih
SciTegic.value.DoubleValue
5.986

@<SCITEGIC>MOL_PROPERTY
Idih
SciTegic.value.DoubleValue
0.000

@<SCITEGIC>MOL_PROPERTY
Tether
SciTegic.value.DoubleValue
0.000

@<TRIPOS>MOLECULE
guest-s16_confgen4.mol2 : confsearch ligand conformer 314
          13          13           1
SMALL
USER_CHARGES
 
@<TRIPOS>ATOM
       1    C1      19.726782   20.234729   22.194329 C.3        1 MOL1        -0.1693
       2    H1      18.960644   20.746502   22.791649 H          1 MOL1         0.0829
       3    H2      20.337950   20.990797   21.687125 H          1 MOL1         0.0829
       4    C2      19.187908   19.071863   21.297271 C.3        1 MOL1        -0.1768
       5    H3      18.172756   19.196581   20.904581 H          1 MOL1         0.0829
       6    H4      19.851668   18.785253   20.472247 H          1 MOL1         0.0829
       7    C3      19.315163   18.190530   22.576416 C.3        1 MOL1         0.1211
       8    H5      18.457500   18.270691   23.258093 H          1 MOL1         0.0786
       9    C4      20.510597   19.115618   22.956288 C.3        1 MOL1        -0.1768
      10    H6      21.469995   18.838788   22.502074 H          1 MOL1         0.0829
      11    H7      20.663583   19.278975   24.028762 H          1 MOL1         0.0829
      12    O1      19.643782   16.840503   22.350024 O.3        1 MOL1        -0.5515
      13    H8      20.410275   16.832007   21.739176 H          1 MOL1         0.3773
@<TRIPOS>BOND
    1     1     2    1
    2     1     3    1
    3     1     4    1
    4     4     5    1
    5     4     6    1
    6     4     7    1
    7     7     8    1
    8     1     9    1
    9     7     9    1
   10     9    10    1
   11     9    11    1
   12     7    12    1
   13    12    13    1
@<TRIPOS>SUBSTRUCTURE
       1 MOL1            1 RESIDUE      1      MOL     
@<SCITEGIC>MOL_PROPERTY
VConf Rank
SciTegic.value.IntegerValue
314

@<SCITEGIC>MOL_PROPERTY
Conf_Id
SciTegic.value.IntegerValue
24

@<SCITEGIC>MOL_PROPERTY
Delta U+W
SciTegic.value.DoubleValue
0.356

@<SCITEGIC>MOL_PROPERTY
U+W
SciTegic.value.DoubleValue
-2.775

@<SCITEGIC>MOL_PROPERTY
Grad RMS
SciTegic.value.DoubleValue
0.000000

@<SCITEGIC>MOL_PROPERTY
U
SciTegic.value.DoubleValue
-0.184

@<SCITEGIC>MOL_PROPERTY
W
SciTegic.value.DoubleValue
-2.591

@<SCITEGIC>MOL_PROPERTY
W(PB)
SciTegic.value.DoubleValue
-4.184

@<SCITEGIC>MOL_PROPERTY
W(SA)
SciTegic.value.DoubleValue
1.593

@<SCITEGIC>MOL_PROPERTY
Valence
SciTegic.value.DoubleValue
6.840

@<SCITEGIC>MOL_PROPERTY
Coulomb
SciTegic.value.DoubleValue
-7.916

@<SCITEGIC>MOL_PROPERTY
VdW
SciTegic.value.DoubleValue
0.893

@<SCITEGIC>MOL_PROPERTY
VdW6
SciTegic.value.DoubleValue
-2.167

@<SCITEGIC>MOL_PROPERTY
VdW12
SciTegic.value.DoubleValue
3.060

@<SCITEGIC>MOL_PROPERTY
Bond
SciTegic.value.DoubleValue
0.059

@<SCITEGIC>MOL_PROPERTY
Angle
SciTegic.value.DoubleValue
0.918

@<SCITEGIC>MOL_PROPERTY
Pdih
SciTegic.value.DoubleValue
5.862

@<SCITEGIC>MOL_PROPERTY
Idih
SciTegic.value.DoubleValue
0.000

@<SCITEGIC>MOL_PROPERTY
Tether
SciTegic.value.DoubleValue
0.000

@<TRIPOS>MOLECULE
guest-s16_confgen4.mol2 : confsearch ligand conformer 315
          13          13           1
SMALL
USER_CHARGES
 
@<TRIPOS>ATOM
       1    C1      18.865735   19.557715   22.695642 C.3        1 MOL1        -0.1693
       2    H1      18.574695   20.514290   23.145790 H          1 MOL1         0.0829
       3    H2      18.000445   18.883393   22.724982 H          1 MOL1         0.0829
       4    C2      20.203747   18.935051   23.217324 C.3        1 MOL1        -0.1768
       5    H3      20.950566   19.670643   23.540093 H          1 MOL1         0.0829
       6    H4      20.109391   18.170037   23.996143 H          1 MOL1         0.0829
       7    C3      20.417217   18.406744   21.764976 C.3        1 MOL1         0.1211
       8    H5      21.460783   18.401916   21.425219 H          1 MOL1         0.0786
       9    C4      19.585553   19.645252   21.308438 C.3        1 MOL1        -0.1768
      10    H6      20.180799   20.554975   21.163178 H          1 MOL1         0.0829
      11    H7      18.953112   19.498410   20.425736 H          1 MOL1         0.0829
      12    O1      19.816340   17.158588   21.495197 O.3        1 MOL1        -0.5515
      13    H8      18.893475   17.220959   21.817290 H          1 MOL1         0.3773
@<TRIPOS>BOND
    1     1     2    1
    2     1     3    1
    3     1     4    1
    4     4     5    1
    5     4     6    1
    6     4     7    1
    7     7     8    1
    8     1     9    1
    9     7     9    1
   10     9    10    1
   11     9    11    1
   12     7    12    1
   13    12    13    1
@<TRIPOS>SUBSTRUCTURE
       1 MOL1            1 RESIDUE      1      MOL     
@<SCITEGIC>MOL_PROPERTY
VConf Rank
SciTegic.value.IntegerValue
315

@<SCITEGIC>MOL_PROPERTY
Conf_Id
SciTegic.value.IntegerValue
44

@<SCITEGIC>MOL_PROPERTY
Delta U+W
SciTegic.value.DoubleValue
0.823

@<SCITEGIC>MOL_PROPERTY
U+W
SciTegic.value.DoubleValue
-2.308

@<SCITEGIC>MOL_PROPERTY
Grad RMS
SciTegic.value.DoubleValue
0.000000

@<SCITEGIC>MOL_PROPERTY
U
SciTegic.value.DoubleValue
0.039

@<SCITEGIC>MOL_PROPERTY
W
SciTegic.value.DoubleValue
-2.348

@<SCITEGIC>MOL_PROPERTY
W(PB)
SciTegic.value.DoubleValue
-3.918

@<SCITEGIC>MOL_PROPERTY
W(SA)
SciTegic.value.DoubleValue
1.571

@<SCITEGIC>MOL_PROPERTY
Valence
SciTegic.value.DoubleValue
7.320

@<SCITEGIC>MOL_PROPERTY
Coulomb
SciTegic.value.DoubleValue
-8.530

@<SCITEGIC>MOL_PROPERTY
VdW
SciTegic.value.DoubleValue
1.249

@<SCITEGIC>MOL_PROPERTY
VdW6
SciTegic.value.DoubleValue
-2.615

@<SCITEGIC>MOL_PROPERTY
VdW12
SciTegic.value.DoubleValue
3.864

@<SCITEGIC>MOL_PROPERTY
Bond
SciTegic.value.DoubleValue
0.056

@<SCITEGIC>MOL_PROPERTY
Angle
SciTegic.value.DoubleValue
0.694

@<SCITEGIC>MOL_PROPERTY
Pdih
SciTegic.value.DoubleValue
6.570

@<SCITEGIC>MOL_PROPERTY
Idih
SciTegic.value.DoubleValue
0.000

@<SCITEGIC>MOL_PROPERTY
Tether
SciTegic.value.DoubleValue
0.000

@<TRIPOS>MOLECULE
guest-s16_confgen4.mol2 : confsearch ligand conformer 316
          13          13           1
SMALL
USER_CHARGES
 
@<TRIPOS>ATOM
       1    C1      19.109993   19.027428   23.444424 C.3        1 MOL1        -0.1693
       2    H1      19.248197   19.962700   24.002771 H          1 MOL1         0.0829
       3    H2      18.487100   18.351305   24.042085 H          1 MOL1         0.0829
       4    C2      20.424997   18.413626   22.860198 C.3        1 MOL1        -0.1768
       5    H3      21.336134   18.574816   23.446548 H          1 MOL1         0.0829
       6    H4      20.358617   17.350861   22.596170 H          1 MOL1         0.0829
       7    C3      20.206235   19.390430   21.665692 C.3        1 MOL1         0.1211
       8    H5      20.579389   20.407045   21.850930 H          1 MOL1         0.0786
       9    C4      18.684158   19.213601   21.950660 C.3        1 MOL1        -0.1768
      10    H6      18.053222   20.082543   21.733790 H          1 MOL1         0.0829
      11    H7      18.234010   18.326094   21.488608 H          1 MOL1         0.0829
      12    O1      20.643862   18.917430   20.412976 O.3        1 MOL1        -0.5515
      13    H8      20.306812   19.540028   19.733290 H          1 MOL1         0.3773
@<TRIPOS>BOND
    1     1     2    1
    2     1     3    1
    3     1     4    1
    4     4     5    1
    5     4     6    1
    6     4     7    1
    7     7     8    1
    8     1     9    1
    9     7     9    1
   10     9    10    1
   11     9    11    1
   12     7    12    1
   13    12    13    1
@<TRIPOS>SUBSTRUCTURE
       1 MOL1            1 RESIDUE      1      MOL     
@<SCITEGIC>MOL_PROPERTY
VConf Rank
SciTegic.value.IntegerValue
316

@<SCITEGIC>MOL_PROPERTY
Conf_Id
SciTegic.value.IntegerValue
22

@<SCITEGIC>MOL_PROPERTY
Delta U+W
SciTegic.value.DoubleValue
0.000

@<SCITEGIC>MOL_PROPERTY
U+W
SciTegic.value.DoubleValue
-3.131

@<SCITEGIC>MOL_PROPERTY
Grad RMS
SciTegic.value.DoubleValue
0.000000

@<SCITEGIC>MOL_PROPERTY
U
SciTegic.value.DoubleValue
-0.154

@<SCITEGIC>MOL_PROPERTY
W
SciTegic.value.DoubleValue
-2.978

@<SCITEGIC>MOL_PROPERTY
W(PB)
SciTegic.value.DoubleValue
-4.579

@<SCITEGIC>MOL_PROPERTY
W(SA)
SciTegic.value.DoubleValue
1.601

@<SCITEGIC>MOL_PROPERTY
Valence
SciTegic.value.DoubleValue
6.333

@<SCITEGIC>MOL_PROPERTY
Coulomb
SciTegic.value.DoubleValue
-7.439

@<SCITEGIC>MOL_PROPERTY
VdW
SciTegic.value.DoubleValue
0.952

@<SCITEGIC>MOL_PROPERTY
VdW6
SciTegic.value.DoubleValue
-2.120

@<SCITEGIC>MOL_PROPERTY
VdW12
SciTegic.value.DoubleValue
3.072

@<SCITEGIC>MOL_PROPERTY
Bond
SciTegic.value.DoubleValue
0.065

@<SCITEGIC>MOL_PROPERTY
Angle
SciTegic.value.DoubleValue
0.931

@<SCITEGIC>MOL_PROPERTY
Pdih
SciTegic.value.DoubleValue
5.338

@<SCITEGIC>MOL_PROPERTY
Idih
SciTegic.value.DoubleValue
0.000

@<SCITEGIC>MOL_PROPERTY
Tether
SciTegic.value.DoubleValue
0.000

@<TRIPOS>MOLECULE
guest-s16_confgen4.mol2 : confsearch ligand conformer 317
          13          13           1
SMALL
USER_CHARGES
 
@<TRIPOS>ATOM
       1    C1      20.408410   19.752241   22.917722 C.3        1 MOL1        -0.1693
       2    H1      20.837016   19.307694   23.825610 H          1 MOL1         0.0829
       3    H2      20.722164   20.801291   22.859492 H          1 MOL1         0.0829
       4    C2      18.881640   19.479357   22.713180 C.3        1 MOL1        -0.1768
       5    H3      18.382631   20.166083   22.018061 H          1 MOL1         0.0829
       6    H4      18.279365   19.401114   23.624945 H          1 MOL1         0.0829
       7    C3      19.332192   18.129275   22.077981 C.3        1 MOL1         0.1211
       8    H5      19.536714   17.337554   22.811745 H          1 MOL1         0.0786
       9    C4      20.604227   18.903502   21.618260 C.3        1 MOL1        -0.1768
      10    H6      20.482678   19.461839   20.681739 H          1 MOL1         0.0829
      11    H7      21.525570   18.313851   21.559947 H          1 MOL1         0.0829
      12    O1      18.511464   17.648420   21.038878 O.3        1 MOL1        -0.5515
      13    H8      17.678029   17.332160   21.449449 H          1 MOL1         0.3773
@<TRIPOS>BOND
    1     1     2    1
    2     1     3    1
    3     1     4    1
    4     4     5    1
    5     4     6    1
    6     4     7    1
    7     7     8    1
    8     1     9    1
    9     7     9    1
   10     9    10    1
   11     9    11    1
   12     7    12    1
   13    12    13    1
@<TRIPOS>SUBSTRUCTURE
       1 MOL1            1 RESIDUE      1      MOL     
@<SCITEGIC>MOL_PROPERTY
VConf Rank
SciTegic.value.IntegerValue
317

@<SCITEGIC>MOL_PROPERTY
Conf_Id
SciTegic.value.IntegerValue
19

@<SCITEGIC>MOL_PROPERTY
Delta U+W
SciTegic.value.DoubleValue
-0.011

@<SCITEGIC>MOL_PROPERTY
U+W
SciTegic.value.DoubleValue
-3.142

@<SCITEGIC>MOL_PROPERTY
Grad RMS
SciTegic.value.DoubleValue
0.000000

@<SCITEGIC>MOL_PROPERTY
U
SciTegic.value.DoubleValue
-0.154

@<SCITEGIC>MOL_PROPERTY
W
SciTegic.value.DoubleValue
-2.989

@<SCITEGIC>MOL_PROPERTY
W(PB)
SciTegic.value.DoubleValue
-4.588

@<SCITEGIC>MOL_PROPERTY
W(SA)
SciTegic.value.DoubleValue
1.599

@<SCITEGIC>MOL_PROPERTY
Valence
SciTegic.value.DoubleValue
6.334

@<SCITEGIC>MOL_PROPERTY
Coulomb
SciTegic.value.DoubleValue
-7.439

@<SCITEGIC>MOL_PROPERTY
VdW
SciTegic.value.DoubleValue
0.951

@<SCITEGIC>MOL_PROPERTY
VdW6
SciTegic.value.DoubleValue
-2.120

@<SCITEGIC>MOL_PROPERTY
VdW12
SciTegic.value.DoubleValue
3.072

@<SCITEGIC>MOL_PROPERTY
Bond
SciTegic.value.DoubleValue
0.065

@<SCITEGIC>MOL_PROPERTY
Angle
SciTegic.value.DoubleValue
0.930

@<SCITEGIC>MOL_PROPERTY
Pdih
SciTegic.value.DoubleValue
5.339

@<SCITEGIC>MOL_PROPERTY
Idih
SciTegic.value.DoubleValue
0.000

@<SCITEGIC>MOL_PROPERTY
Tether
SciTegic.value.DoubleValue
0.000

@<TRIPOS>MOLECULE
guest-s16_confgen4.mol2 : confsearch ligand conformer 318
          13          13           1
SMALL
USER_CHARGES
 
@<TRIPOS>ATOM
       1    C1      19.792069   17.835037   22.361898 C.3        1 MOL1        -0.1693
       2    H1      20.465317   16.998997   22.138850 H          1 MOL1         0.0829
       3    H2      18.937680   17.454119   22.936466 H          1 MOL1         0.0829
       4    C2      19.405439   18.749324   21.152117 C.3        1 MOL1        -0.1768
       5    H3      20.179555   18.833611   20.379844 H          1 MOL1         0.0829
       6    H4      18.448935   18.526095   20.666666 H          1 MOL1         0.0829
       7    C3      19.388692   19.930229   22.172221 C.3        1 MOL1         0.1211
       8    H5      19.743375   20.887571   21.769098 H          1 MOL1         0.0786
       9    C4      20.460537   19.116122   22.962457 C.3        1 MOL1        -0.1768
      10    H6      20.425873   19.209464   24.053529 H          1 MOL1         0.0829
      11    H7      21.491093   19.288987   22.629224 H          1 MOL1         0.0829
      12    O1      18.161011   20.114993   22.848097 O.3        1 MOL1        -0.5515
      13    H8      18.322111   20.755147   23.573634 H          1 MOL1         0.3773
@<TRIPOS>BOND
    1     1     2    1
    2     1     3    1
    3     1     4    1
    4     4     5    1
    5     4     6    1
    6     4     7    1
    7     7     8    1
    8     1     9    1
    9     7     9    1
   10     9    10    1
   11     9    11    1
   12     7    12    1
   13    12    13    1
@<TRIPOS>SUBSTRUCTURE
       1 MOL1            1 RESIDUE      1      MOL     
@<SCITEGIC>MOL_PROPERTY
VConf Rank
SciTegic.value.IntegerValue
318

@<SCITEGIC>MOL_PROPERTY
Conf_Id
SciTegic.value.IntegerValue
20

@<SCITEGIC>MOL_PROPERTY
Delta U+W
SciTegic.value.DoubleValue
1.030

@<SCITEGIC>MOL_PROPERTY
U+W
SciTegic.value.DoubleValue
-2.101

@<SCITEGIC>MOL_PROPERTY
Grad RMS
SciTegic.value.DoubleValue
0.000000

@<SCITEGIC>MOL_PROPERTY
U
SciTegic.value.DoubleValue
0.841

@<SCITEGIC>MOL_PROPERTY
W
SciTegic.value.DoubleValue
-2.942

@<SCITEGIC>MOL_PROPERTY
W(PB)
SciTegic.value.DoubleValue
-4.530

@<SCITEGIC>MOL_PROPERTY
W(SA)
SciTegic.value.DoubleValue
1.587

@<SCITEGIC>MOL_PROPERTY
Valence
SciTegic.value.DoubleValue
6.736

@<SCITEGIC>MOL_PROPERTY
Coulomb
SciTegic.value.DoubleValue
-7.246

@<SCITEGIC>MOL_PROPERTY
VdW
SciTegic.value.DoubleValue
1.352

@<SCITEGIC>MOL_PROPERTY
VdW6
SciTegic.value.DoubleValue
-2.500

@<SCITEGIC>MOL_PROPERTY
VdW12
SciTegic.value.DoubleValue
3.851

@<SCITEGIC>MOL_PROPERTY
Bond
SciTegic.value.DoubleValue
0.063

@<SCITEGIC>MOL_PROPERTY
Angle
SciTegic.value.DoubleValue
0.687

@<SCITEGIC>MOL_PROPERTY
Pdih
SciTegic.value.DoubleValue
5.986

@<SCITEGIC>MOL_PROPERTY
Idih
SciTegic.value.DoubleValue
0.000

@<SCITEGIC>MOL_PROPERTY
Tether
SciTegic.value.DoubleValue
0.000

@<TRIPOS>MOLECULE
guest-s16_confgen4.mol2 : confsearch ligand conformer 319
          13          13           1
SMALL
USER_CHARGES
 
@<TRIPOS>ATOM
       1    C1      20.952799   18.772926   21.817362 C.3        1 MOL1        -0.1693
       2    H1      21.324675   19.397969   20.994745 H          1 MOL1         0.0829
       3    H2      21.754548   18.093695   22.130837 H          1 MOL1         0.0829
       4    C2      19.556756   18.115611   21.559765 C.3        1 MOL1        -0.1768
       5    H3      19.332266   17.852255   20.520275 H          1 MOL1         0.0829
       6    H4      19.333076   17.251786   22.197857 H          1 MOL1         0.0829
       7    C3      18.964739   19.468509   22.058102 C.3        1 MOL1         0.1211
       8    H5      18.916190   20.244664   21.282267 H          1 MOL1         0.0786
       9    C4      20.231524   19.559026   22.961550 C.3        1 MOL1        -0.1768
      10    H6      20.158663   19.017821   23.912959 H          1 MOL1         0.0829
      11    H7      20.602955   20.570424   23.160051 H          1 MOL1         0.0829
      12    O1      17.738723   19.375783   22.743743 O.3        1 MOL1        -0.5515
      13    H8      17.841687   18.672369   23.418521 H          1 MOL1         0.3773
@<TRIPOS>BOND
    1     1     2    1
    2     1     3    1
    3     1     4    1
    4     4     5    1
    5     4     6    1
    6     4     7    1
    7     7     8    1
    8     1     9    1
    9     7     9    1
   10     9    10    1
   11     9    11    1
   12     7    12    1
   13    12    13    1
@<TRIPOS>SUBSTRUCTURE
       1 MOL1            1 RESIDUE      1      MOL     
@<SCITEGIC>MOL_PROPERTY
VConf Rank
SciTegic.value.IntegerValue
319

@<SCITEGIC>MOL_PROPERTY
Conf_Id
SciTegic.value.IntegerValue
24

@<SCITEGIC>MOL_PROPERTY
Delta U+W
SciTegic.value.DoubleValue
0.356

@<SCITEGIC>MOL_PROPERTY
U+W
SciTegic.value.DoubleValue
-2.775

@<SCITEGIC>MOL_PROPERTY
Grad RMS
SciTegic.value.DoubleValue
0.000000

@<SCITEGIC>MOL_PROPERTY
U
SciTegic.value.DoubleValue
-0.184

@<SCITEGIC>MOL_PROPERTY
W
SciTegic.value.DoubleValue
-2.591

@<SCITEGIC>MOL_PROPERTY
W(PB)
SciTegic.value.DoubleValue
-4.184

@<SCITEGIC>MOL_PROPERTY
W(SA)
SciTegic.value.DoubleValue
1.593

@<SCITEGIC>MOL_PROPERTY
Valence
SciTegic.value.DoubleValue
6.840

@<SCITEGIC>MOL_PROPERTY
Coulomb
SciTegic.value.DoubleValue
-7.916

@<SCITEGIC>MOL_PROPERTY
VdW
SciTegic.value.DoubleValue
0.893

@<SCITEGIC>MOL_PROPERTY
VdW6
SciTegic.value.DoubleValue
-2.167

@<SCITEGIC>MOL_PROPERTY
VdW12
SciTegic.value.DoubleValue
3.060

@<SCITEGIC>MOL_PROPERTY
Bond
SciTegic.value.DoubleValue
0.059

@<SCITEGIC>MOL_PROPERTY
Angle
SciTegic.value.DoubleValue
0.918

@<SCITEGIC>MOL_PROPERTY
Pdih
SciTegic.value.DoubleValue
5.862

@<SCITEGIC>MOL_PROPERTY
Idih
SciTegic.value.DoubleValue
0.000

@<SCITEGIC>MOL_PROPERTY
Tether
SciTegic.value.DoubleValue
0.000

@<TRIPOS>MOLECULE
guest-s16_confgen4.mol2 : confsearch ligand conformer 320
          13          13           1
SMALL
USER_CHARGES
 
@<TRIPOS>ATOM
       1    C1      19.594634   20.069654   22.429246 C.3        1 MOL1        -0.1693
       2    H1      20.104239   21.040321   22.451209 H          1 MOL1         0.0829
       3    H2      18.556761   20.215701   22.754492 H          1 MOL1         0.0829
       4    C2      20.344068   18.887466   23.129903 C.3        1 MOL1        -0.1768
       5    H3      21.437842   18.964519   23.102770 H          1 MOL1         0.0829
       6    H4      20.036387   18.661321   24.156986 H          1 MOL1         0.0829
       7    C3      19.743054   17.969935   22.020439 C.3        1 MOL1         0.1211
       8    H5      20.401140   17.156727   21.688621 H          1 MOL1         0.0786
       9    C4      19.761502   19.238951   21.113106 C.3        1 MOL1        -0.1768
      10    H6      20.712439   19.402183   20.591485 H          1 MOL1         0.0829
      11    H7      18.946749   19.318744   20.384739 H          1 MOL1         0.0829
      12    O1      18.456424   17.464025   22.303926 O.3        1 MOL1        -0.5515
      13    H8      17.916619   18.228426   22.593087 H          1 MOL1         0.3773
@<TRIPOS>BOND
    1     1     2    1
    2     1     3    1
    3     1     4    1
    4     4     5    1
    5     4     6    1
    6     4     7    1
    7     7     8    1
    8     1     9    1
    9     7     9    1
   10     9    10    1
   11     9    11    1
   12     7    12    1
   13    12    13    1
@<TRIPOS>SUBSTRUCTURE
       1 MOL1            1 RESIDUE      1      MOL     
@<SCITEGIC>MOL_PROPERTY
VConf Rank
SciTegic.value.IntegerValue
320

@<SCITEGIC>MOL_PROPERTY
Conf_Id
SciTegic.value.IntegerValue
44

@<SCITEGIC>MOL_PROPERTY
Delta U+W
SciTegic.value.DoubleValue
0.823

@<SCITEGIC>MOL_PROPERTY
U+W
SciTegic.value.DoubleValue
-2.308

@<SCITEGIC>MOL_PROPERTY
Grad RMS
SciTegic.value.DoubleValue
0.000000

@<SCITEGIC>MOL_PROPERTY
U
SciTegic.value.DoubleValue
0.039

@<SCITEGIC>MOL_PROPERTY
W
SciTegic.value.DoubleValue
-2.348

@<SCITEGIC>MOL_PROPERTY
W(PB)
SciTegic.value.DoubleValue
-3.918

@<SCITEGIC>MOL_PROPERTY
W(SA)
SciTegic.value.DoubleValue
1.571

@<SCITEGIC>MOL_PROPERTY
Valence
SciTegic.value.DoubleValue
7.320

@<SCITEGIC>MOL_PROPERTY
Coulomb
SciTegic.value.DoubleValue
-8.530

@<SCITEGIC>MOL_PROPERTY
VdW
SciTegic.value.DoubleValue
1.249

@<SCITEGIC>MOL_PROPERTY
VdW6
SciTegic.value.DoubleValue
-2.615

@<SCITEGIC>MOL_PROPERTY
VdW12
SciTegic.value.DoubleValue
3.864

@<SCITEGIC>MOL_PROPERTY
Bond
SciTegic.value.DoubleValue
0.056

@<SCITEGIC>MOL_PROPERTY
Angle
SciTegic.value.DoubleValue
0.694

@<SCITEGIC>MOL_PROPERTY
Pdih
SciTegic.value.DoubleValue
6.570

@<SCITEGIC>MOL_PROPERTY
Idih
SciTegic.value.DoubleValue
0.000

@<SCITEGIC>MOL_PROPERTY
Tether
SciTegic.value.DoubleValue
0.000

@<TRIPOS>MOLECULE
guest-s16_confgen4.mol2 : confsearch ligand conformer 321
          13          13           1
SMALL
USER_CHARGES
 
@<TRIPOS>ATOM
       1    C1      20.121282   19.875720   21.330987 C.3        1 MOL1        -0.1693
       2    H1      20.779798   19.397104   20.594191 H          1 MOL1         0.0829
       3    H2      19.988870   20.927705   21.051466 H          1 MOL1         0.0829
       4    C2      20.502959   19.604321   22.823627 C.3        1 MOL1        -0.1768
       5    H3      21.571020   19.485152   23.035769 H          1 MOL1         0.0829
       6    H4      20.077237   20.314361   23.543480 H          1 MOL1         0.0829
       7    C3      19.692303   18.282908   22.663777 C.3        1 MOL1         0.1211
       8    H5      20.265227   17.464460   22.206653 H          1 MOL1         0.0786
       9    C4      18.813219   19.080705   21.653863 C.3        1 MOL1        -0.1768
      10    H6      18.386044   18.499704   20.829163 H          1 MOL1         0.0829
      11    H7      18.016537   19.677486   22.115322 H          1 MOL1         0.0829
      12    O1      19.026740   17.840566   23.823908 O.3        1 MOL1        -0.5515
      13    H8      18.431492   17.107713   23.555936 H          1 MOL1         0.3773
@<TRIPOS>BOND
    1     1     2    1
    2     1     3    1
    3     1     4    1
    4     4     5    1
    5     4     6    1
    6     4     7    1
    7     7     8    1
    8     1     9    1
    9     7     9    1
   10     9    10    1
   11     9    11    1
   12     7    12    1
   13    12    13    1
@<TRIPOS>SUBSTRUCTURE
       1 MOL1            1 RESIDUE      1      MOL     
@<SCITEGIC>MOL_PROPERTY
VConf Rank
SciTegic.value.IntegerValue
321

@<SCITEGIC>MOL_PROPERTY
Conf_Id
SciTegic.value.IntegerValue
22

@<SCITEGIC>MOL_PROPERTY
Delta U+W
SciTegic.value.DoubleValue
0.000

@<SCITEGIC>MOL_PROPERTY
U+W
SciTegic.value.DoubleValue
-3.131

@<SCITEGIC>MOL_PROPERTY
Grad RMS
SciTegic.value.DoubleValue
0.000000

@<SCITEGIC>MOL_PROPERTY
U
SciTegic.value.DoubleValue
-0.154

@<SCITEGIC>MOL_PROPERTY
W
SciTegic.value.DoubleValue
-2.978

@<SCITEGIC>MOL_PROPERTY
W(PB)
SciTegic.value.DoubleValue
-4.579

@<SCITEGIC>MOL_PROPERTY
W(SA)
SciTegic.value.DoubleValue
1.601

@<SCITEGIC>MOL_PROPERTY
Valence
SciTegic.value.DoubleValue
6.333

@<SCITEGIC>MOL_PROPERTY
Coulomb
SciTegic.value.DoubleValue
-7.439

@<SCITEGIC>MOL_PROPERTY
VdW
SciTegic.value.DoubleValue
0.952

@<SCITEGIC>MOL_PROPERTY
VdW6
SciTegic.value.DoubleValue
-2.120

@<SCITEGIC>MOL_PROPERTY
VdW12
SciTegic.value.DoubleValue
3.072

@<SCITEGIC>MOL_PROPERTY
Bond
SciTegic.value.DoubleValue
0.065

@<SCITEGIC>MOL_PROPERTY
Angle
SciTegic.value.DoubleValue
0.931

@<SCITEGIC>MOL_PROPERTY
Pdih
SciTegic.value.DoubleValue
5.338

@<SCITEGIC>MOL_PROPERTY
Idih
SciTegic.value.DoubleValue
0.000

@<SCITEGIC>MOL_PROPERTY
Tether
SciTegic.value.DoubleValue
0.000

@<TRIPOS>MOLECULE
guest-s16_confgen4.mol2 : confsearch ligand conformer 322
          13          13           1
SMALL
USER_CHARGES
 
@<TRIPOS>ATOM
       1    C1      20.903636   18.916698   22.588763 C.3        1 MOL1        -0.1693
       2    H1      21.124123   18.250097   23.432928 H          1 MOL1         0.0829
       3    H2      21.826335   19.434448   22.300843 H          1 MOL1         0.0829
       4    C2      19.640320   19.819346   22.780049 C.3        1 MOL1        -0.1768
       5    H3      19.598158   20.694292   22.119379 H          1 MOL1         0.0829
       6    H4      19.428421   20.141211   23.805561 H          1 MOL1         0.0829
       7    C3      18.832636   18.586222   22.273841 C.3        1 MOL1         0.1211
       8    H5      18.615678   17.844272   23.054547 H          1 MOL1         0.0786
       9    C4      20.096261   18.253270   21.424583 C.3        1 MOL1        -0.1768
      10    H6      20.152077   18.783583   20.465815 H          1 MOL1         0.0829
      11    H7      20.285766   17.188587   21.249945 H          1 MOL1         0.0829
      12    O1      17.672288   18.888020   21.534205 O.3        1 MOL1        -0.5515
      13    H8      17.006400   19.234336   22.166551 H          1 MOL1         0.3773
@<TRIPOS>BOND
    1     1     2    1
    2     1     3    1
    3     1     4    1
    4     4     5    1
    5     4     6    1
    6     4     7    1
    7     7     8    1
    8     1     9    1
    9     7     9    1
   10     9    10    1
   11     9    11    1
   12     7    12    1
   13    12    13    1
@<TRIPOS>SUBSTRUCTURE
       1 MOL1            1 RESIDUE      1      MOL     
@<SCITEGIC>MOL_PROPERTY
VConf Rank
SciTegic.value.IntegerValue
322

@<SCITEGIC>MOL_PROPERTY
Conf_Id
SciTegic.value.IntegerValue
19

@<SCITEGIC>MOL_PROPERTY
Delta U+W
SciTegic.value.DoubleValue
-0.011

@<SCITEGIC>MOL_PROPERTY
U+W
SciTegic.value.DoubleValue
-3.142

@<SCITEGIC>MOL_PROPERTY
Grad RMS
SciTegic.value.DoubleValue
0.000000

@<SCITEGIC>MOL_PROPERTY
U
SciTegic.value.DoubleValue
-0.154

@<SCITEGIC>MOL_PROPERTY
W
SciTegic.value.DoubleValue
-2.989

@<SCITEGIC>MOL_PROPERTY
W(PB)
SciTegic.value.DoubleValue
-4.588

@<SCITEGIC>MOL_PROPERTY
W(SA)
SciTegic.value.DoubleValue
1.599

@<SCITEGIC>MOL_PROPERTY
Valence
SciTegic.value.DoubleValue
6.334

@<SCITEGIC>MOL_PROPERTY
Coulomb
SciTegic.value.DoubleValue
-7.439

@<SCITEGIC>MOL_PROPERTY
VdW
SciTegic.value.DoubleValue
0.951

@<SCITEGIC>MOL_PROPERTY
VdW6
SciTegic.value.DoubleValue
-2.120

@<SCITEGIC>MOL_PROPERTY
VdW12
SciTegic.value.DoubleValue
3.072

@<SCITEGIC>MOL_PROPERTY
Bond
SciTegic.value.DoubleValue
0.065

@<SCITEGIC>MOL_PROPERTY
Angle
SciTegic.value.DoubleValue
0.930

@<SCITEGIC>MOL_PROPERTY
Pdih
SciTegic.value.DoubleValue
5.339

@<SCITEGIC>MOL_PROPERTY
Idih
SciTegic.value.DoubleValue
0.000

@<SCITEGIC>MOL_PROPERTY
Tether
SciTegic.value.DoubleValue
0.000

@<TRIPOS>MOLECULE
guest-s16_confgen4.mol2 : confsearch ligand conformer 323
          13          13           1
SMALL
USER_CHARGES
 
@<TRIPOS>ATOM
       1    C1      19.123060   19.041354   21.158729 C.3        1 MOL1        -0.1693
       2    H1      18.437541   18.510319   20.487877 H          1 MOL1         0.0829
       3    H2      19.454383   19.963611   20.663883 H          1 MOL1         0.0829
       4    C2      20.277460   18.187104   21.780492 C.3        1 MOL1        -0.1768
       5    H3      20.025580   17.132342   21.944200 H          1 MOL1         0.0829
       6    H4      21.245031   18.241113   21.269334 H          1 MOL1         0.0829
       7    C3      20.129831   19.084062   23.048996 C.3        1 MOL1         0.1211
       8    H5      20.292292   18.560926   24.000178 H          1 MOL1         0.0786
       9    C4      18.633135   19.233810   22.632376 C.3        1 MOL1        -0.1768
      10    H6      18.165455   20.197827   22.861061 H          1 MOL1         0.0829
      11    H7      17.981906   18.432613   23.002454 H          1 MOL1         0.0829
      12    O1      20.880222   20.281679   23.021230 O.3        1 MOL1        -0.5515
      13    H8      20.575792   20.832936   23.773290 H          1 MOL1         0.3773
@<TRIPOS>BOND
    1     1     2    1
    2     1     3    1
    3     1     4    1
    4     4     5    1
    5     4     6    1
    6     4     7    1
    7     7     8    1
    8     1     9    1
    9     7     9    1
   10     9    10    1
   11     9    11    1
   12     7    12    1
   13    12    13    1
@<TRIPOS>SUBSTRUCTURE
       1 MOL1            1 RESIDUE      1      MOL     
@<SCITEGIC>MOL_PROPERTY
VConf Rank
SciTegic.value.IntegerValue
323

@<SCITEGIC>MOL_PROPERTY
Conf_Id
SciTegic.value.IntegerValue
20

@<SCITEGIC>MOL_PROPERTY
Delta U+W
SciTegic.value.DoubleValue
1.030

@<SCITEGIC>MOL_PROPERTY
U+W
SciTegic.value.DoubleValue
-2.101

@<SCITEGIC>MOL_PROPERTY
Grad RMS
SciTegic.value.DoubleValue
0.000000

@<SCITEGIC>MOL_PROPERTY
U
SciTegic.value.DoubleValue
0.841

@<SCITEGIC>MOL_PROPERTY
W
SciTegic.value.DoubleValue
-2.942

@<SCITEGIC>MOL_PROPERTY
W(PB)
SciTegic.value.DoubleValue
-4.530

@<SCITEGIC>MOL_PROPERTY
W(SA)
SciTegic.value.DoubleValue
1.587

@<SCITEGIC>MOL_PROPERTY
Valence
SciTegic.value.DoubleValue
6.736

@<SCITEGIC>MOL_PROPERTY
Coulomb
SciTegic.value.DoubleValue
-7.246

@<SCITEGIC>MOL_PROPERTY
VdW
SciTegic.value.DoubleValue
1.352

@<SCITEGIC>MOL_PROPERTY
VdW6
SciTegic.value.DoubleValue
-2.500

@<SCITEGIC>MOL_PROPERTY
VdW12
SciTegic.value.DoubleValue
3.851

@<SCITEGIC>MOL_PROPERTY
Bond
SciTegic.value.DoubleValue
0.063

@<SCITEGIC>MOL_PROPERTY
Angle
SciTegic.value.DoubleValue
0.687

@<SCITEGIC>MOL_PROPERTY
Pdih
SciTegic.value.DoubleValue
5.986

@<SCITEGIC>MOL_PROPERTY
Idih
SciTegic.value.DoubleValue
0.000

@<SCITEGIC>MOL_PROPERTY
Tether
SciTegic.value.DoubleValue
0.000

@<TRIPOS>MOLECULE
guest-s16_confgen4.mol2 : confsearch ligand conformer 324
          13          13           1
SMALL
USER_CHARGES
 
@<TRIPOS>ATOM
       1    C1      18.614113   18.470137   21.856721 C.3        1 MOL1        -0.1693
       2    H1      18.503439   18.125050   20.820219 H          1 MOL1         0.0829
       3    H2      17.665014   18.310070   22.382089 H          1 MOL1         0.0829
       4    C2      19.252640   19.890201   22.008565 C.3        1 MOL1        -0.1768
       5    H3      19.033454   20.605495   21.208187 H          1 MOL1         0.0829
       6    H4      19.065695   20.374943   22.974724 H          1 MOL1         0.0829
       7    C3      20.620973   19.151887   21.900338 C.3        1 MOL1         0.1211
       8    H5      20.936108   18.949815   20.867598 H          1 MOL1         0.0786
       9    C4      19.898382   17.952476   22.584757 C.3        1 MOL1        -0.1768
      10    H6      19.855768   18.004113   23.679703 H          1 MOL1         0.0829
      11    H7      20.249486   16.956465   22.293247 H          1 MOL1         0.0829
      12    O1      21.675707   19.722615   22.637645 O.3        1 MOL1        -0.5515
      13    H8      21.337825   19.879571   23.544243 H          1 MOL1         0.3773
@<TRIPOS>BOND
    1     1     2    1
    2     1     3    1
    3     1     4    1
    4     4     5    1
    5     4     6    1
    6     4     7    1
    7     7     8    1
    8     1     9    1
    9     7     9    1
   10     9    10    1
   11     9    11    1
   12     7    12    1
   13    12    13    1
@<TRIPOS>SUBSTRUCTURE
       1 MOL1            1 RESIDUE      1      MOL     
@<SCITEGIC>MOL_PROPERTY
VConf Rank
SciTegic.value.IntegerValue
324

@<SCITEGIC>MOL_PROPERTY
Conf_Id
SciTegic.value.IntegerValue
24

@<SCITEGIC>MOL_PROPERTY
Delta U+W
SciTegic.value.DoubleValue
0.356

@<SCITEGIC>MOL_PROPERTY
U+W
SciTegic.value.DoubleValue
-2.775

@<SCITEGIC>MOL_PROPERTY
Grad RMS
SciTegic.value.DoubleValue
0.000000

@<SCITEGIC>MOL_PROPERTY
U
SciTegic.value.DoubleValue
-0.184

@<SCITEGIC>MOL_PROPERTY
W
SciTegic.value.DoubleValue
-2.591

@<SCITEGIC>MOL_PROPERTY
W(PB)
SciTegic.value.DoubleValue
-4.184

@<SCITEGIC>MOL_PROPERTY
W(SA)
SciTegic.value.DoubleValue
1.593

@<SCITEGIC>MOL_PROPERTY
Valence
SciTegic.value.DoubleValue
6.840

@<SCITEGIC>MOL_PROPERTY
Coulomb
SciTegic.value.DoubleValue
-7.916

@<SCITEGIC>MOL_PROPERTY
VdW
SciTegic.value.DoubleValue
0.893

@<SCITEGIC>MOL_PROPERTY
VdW6
SciTegic.value.DoubleValue
-2.167

@<SCITEGIC>MOL_PROPERTY
VdW12
SciTegic.value.DoubleValue
3.060

@<SCITEGIC>MOL_PROPERTY
Bond
SciTegic.value.DoubleValue
0.059

@<SCITEGIC>MOL_PROPERTY
Angle
SciTegic.value.DoubleValue
0.918

@<SCITEGIC>MOL_PROPERTY
Pdih
SciTegic.value.DoubleValue
5.862

@<SCITEGIC>MOL_PROPERTY
Idih
SciTegic.value.DoubleValue
0.000

@<SCITEGIC>MOL_PROPERTY
Tether
SciTegic.value.DoubleValue
0.000

@<TRIPOS>MOLECULE
guest-s16_confgen4.mol2 : confsearch ligand conformer 325
          13          13           1
SMALL
USER_CHARGES
 
@<TRIPOS>ATOM
       1    C1      19.149879   18.637449   21.281978 C.3        1 MOL1        -0.1693
       2    H1      18.185200   18.343827   20.851221 H          1 MOL1         0.0829
       3    H2      19.910316   18.592101   20.492057 H          1 MOL1         0.0829
       4    C2      19.546524   17.927329   22.619341 C.3        1 MOL1        -0.1768
       5    H3      18.696238   17.642986   23.251147 H          1 MOL1         0.0829
       6    H4      20.216355   17.064918   22.528336 H          1 MOL1         0.0829
       7    C3      20.220373   19.273920   23.027521 C.3        1 MOL1         0.1211
       8    H5      20.146971   19.521055   24.094303 H          1 MOL1         0.0786
       9    C4      19.150562   19.958536   22.121541 C.3        1 MOL1        -0.1768
      10    H6      18.203192   20.172215   22.631292 H          1 MOL1         0.0829
      11    H7      19.475740   20.864117   21.597242 H          1 MOL1         0.0829
      12    O1      21.552759   19.425877   22.587766 O.3        1 MOL1        -0.5515
      13    H8      21.557748   19.193643   21.636264 H          1 MOL1         0.3773
@<TRIPOS>BOND
    1     1     2    1
    2     1     3    1
    3     1     4    1
    4     4     5    1
    5     4     6    1
    6     4     7    1
    7     7     8    1
    8     1     9    1
    9     7     9    1
   10     9    10    1
   11     9    11    1
   12     7    12    1
   13    12    13    1
@<TRIPOS>SUBSTRUCTURE
       1 MOL1            1 RESIDUE      1      MOL     
@<SCITEGIC>MOL_PROPERTY
VConf Rank
SciTegic.value.IntegerValue
325

@<SCITEGIC>MOL_PROPERTY
Conf_Id
SciTegic.value.IntegerValue
44

@<SCITEGIC>MOL_PROPERTY
Delta U+W
SciTegic.value.DoubleValue
0.823

@<SCITEGIC>MOL_PROPERTY
U+W
SciTegic.value.DoubleValue
-2.308

@<SCITEGIC>MOL_PROPERTY
Grad RMS
SciTegic.value.DoubleValue
0.000000

@<SCITEGIC>MOL_PROPERTY
U
SciTegic.value.DoubleValue
0.039

@<SCITEGIC>MOL_PROPERTY
W
SciTegic.value.DoubleValue
-2.348

@<SCITEGIC>MOL_PROPERTY
W(PB)
SciTegic.value.DoubleValue
-3.918

@<SCITEGIC>MOL_PROPERTY
W(SA)
SciTegic.value.DoubleValue
1.571

@<SCITEGIC>MOL_PROPERTY
Valence
SciTegic.value.DoubleValue
7.320

@<SCITEGIC>MOL_PROPERTY
Coulomb
SciTegic.value.DoubleValue
-8.530

@<SCITEGIC>MOL_PROPERTY
VdW
SciTegic.value.DoubleValue
1.249

@<SCITEGIC>MOL_PROPERTY
VdW6
SciTegic.value.DoubleValue
-2.615

@<SCITEGIC>MOL_PROPERTY
VdW12
SciTegic.value.DoubleValue
3.864

@<SCITEGIC>MOL_PROPERTY
Bond
SciTegic.value.DoubleValue
0.056

@<SCITEGIC>MOL_PROPERTY
Angle
SciTegic.value.DoubleValue
0.694

@<SCITEGIC>MOL_PROPERTY
Pdih
SciTegic.value.DoubleValue
6.570

@<SCITEGIC>MOL_PROPERTY
Idih
SciTegic.value.DoubleValue
0.000

@<SCITEGIC>MOL_PROPERTY
Tether
SciTegic.value.DoubleValue
0.000

@<TRIPOS>MOLECULE
guest-s16_confgen4.mol2 : confsearch ligand conformer 326
          13          13           1
SMALL
USER_CHARGES
 
@<TRIPOS>ATOM
       1    C1      19.727704   17.725918   22.304524 C.3        1 MOL1        -0.1693
       2    H1      18.750051   17.238592   22.193637 H          1 MOL1         0.0829
       3    H2      20.499085   16.950416   22.381374 H          1 MOL1         0.0829
       4    C2      19.777518   18.854086   23.387142 C.3        1 MOL1        -0.1768
       5    H3      19.129378   18.716318   24.259436 H          1 MOL1         0.0829
       6    H4      20.785281   19.114443   23.733859 H          1 MOL1         0.0829
       7    C3      19.219305   19.784467   22.268376 C.3        1 MOL1         0.1211
       8    H5      18.128208   19.730871   22.151341 H          1 MOL1         0.0786
       9    C4      20.007105   18.873688   21.278909 C.3        1 MOL1        -0.1768
      10    H6      19.562699   18.751108   20.285104 H          1 MOL1         0.0829
      11    H7      21.066025   19.136188   21.162393 H          1 MOL1         0.0829
      12    O1      19.650798   21.124161   22.328218 O.3        1 MOL1        -0.5515
      13    H8      19.369570   21.557649   21.493831 H          1 MOL1         0.3773
@<TRIPOS>BOND
    1     1     2    1
    2     1     3    1
    3     1     4    1
    4     4     5    1
    5     4     6    1
    6     4     7    1
    7     7     8    1
    8     1     9    1
    9     7     9    1
   10     9    10    1
   11     9    11    1
   12     7    12    1
   13    12    13    1
@<TRIPOS>SUBSTRUCTURE
       1 MOL1            1 RESIDUE      1      MOL     
@<SCITEGIC>MOL_PROPERTY
VConf Rank
SciTegic.value.IntegerValue
326

@<SCITEGIC>MOL_PROPERTY
Conf_Id
SciTegic.value.IntegerValue
22

@<SCITEGIC>MOL_PROPERTY
Delta U+W
SciTegic.value.DoubleValue
0.000

@<SCITEGIC>MOL_PROPERTY
U+W
SciTegic.value.DoubleValue
-3.131

@<SCITEGIC>MOL_PROPERTY
Grad RMS
SciTegic.value.DoubleValue
0.000000

@<SCITEGIC>MOL_PROPERTY
U
SciTegic.value.DoubleValue
-0.154

@<SCITEGIC>MOL_PROPERTY
W
SciTegic.value.DoubleValue
-2.978

@<SCITEGIC>MOL_PROPERTY
W(PB)
SciTegic.value.DoubleValue
-4.579

@<SCITEGIC>MOL_PROPERTY
W(SA)
SciTegic.value.DoubleValue
1.601

@<SCITEGIC>MOL_PROPERTY
Valence
SciTegic.value.DoubleValue
6.333

@<SCITEGIC>MOL_PROPERTY
Coulomb
SciTegic.value.DoubleValue
-7.439

@<SCITEGIC>MOL_PROPERTY
VdW
SciTegic.value.DoubleValue
0.952

@<SCITEGIC>MOL_PROPERTY
VdW6
SciTegic.value.DoubleValue
-2.120

@<SCITEGIC>MOL_PROPERTY
VdW12
SciTegic.value.DoubleValue
3.072

@<SCITEGIC>MOL_PROPERTY
Bond
SciTegic.value.DoubleValue
0.065

@<SCITEGIC>MOL_PROPERTY
Angle
SciTegic.value.DoubleValue
0.931

@<SCITEGIC>MOL_PROPERTY
Pdih
SciTegic.value.DoubleValue
5.338

@<SCITEGIC>MOL_PROPERTY
Idih
SciTegic.value.DoubleValue
0.000

@<SCITEGIC>MOL_PROPERTY
Tether
SciTegic.value.DoubleValue
0.000

@<TRIPOS>MOLECULE
guest-s16_confgen4.mol2 : confsearch ligand conformer 327
          13          13           1
SMALL
USER_CHARGES
 
@<TRIPOS>ATOM
       1    C1      19.391555   18.096542   23.244528 C.3        1 MOL1        -0.1693
       2    H1      18.773160   17.235260   22.959277 H          1 MOL1         0.0829
       3    H2      19.595040   18.040778   24.320549 H          1 MOL1         0.0829
       4    C2      18.878578   19.475487   22.712838 C.3        1 MOL1        -0.1768
       5    H3      19.277561   20.348527   23.244257 H          1 MOL1         0.0829
       6    H4      17.792141   19.583634   22.622659 H          1 MOL1         0.0829
       7    C3      19.637173   19.114093   21.400160 C.3        1 MOL1         0.1211
       8    H5      19.069195   18.462653   20.721861 H          1 MOL1         0.0786
       9    C4      20.630859   18.346176   22.323056 C.3        1 MOL1        -0.1768
      10    H6      21.415107   18.972008   22.766761 H          1 MOL1         0.0829
      11    H7      21.095737   17.455797   21.885936 H          1 MOL1         0.0829
      12    O1      20.186413   20.206851   20.701043 O.3        1 MOL1        -0.5515
      13    H8      19.439581   20.696576   20.294084 H          1 MOL1         0.3773
@<TRIPOS>BOND
    1     1     2    1
    2     1     3    1
    3     1     4    1
    4     4     5    1
    5     4     6    1
    6     4     7    1
    7     7     8    1
    8     1     9    1
    9     7     9    1
   10     9    10    1
   11     9    11    1
   12     7    12    1
   13    12    13    1
@<TRIPOS>SUBSTRUCTURE
       1 MOL1            1 RESIDUE      1      MOL     
@<SCITEGIC>MOL_PROPERTY
VConf Rank
SciTegic.value.IntegerValue
327

@<SCITEGIC>MOL_PROPERTY
Conf_Id
SciTegic.value.IntegerValue
19

@<SCITEGIC>MOL_PROPERTY
Delta U+W
SciTegic.value.DoubleValue
-0.011

@<SCITEGIC>MOL_PROPERTY
U+W
SciTegic.value.DoubleValue
-3.142

@<SCITEGIC>MOL_PROPERTY
Grad RMS
SciTegic.value.DoubleValue
0.000000

@<SCITEGIC>MOL_PROPERTY
U
SciTegic.value.DoubleValue
-0.154

@<SCITEGIC>MOL_PROPERTY
W
SciTegic.value.DoubleValue
-2.989

@<SCITEGIC>MOL_PROPERTY
W(PB)
SciTegic.value.DoubleValue
-4.588

@<SCITEGIC>MOL_PROPERTY
W(SA)
SciTegic.value.DoubleValue
1.599

@<SCITEGIC>MOL_PROPERTY
Valence
SciTegic.value.DoubleValue
6.334

@<SCITEGIC>MOL_PROPERTY
Coulomb
SciTegic.value.DoubleValue
-7.439

@<SCITEGIC>MOL_PROPERTY
VdW
SciTegic.value.DoubleValue
0.951

@<SCITEGIC>MOL_PROPERTY
VdW6
SciTegic.value.DoubleValue
-2.120

@<SCITEGIC>MOL_PROPERTY
VdW12
SciTegic.value.DoubleValue
3.072

@<SCITEGIC>MOL_PROPERTY
Bond
SciTegic.value.DoubleValue
0.065

@<SCITEGIC>MOL_PROPERTY
Angle
SciTegic.value.DoubleValue
0.930

@<SCITEGIC>MOL_PROPERTY
Pdih
SciTegic.value.DoubleValue
5.339

@<SCITEGIC>MOL_PROPERTY
Idih
SciTegic.value.DoubleValue
0.000

@<SCITEGIC>MOL_PROPERTY
Tether
SciTegic.value.DoubleValue
0.000

@<TRIPOS>MOLECULE
guest-s16_confgen4.mol2 : confsearch ligand conformer 328
          13          13           1
SMALL
USER_CHARGES
 
@<TRIPOS>ATOM
       1    C1      18.660058   18.337023   22.038958 C.3        1 MOL1        -0.1693
       2    H1      17.813232   17.793258   22.473909 H          1 MOL1         0.0829
       3    H2      18.597406   18.267518   20.945134 H          1 MOL1         0.0829
       4    C2      20.069683   18.003716   22.631272 C.3        1 MOL1        -0.1768
       5    H3      20.062155   17.716375   23.689641 H          1 MOL1         0.0829
       6    H4      20.665188   17.272305   22.073772 H          1 MOL1         0.0829
       7    C3      20.425412   19.501963   22.378012 C.3        1 MOL1         0.1211
       8    H5      21.083218   19.949713   23.134071 H          1 MOL1         0.0786
       9    C4      18.904206   19.782680   22.585921 C.3        1 MOL1        -0.1768
      10    H6      18.481126   20.599326   21.990570 H          1 MOL1         0.0829
      11    H7      18.613460   19.926659   23.633638 H          1 MOL1         0.0829
      12    O1      20.913648   19.786556   21.082336 O.3        1 MOL1        -0.5515
      13    H8      20.932894   20.762604   20.986865 H          1 MOL1         0.3773
@<TRIPOS>BOND
    1     1     2    1
    2     1     3    1
    3     1     4    1
    4     4     5    1
    5     4     6    1
    6     4     7    1
    7     7     8    1
    8     1     9    1
    9     7     9    1
   10     9    10    1
   11     9    11    1
   12     7    12    1
   13    12    13    1
@<TRIPOS>SUBSTRUCTURE
       1 MOL1            1 RESIDUE      1      MOL     
@<SCITEGIC>MOL_PROPERTY
VConf Rank
SciTegic.value.IntegerValue
328

@<SCITEGIC>MOL_PROPERTY
Conf_Id
SciTegic.value.IntegerValue
20

@<SCITEGIC>MOL_PROPERTY
Delta U+W
SciTegic.value.DoubleValue
1.030

@<SCITEGIC>MOL_PROPERTY
U+W
SciTegic.value.DoubleValue
-2.101

@<SCITEGIC>MOL_PROPERTY
Grad RMS
SciTegic.value.DoubleValue
0.000000

@<SCITEGIC>MOL_PROPERTY
U
SciTegic.value.DoubleValue
0.841

@<SCITEGIC>MOL_PROPERTY
W
SciTegic.value.DoubleValue
-2.942

@<SCITEGIC>MOL_PROPERTY
W(PB)
SciTegic.value.DoubleValue
-4.530

@<SCITEGIC>MOL_PROPERTY
W(SA)
SciTegic.value.DoubleValue
1.587

@<SCITEGIC>MOL_PROPERTY
Valence
SciTegic.value.DoubleValue
6.736

@<SCITEGIC>MOL_PROPERTY
Coulomb
SciTegic.value.DoubleValue
-7.246

@<SCITEGIC>MOL_PROPERTY
VdW
SciTegic.value.DoubleValue
1.352

@<SCITEGIC>MOL_PROPERTY
VdW6
SciTegic.value.DoubleValue
-2.500

@<SCITEGIC>MOL_PROPERTY
VdW12
SciTegic.value.DoubleValue
3.851

@<SCITEGIC>MOL_PROPERTY
Bond
SciTegic.value.DoubleValue
0.063

@<SCITEGIC>MOL_PROPERTY
Angle
SciTegic.value.DoubleValue
0.687

@<SCITEGIC>MOL_PROPERTY
Pdih
SciTegic.value.DoubleValue
5.986

@<SCITEGIC>MOL_PROPERTY
Idih
SciTegic.value.DoubleValue
0.000

@<SCITEGIC>MOL_PROPERTY
Tether
SciTegic.value.DoubleValue
0.000

@<TRIPOS>MOLECULE
guest-s16_confgen4.mol2 : confsearch ligand conformer 329
          13          13           1
SMALL
USER_CHARGES
 
@<TRIPOS>ATOM
       1    C1      18.560161   19.221635   21.808873 C.3        1 MOL1        -0.1693
       2    H1      17.855504   19.653452   22.531827 H          1 MOL1         0.0829
       3    H2      18.049620   19.113186   20.844504 H          1 MOL1         0.0829
       4    C2      19.334265   17.962748   22.322025 C.3        1 MOL1        -0.1768
       5    H3      18.792759   17.315342   23.020544 H          1 MOL1         0.0829
       6    H4      19.770551   17.340146   21.531197 H          1 MOL1         0.0829
       7    C3      20.318162   18.983514   22.969435 C.3        1 MOL1         0.1211
       8    H5      19.983284   19.367035   23.942812 H          1 MOL1         0.0786
       9    C4      19.962940   19.913045   21.769875 C.3        1 MOL1        -0.1768
      10    H6      20.539742   19.726359   20.855635 H          1 MOL1         0.0829
      11    H7      19.976651   20.988048   21.980762 H          1 MOL1         0.0829
      12    O1      21.661927   18.569125   23.035733 O.3        1 MOL1        -0.5515
      13    H8      21.903036   18.239202   22.144814 H          1 MOL1         0.3773
@<TRIPOS>BOND
    1     1     2    1
    2     1     3    1
    3     1     4    1
    4     4     5    1
    5     4     6    1
    6     4     7    1
    7     7     8    1
    8     1     9    1
    9     7     9    1
   10     9    10    1
   11     9    11    1
   12     7    12    1
   13    12    13    1
@<TRIPOS>SUBSTRUCTURE
       1 MOL1            1 RESIDUE      1      MOL     
@<SCITEGIC>MOL_PROPERTY
VConf Rank
SciTegic.value.IntegerValue
329

@<SCITEGIC>MOL_PROPERTY
Conf_Id
SciTegic.value.IntegerValue
24

@<SCITEGIC>MOL_PROPERTY
Delta U+W
SciTegic.value.DoubleValue
0.356

@<SCITEGIC>MOL_PROPERTY
U+W
SciTegic.value.DoubleValue
-2.775

@<SCITEGIC>MOL_PROPERTY
Grad RMS
SciTegic.value.DoubleValue
0.000000

@<SCITEGIC>MOL_PROPERTY
U
SciTegic.value.DoubleValue
-0.184

@<SCITEGIC>MOL_PROPERTY
W
SciTegic.value.DoubleValue
-2.591

@<SCITEGIC>MOL_PROPERTY
W(PB)
SciTegic.value.DoubleValue
-4.184

@<SCITEGIC>MOL_PROPERTY
W(SA)
SciTegic.value.DoubleValue
1.593

@<SCITEGIC>MOL_PROPERTY
Valence
SciTegic.value.DoubleValue
6.840

@<SCITEGIC>MOL_PROPERTY
Coulomb
SciTegic.value.DoubleValue
-7.916

@<SCITEGIC>MOL_PROPERTY
VdW
SciTegic.value.DoubleValue
0.893

@<SCITEGIC>MOL_PROPERTY
VdW6
SciTegic.value.DoubleValue
-2.167

@<SCITEGIC>MOL_PROPERTY
VdW12
SciTegic.value.DoubleValue
3.060

@<SCITEGIC>MOL_PROPERTY
Bond
SciTegic.value.DoubleValue
0.059

@<SCITEGIC>MOL_PROPERTY
Angle
SciTegic.value.DoubleValue
0.918

@<SCITEGIC>MOL_PROPERTY
Pdih
SciTegic.value.DoubleValue
5.862

@<SCITEGIC>MOL_PROPERTY
Idih
SciTegic.value.DoubleValue
0.000

@<SCITEGIC>MOL_PROPERTY
Tether
SciTegic.value.DoubleValue
0.000

@<TRIPOS>MOLECULE
guest-s16_confgen4.mol2 : confsearch ligand conformer 330
          13          13           1
SMALL
USER_CHARGES
 
@<TRIPOS>ATOM
       1    C1      18.697485   18.548288   22.519341 C.3        1 MOL1        -0.1693
       2    H1      17.936815   18.502191   23.307776 H          1 MOL1         0.0829
       3    H2      18.361201   17.930726   21.676829 H          1 MOL1         0.0829
       4    C2      20.172595   18.292086   22.976012 C.3        1 MOL1        -0.1768
       5    H3      20.389526   18.604887   24.004658 H          1 MOL1         0.0829
       6    H4      20.552432   17.274076   22.834282 H          1 MOL1         0.0829
       7    C3      20.591891   19.333268   21.892443 C.3        1 MOL1         0.1211
       8    H5      21.445122   19.966341   22.167585 H          1 MOL1         0.0786
       9    C4      19.192497   19.981072   22.129177 C.3        1 MOL1        -0.1768
      10    H6      19.169122   20.707986   22.950191 H          1 MOL1         0.0829
      11    H7      18.719242   20.433180   21.250351 H          1 MOL1         0.0829
      12    O1      20.785134   18.797900   20.601023 O.3        1 MOL1        -0.5515
      13    H8      19.998796   18.245971   20.410338 H          1 MOL1         0.3773
@<TRIPOS>BOND
    1     1     2    1
    2     1     3    1
    3     1     4    1
    4     4     5    1
    5     4     6    1
    6     4     7    1
    7     7     8    1
    8     1     9    1
    9     7     9    1
   10     9    10    1
   11     9    11    1
   12     7    12    1
   13    12    13    1
@<TRIPOS>SUBSTRUCTURE
       1 MOL1            1 RESIDUE      1      MOL     
@<SCITEGIC>MOL_PROPERTY
VConf Rank
SciTegic.value.IntegerValue
330

@<SCITEGIC>MOL_PROPERTY
Conf_Id
SciTegic.value.IntegerValue
44

@<SCITEGIC>MOL_PROPERTY
Delta U+W
SciTegic.value.DoubleValue
0.823

@<SCITEGIC>MOL_PROPERTY
U+W
SciTegic.value.DoubleValue
-2.308

@<SCITEGIC>MOL_PROPERTY
Grad RMS
SciTegic.value.DoubleValue
0.000000

@<SCITEGIC>MOL_PROPERTY
U
SciTegic.value.DoubleValue
0.039

@<SCITEGIC>MOL_PROPERTY
W
SciTegic.value.DoubleValue
-2.348

@<SCITEGIC>MOL_PROPERTY
W(PB)
SciTegic.value.DoubleValue
-3.918

@<SCITEGIC>MOL_PROPERTY
W(SA)
SciTegic.value.DoubleValue
1.571

@<SCITEGIC>MOL_PROPERTY
Valence
SciTegic.value.DoubleValue
7.320

@<SCITEGIC>MOL_PROPERTY
Coulomb
SciTegic.value.DoubleValue
-8.530

@<SCITEGIC>MOL_PROPERTY
VdW
SciTegic.value.DoubleValue
1.249

@<SCITEGIC>MOL_PROPERTY
VdW6
SciTegic.value.DoubleValue
-2.615

@<SCITEGIC>MOL_PROPERTY
VdW12
SciTegic.value.DoubleValue
3.864

@<SCITEGIC>MOL_PROPERTY
Bond
SciTegic.value.DoubleValue
0.056

@<SCITEGIC>MOL_PROPERTY
Angle
SciTegic.value.DoubleValue
0.694

@<SCITEGIC>MOL_PROPERTY
Pdih
SciTegic.value.DoubleValue
6.570

@<SCITEGIC>MOL_PROPERTY
Idih
SciTegic.value.DoubleValue
0.000

@<SCITEGIC>MOL_PROPERTY
Tether
SciTegic.value.DoubleValue
0.000

@<TRIPOS>MOLECULE
guest-s16_confgen4.mol2 : confsearch ligand conformer 331
          13          13           1
SMALL
USER_CHARGES
 
@<TRIPOS>ATOM
       1    C1      20.603117   19.410985   23.102585 C.3        1 MOL1        -0.1693
       2    H1      21.311579   18.608474   23.346804 H          1 MOL1         0.0829
       3    H2      20.919661   20.326310   23.616703 H          1 MOL1         0.0829
       4    C2      19.095623   19.022551   23.257141 C.3        1 MOL1        -0.1768
       5    H3      18.860275   18.302998   24.048857 H          1 MOL1         0.0829
       6    H4      18.407519   19.873229   23.337425 H          1 MOL1         0.0829
       7    C3      19.226362   18.431309   21.821109 C.3        1 MOL1         0.1211
       8    H5      19.645659   17.416098   21.796680 H          1 MOL1         0.0786
       9    C4      20.277935   19.555982   21.579246 C.3        1 MOL1        -0.1768
      10    H6      21.090584   19.309609   20.887094 H          1 MOL1         0.0829
      11    H7      19.851036   20.525072   21.292166 H          1 MOL1         0.0829
      12    O1      18.064515   18.511891   21.028540 O.3        1 MOL1        -0.5515
      13    H8      18.318862   18.263398   20.113793 H          1 MOL1         0.3773
@<TRIPOS>BOND
    1     1     2    1
    2     1     3    1
    3     1     4    1
    4     4     5    1
    5     4     6    1
    6     4     7    1
    7     7     8    1
    8     1     9    1
    9     7     9    1
   10     9    10    1
   11     9    11    1
   12     7    12    1
   13    12    13    1
@<TRIPOS>SUBSTRUCTURE
       1 MOL1            1 RESIDUE      1      MOL     
@<SCITEGIC>MOL_PROPERTY
VConf Rank
SciTegic.value.IntegerValue
331

@<SCITEGIC>MOL_PROPERTY
Conf_Id
SciTegic.value.IntegerValue
22

@<SCITEGIC>MOL_PROPERTY
Delta U+W
SciTegic.value.DoubleValue
0.000

@<SCITEGIC>MOL_PROPERTY
U+W
SciTegic.value.DoubleValue
-3.131

@<SCITEGIC>MOL_PROPERTY
Grad RMS
SciTegic.value.DoubleValue
0.000000

@<SCITEGIC>MOL_PROPERTY
U
SciTegic.value.DoubleValue
-0.154

@<SCITEGIC>MOL_PROPERTY
W
SciTegic.value.DoubleValue
-2.978

@<SCITEGIC>MOL_PROPERTY
W(PB)
SciTegic.value.DoubleValue
-4.579

@<SCITEGIC>MOL_PROPERTY
W(SA)
SciTegic.value.DoubleValue
1.601

@<SCITEGIC>MOL_PROPERTY
Valence
SciTegic.value.DoubleValue
6.333

@<SCITEGIC>MOL_PROPERTY
Coulomb
SciTegic.value.DoubleValue
-7.439

@<SCITEGIC>MOL_PROPERTY
VdW
SciTegic.value.DoubleValue
0.952

@<SCITEGIC>MOL_PROPERTY
VdW6
SciTegic.value.DoubleValue
-2.120

@<SCITEGIC>MOL_PROPERTY
VdW12
SciTegic.value.DoubleValue
3.072

@<SCITEGIC>MOL_PROPERTY
Bond
SciTegic.value.DoubleValue
0.065

@<SCITEGIC>MOL_PROPERTY
Angle
SciTegic.value.DoubleValue
0.931

@<SCITEGIC>MOL_PROPERTY
Pdih
SciTegic.value.DoubleValue
5.338

@<SCITEGIC>MOL_PROPERTY
Idih
SciTegic.value.DoubleValue
0.000

@<SCITEGIC>MOL_PROPERTY
Tether
SciTegic.value.DoubleValue
0.000

@<TRIPOS>MOLECULE
guest-s16_confgen4.mol2 : confsearch ligand conformer 332
          13          13           1
SMALL
USER_CHARGES
 
@<TRIPOS>ATOM
       1    C1      19.636480   20.236946   22.394104 C.3        1 MOL1        -0.1693
       2    H1      18.664821   20.705033   22.188290 H          1 MOL1         0.0829
       3    H2      20.364235   21.025253   22.620557 H          1 MOL1         0.0829
       4    C2      20.084859   19.169536   21.342000 C.3        1 MOL1        -0.1768
       5    H3      21.158447   18.943334   21.347863 H          1 MOL1         0.0829
       6    H4      19.767657   19.348019   20.308705 H          1 MOL1         0.0829
       7    C3      19.208713   18.173088   22.159713 C.3        1 MOL1         0.1211
       8    H5      18.140459   18.206027   21.905132 H          1 MOL1         0.0786
       9    C4      19.586079   19.039205   23.399181 C.3        1 MOL1        -0.1768
      10    H6      20.549437   18.782185   23.856857 H          1 MOL1         0.0829
      11    H7      18.826958   19.100152   24.186571 H          1 MOL1         0.0829
      12    O1      19.675239   16.844163   22.189053 O.3        1 MOL1        -0.5515
      13    H8      19.518715   16.461441   21.298982 H          1 MOL1         0.3773
@<TRIPOS>BOND
    1     1     2    1
    2     1     3    1
    3     1     4    1
    4     4     5    1
    5     4     6    1
    6     4     7    1
    7     7     8    1
    8     1     9    1
    9     7     9    1
   10     9    10    1
   11     9    11    1
   12     7    12    1
   13    12    13    1
@<TRIPOS>SUBSTRUCTURE
       1 MOL1            1 RESIDUE      1      MOL     
@<SCITEGIC>MOL_PROPERTY
VConf Rank
SciTegic.value.IntegerValue
332

@<SCITEGIC>MOL_PROPERTY
Conf_Id
SciTegic.value.IntegerValue
19

@<SCITEGIC>MOL_PROPERTY
Delta U+W
SciTegic.value.DoubleValue
-0.011

@<SCITEGIC>MOL_PROPERTY
U+W
SciTegic.value.DoubleValue
-3.142

@<SCITEGIC>MOL_PROPERTY
Grad RMS
SciTegic.value.DoubleValue
0.000000

@<SCITEGIC>MOL_PROPERTY
U
SciTegic.value.DoubleValue
-0.154

@<SCITEGIC>MOL_PROPERTY
W
SciTegic.value.DoubleValue
-2.989

@<SCITEGIC>MOL_PROPERTY
W(PB)
SciTegic.value.DoubleValue
-4.588

@<SCITEGIC>MOL_PROPERTY
W(SA)
SciTegic.value.DoubleValue
1.599

@<SCITEGIC>MOL_PROPERTY
Valence
SciTegic.value.DoubleValue
6.334

@<SCITEGIC>MOL_PROPERTY
Coulomb
SciTegic.value.DoubleValue
-7.439

@<SCITEGIC>MOL_PROPERTY
VdW
SciTegic.value.DoubleValue
0.951

@<SCITEGIC>MOL_PROPERTY
VdW6
SciTegic.value.DoubleValue
-2.120

@<SCITEGIC>MOL_PROPERTY
VdW12
SciTegic.value.DoubleValue
3.072

@<SCITEGIC>MOL_PROPERTY
Bond
SciTegic.value.DoubleValue
0.065

@<SCITEGIC>MOL_PROPERTY
Angle
SciTegic.value.DoubleValue
0.930

@<SCITEGIC>MOL_PROPERTY
Pdih
SciTegic.value.DoubleValue
5.339

@<SCITEGIC>MOL_PROPERTY
Idih
SciTegic.value.DoubleValue
0.000

@<SCITEGIC>MOL_PROPERTY
Tether
SciTegic.value.DoubleValue
0.000

@<TRIPOS>MOLECULE
guest-s16_confgen4.mol2 : confsearch ligand conformer 333
          13          13           1
SMALL
USER_CHARGES
 
@<TRIPOS>ATOM
       1    C1      20.689134   19.358149   21.725019 C.3        1 MOL1        -0.1693
       2    H1      21.714389   19.038174   21.504917 H          1 MOL1         0.0829
       3    H2      20.496132   20.303239   21.200841 H          1 MOL1         0.0829
       4    C2      20.276489   19.356654   23.234553 C.3        1 MOL1        -0.1768
       5    H3      20.775961   18.592282   23.842031 H          1 MOL1         0.0829
       6    H4      20.347777   20.318768   23.753828 H          1 MOL1         0.0829
       7    C3      18.850055   18.953857   22.746221 C.3        1 MOL1         0.1211
       8    H5      18.317215   18.262696   23.411948 H          1 MOL1         0.0786
       9    C4      19.575374   18.274143   21.542893 C.3        1 MOL1        -0.1768
      10    H6      19.039526   18.291817   20.587432 H          1 MOL1         0.0829
      11    H7      19.905319   17.246862   21.739880 H          1 MOL1         0.0829
      12    O1      18.010800   20.038150   22.402560 O.3        1 MOL1        -0.5515
      13    H8      17.223515   19.664904   21.951977 H          1 MOL1         0.3773
@<TRIPOS>BOND
    1     1     2    1
    2     1     3    1
    3     1     4    1
    4     4     5    1
    5     4     6    1
    6     4     7    1
    7     7     8    1
    8     1     9    1
    9     7     9    1
   10     9    10    1
   11     9    11    1
   12     7    12    1
   13    12    13    1
@<TRIPOS>SUBSTRUCTURE
       1 MOL1            1 RESIDUE      1      MOL     
@<SCITEGIC>MOL_PROPERTY
VConf Rank
SciTegic.value.IntegerValue
333

@<SCITEGIC>MOL_PROPERTY
Conf_Id
SciTegic.value.IntegerValue
20

@<SCITEGIC>MOL_PROPERTY
Delta U+W
SciTegic.value.DoubleValue
1.030

@<SCITEGIC>MOL_PROPERTY
U+W
SciTegic.value.DoubleValue
-2.101

@<SCITEGIC>MOL_PROPERTY
Grad RMS
SciTegic.value.DoubleValue
0.000000

@<SCITEGIC>MOL_PROPERTY
U
SciTegic.value.DoubleValue
0.841

@<SCITEGIC>MOL_PROPERTY
W
SciTegic.value.DoubleValue
-2.942

@<SCITEGIC>MOL_PROPERTY
W(PB)
SciTegic.value.DoubleValue
-4.530

@<SCITEGIC>MOL_PROPERTY
W(SA)
SciTegic.value.DoubleValue
1.587

@<SCITEGIC>MOL_PROPERTY
Valence
SciTegic.value.DoubleValue
6.736

@<SCITEGIC>MOL_PROPERTY
Coulomb
SciTegic.value.DoubleValue
-7.246

@<SCITEGIC>MOL_PROPERTY
VdW
SciTegic.value.DoubleValue
1.352

@<SCITEGIC>MOL_PROPERTY
VdW6
SciTegic.value.DoubleValue
-2.500

@<SCITEGIC>MOL_PROPERTY
VdW12
SciTegic.value.DoubleValue
3.851

@<SCITEGIC>MOL_PROPERTY
Bond
SciTegic.value.DoubleValue
0.063

@<SCITEGIC>MOL_PROPERTY
Angle
SciTegic.value.DoubleValue
0.687

@<SCITEGIC>MOL_PROPERTY
Pdih
SciTegic.value.DoubleValue
5.986

@<SCITEGIC>MOL_PROPERTY
Idih
SciTegic.value.DoubleValue
0.000

@<SCITEGIC>MOL_PROPERTY
Tether
SciTegic.value.DoubleValue
0.000

@<TRIPOS>MOLECULE
guest-s16_confgen4.mol2 : confsearch ligand conformer 334
          13          13           1
SMALL
USER_CHARGES
 
@<TRIPOS>ATOM
       1    C1      19.001004   19.429182   23.139567 C.3        1 MOL1        -0.1693
       2    H1      17.978879   19.730763   22.875036 H          1 MOL1         0.0829
       3    H2      19.156118   19.618317   24.208487 H          1 MOL1         0.0829
       4    C2      20.111330   19.967901   22.178154 C.3        1 MOL1        -0.1768
       5    H3      19.923654   20.948054   21.726081 H          1 MOL1         0.0829
       6    H4      21.123813   19.963101   22.600343 H          1 MOL1         0.0829
       7    C3      19.766996   18.735280   21.288640 C.3        1 MOL1         0.1211
       8    H5      18.902189   18.891028   20.629439 H          1 MOL1         0.0786
       9    C4      19.418739   18.012224   22.624702 C.3        1 MOL1        -0.1768
      10    H6      20.276419   17.570307   23.146701 H          1 MOL1         0.0829
      11    H7      18.619402   17.265216   22.566998 H          1 MOL1         0.0829
      12    O1      20.846506   18.188686   20.569120 O.3        1 MOL1        -0.5515
      13    H8      21.583553   18.072778   21.204766 H          1 MOL1         0.3773
@<TRIPOS>BOND
    1     1     2    1
    2     1     3    1
    3     1     4    1
    4     4     5    1
    5     4     6    1
    6     4     7    1
    7     7     8    1
    8     1     9    1
    9     7     9    1
   10     9    10    1
   11     9    11    1
   12     7    12    1
   13    12    13    1
@<TRIPOS>SUBSTRUCTURE
       1 MOL1            1 RESIDUE      1      MOL     
@<SCITEGIC>MOL_PROPERTY
VConf Rank
SciTegic.value.IntegerValue
334

@<SCITEGIC>MOL_PROPERTY
Conf_Id
SciTegic.value.IntegerValue
24

@<SCITEGIC>MOL_PROPERTY
Delta U+W
SciTegic.value.DoubleValue
0.356

@<SCITEGIC>MOL_PROPERTY
U+W
SciTegic.value.DoubleValue
-2.775

@<SCITEGIC>MOL_PROPERTY
Grad RMS
SciTegic.value.DoubleValue
0.000000

@<SCITEGIC>MOL_PROPERTY
U
SciTegic.value.DoubleValue
-0.184

@<SCITEGIC>MOL_PROPERTY
W
SciTegic.value.DoubleValue
-2.591

@<SCITEGIC>MOL_PROPERTY
W(PB)
SciTegic.value.DoubleValue
-4.184

@<SCITEGIC>MOL_PROPERTY
W(SA)
SciTegic.value.DoubleValue
1.593

@<SCITEGIC>MOL_PROPERTY
Valence
SciTegic.value.DoubleValue
6.840

@<SCITEGIC>MOL_PROPERTY
Coulomb
SciTegic.value.DoubleValue
-7.916

@<SCITEGIC>MOL_PROPERTY
VdW
SciTegic.value.DoubleValue
0.893

@<SCITEGIC>MOL_PROPERTY
VdW6
SciTegic.value.DoubleValue
-2.167

@<SCITEGIC>MOL_PROPERTY
VdW12
SciTegic.value.DoubleValue
3.060

@<SCITEGIC>MOL_PROPERTY
Bond
SciTegic.value.DoubleValue
0.059

@<SCITEGIC>MOL_PROPERTY
Angle
SciTegic.value.DoubleValue
0.918

@<SCITEGIC>MOL_PROPERTY
Pdih
SciTegic.value.DoubleValue
5.862

@<SCITEGIC>MOL_PROPERTY
Idih
SciTegic.value.DoubleValue
0.000

@<SCITEGIC>MOL_PROPERTY
Tether
SciTegic.value.DoubleValue
0.000

@<TRIPOS>MOLECULE
guest-s16_confgen4.mol2 : confsearch ligand conformer 335
          13          13           1
SMALL
USER_CHARGES
 
@<TRIPOS>ATOM
       1    C1      20.042533   20.005892   21.940542 C.3        1 MOL1        -0.1693
       2    H1      20.883631   20.709397   21.943280 H          1 MOL1         0.0829
       3    H2      19.174248   20.505591   21.492571 H          1 MOL1         0.0829
       4    C2      19.755984   19.276827   23.295715 C.3        1 MOL1        -0.1768
       5    H3      20.644001   19.110483   23.917624 H          1 MOL1         0.0829
       6    H4      18.969135   19.712297   23.921767 H          1 MOL1         0.0829
       7    C3      19.339531   18.042098   22.437809 C.3        1 MOL1         0.1211
       8    H5      19.603358   17.069295   22.872017 H          1 MOL1         0.0786
       9    C4      20.346034   18.578853   21.373459 C.3        1 MOL1        -0.1768
      10    H6      21.378722   18.241378   21.524059 H          1 MOL1         0.0829
      11    H7      20.072774   18.406798   20.326351 H          1 MOL1         0.0829
      12    O1      17.989790   18.036238   22.025628 O.3        1 MOL1        -0.5515
      13    H8      17.812113   18.922824   21.649185 H          1 MOL1         0.3773
@<TRIPOS>BOND
    1     1     2    1
    2     1     3    1
    3     1     4    1
    4     4     5    1
    5     4     6    1
    6     4     7    1
    7     7     8    1
    8     1     9    1
    9     7     9    1
   10     9    10    1
   11     9    11    1
   12     7    12    1
   13    12    13    1
@<TRIPOS>SUBSTRUCTURE
       1 MOL1            1 RESIDUE      1      MOL     
@<SCITEGIC>MOL_PROPERTY
VConf Rank
SciTegic.value.IntegerValue
335

@<SCITEGIC>MOL_PROPERTY
Conf_Id
SciTegic.value.IntegerValue
44

@<SCITEGIC>MOL_PROPERTY
Delta U+W
SciTegic.value.DoubleValue
0.823

@<SCITEGIC>MOL_PROPERTY
U+W
SciTegic.value.DoubleValue
-2.308

@<SCITEGIC>MOL_PROPERTY
Grad RMS
SciTegic.value.DoubleValue
0.000000

@<SCITEGIC>MOL_PROPERTY
U
SciTegic.value.DoubleValue
0.039

@<SCITEGIC>MOL_PROPERTY
W
SciTegic.value.DoubleValue
-2.348

@<SCITEGIC>MOL_PROPERTY
W(PB)
SciTegic.value.DoubleValue
-3.918

@<SCITEGIC>MOL_PROPERTY
W(SA)
SciTegic.value.DoubleValue
1.571

@<SCITEGIC>MOL_PROPERTY
Valence
SciTegic.value.DoubleValue
7.320

@<SCITEGIC>MOL_PROPERTY
Coulomb
SciTegic.value.DoubleValue
-8.530

@<SCITEGIC>MOL_PROPERTY
VdW
SciTegic.value.DoubleValue
1.249

@<SCITEGIC>MOL_PROPERTY
VdW6
SciTegic.value.DoubleValue
-2.615

@<SCITEGIC>MOL_PROPERTY
VdW12
SciTegic.value.DoubleValue
3.864

@<SCITEGIC>MOL_PROPERTY
Bond
SciTegic.value.DoubleValue
0.056

@<SCITEGIC>MOL_PROPERTY
Angle
SciTegic.value.DoubleValue
0.694

@<SCITEGIC>MOL_PROPERTY
Pdih
SciTegic.value.DoubleValue
6.570

@<SCITEGIC>MOL_PROPERTY
Idih
SciTegic.value.DoubleValue
0.000

@<SCITEGIC>MOL_PROPERTY
Tether
SciTegic.value.DoubleValue
0.000

@<TRIPOS>MOLECULE
guest-s16_confgen4.mol2 : confsearch ligand conformer 336
          13          13           1
SMALL
USER_CHARGES
 
@<TRIPOS>ATOM
       1    C1      19.818574   17.882968   21.637664 C.3        1 MOL1        -0.1693
       2    H1      20.840949   17.709577   21.276736 H          1 MOL1         0.0829
       3    H2      19.215560   16.992606   21.423264 H          1 MOL1         0.0829
       4    C2      19.196934   19.253154   21.209342 C.3        1 MOL1        -0.1768
       5    H3      19.509588   19.642432   20.234318 H          1 MOL1         0.0829
       6    H4      18.102892   19.302152   21.274590 H          1 MOL1         0.0829
       7    C3      19.944225   19.840125   22.444602 C.3        1 MOL1         0.1211
       8    H5      20.998378   20.081548   22.250851 H          1 MOL1         0.0786
       9    C4      19.725076   18.441274   23.096047 C.3        1 MOL1        -0.1768
      10    H6      20.505114   18.109853   23.790218 H          1 MOL1         0.0829
      11    H7      18.746800   18.309756   23.575081 H          1 MOL1         0.0829
      12    O1      19.295348   20.912688   23.087341 O.3        1 MOL1        -0.5515
      13    H8      19.773290   21.079772   23.928089 H          1 MOL1         0.3773
@<TRIPOS>BOND
    1     1     2    1
    2     1     3    1
    3     1     4    1
    4     4     5    1
    5     4     6    1
    6     4     7    1
    7     7     8    1
    8     1     9    1
    9     7     9    1
   10     9    10    1
   11     9    11    1
   12     7    12    1
   13    12    13    1
@<TRIPOS>SUBSTRUCTURE
       1 MOL1            1 RESIDUE      1      MOL     
@<SCITEGIC>MOL_PROPERTY
VConf Rank
SciTegic.value.IntegerValue
336

@<SCITEGIC>MOL_PROPERTY
Conf_Id
SciTegic.value.IntegerValue
22

@<SCITEGIC>MOL_PROPERTY
Delta U+W
SciTegic.value.DoubleValue
0.000

@<SCITEGIC>MOL_PROPERTY
U+W
SciTegic.value.DoubleValue
-3.131

@<SCITEGIC>MOL_PROPERTY
Grad RMS
SciTegic.value.DoubleValue
0.000000

@<SCITEGIC>MOL_PROPERTY
U
SciTegic.value.DoubleValue
-0.154

@<SCITEGIC>MOL_PROPERTY
W
SciTegic.value.DoubleValue
-2.978

@<SCITEGIC>MOL_PROPERTY
W(PB)
SciTegic.value.DoubleValue
-4.579

@<SCITEGIC>MOL_PROPERTY
W(SA)
SciTegic.value.DoubleValue
1.601

@<SCITEGIC>MOL_PROPERTY
Valence
SciTegic.value.DoubleValue
6.333

@<SCITEGIC>MOL_PROPERTY
Coulomb
SciTegic.value.DoubleValue
-7.439

@<SCITEGIC>MOL_PROPERTY
VdW
SciTegic.value.DoubleValue
0.952

@<SCITEGIC>MOL_PROPERTY
VdW6
SciTegic.value.DoubleValue
-2.120

@<SCITEGIC>MOL_PROPERTY
VdW12
SciTegic.value.DoubleValue
3.072

@<SCITEGIC>MOL_PROPERTY
Bond
SciTegic.value.DoubleValue
0.065

@<SCITEGIC>MOL_PROPERTY
Angle
SciTegic.value.DoubleValue
0.931

@<SCITEGIC>MOL_PROPERTY
Pdih
SciTegic.value.DoubleValue
5.338

@<SCITEGIC>MOL_PROPERTY
Idih
SciTegic.value.DoubleValue
0.000

@<SCITEGIC>MOL_PROPERTY
Tether
SciTegic.value.DoubleValue
0.000

@<TRIPOS>MOLECULE
guest-s16_confgen4.mol2 : confsearch ligand conformer 337
          13          13           1
SMALL
USER_CHARGES
 
@<TRIPOS>ATOM
       1    C1      20.616024   19.072413   23.109842 C.3        1 MOL1        -0.1693
       2    H1      21.494573   19.578019   22.687823 H          1 MOL1         0.0829
       3    H2      20.841034   18.783069   24.143277 H          1 MOL1         0.0829
       4    C2      20.004274   17.955441   22.201291 C.3        1 MOL1        -0.1768
       5    H3      19.358824   17.240251   22.726353 H          1 MOL1         0.0829
       6    H4      20.712760   17.399283   21.577666 H          1 MOL1         0.0829
       7    C3      19.242707   19.117170   21.494470 C.3        1 MOL1         0.1211
       8    H5      19.834185   19.636950   20.728282 H          1 MOL1         0.0786
       9    C4      19.260201   19.819865   22.885426 C.3        1 MOL1        -0.1768
      10    H6      18.449867   19.514539   23.559014 H          1 MOL1         0.0829
      11    H7      19.308604   20.914044   22.865687 H          1 MOL1         0.0829
      12    O1      17.964516   18.788252   21.001934 O.3        1 MOL1        -0.5515
      13    H8      18.094529   18.215086   20.215943 H          1 MOL1         0.3773
@<TRIPOS>BOND
    1     1     2    1
    2     1     3    1
    3     1     4    1
    4     4     5    1
    5     4     6    1
    6     4     7    1
    7     7     8    1
    8     1     9    1
    9     7     9    1
   10     9    10    1
   11     9    11    1
   12     7    12    1
   13    12    13    1
@<TRIPOS>SUBSTRUCTURE
       1 MOL1            1 RESIDUE      1      MOL     
@<SCITEGIC>MOL_PROPERTY
VConf Rank
SciTegic.value.IntegerValue
337

@<SCITEGIC>MOL_PROPERTY
Conf_Id
SciTegic.value.IntegerValue
19

@<SCITEGIC>MOL_PROPERTY
Delta U+W
SciTegic.value.DoubleValue
-0.011

@<SCITEGIC>MOL_PROPERTY
U+W
SciTegic.value.DoubleValue
-3.142

@<SCITEGIC>MOL_PROPERTY
Grad RMS
SciTegic.value.DoubleValue
0.000000

@<SCITEGIC>MOL_PROPERTY
U
SciTegic.value.DoubleValue
-0.154

@<SCITEGIC>MOL_PROPERTY
W
SciTegic.value.DoubleValue
-2.989

@<SCITEGIC>MOL_PROPERTY
W(PB)
SciTegic.value.DoubleValue
-4.588

@<SCITEGIC>MOL_PROPERTY
W(SA)
SciTegic.value.DoubleValue
1.599

@<SCITEGIC>MOL_PROPERTY
Valence
SciTegic.value.DoubleValue
6.334

@<SCITEGIC>MOL_PROPERTY
Coulomb
SciTegic.value.DoubleValue
-7.439

@<SCITEGIC>MOL_PROPERTY
VdW
SciTegic.value.DoubleValue
0.951

@<SCITEGIC>MOL_PROPERTY
VdW6
SciTegic.value.DoubleValue
-2.120

@<SCITEGIC>MOL_PROPERTY
VdW12
SciTegic.value.DoubleValue
3.072

@<SCITEGIC>MOL_PROPERTY
Bond
SciTegic.value.DoubleValue
0.065

@<SCITEGIC>MOL_PROPERTY
Angle
SciTegic.value.DoubleValue
0.930

@<SCITEGIC>MOL_PROPERTY
Pdih
SciTegic.value.DoubleValue
5.339

@<SCITEGIC>MOL_PROPERTY
Idih
SciTegic.value.DoubleValue
0.000

@<SCITEGIC>MOL_PROPERTY
Tether
SciTegic.value.DoubleValue
0.000

@<TRIPOS>MOLECULE
guest-s16_confgen4.mol2 : confsearch ligand conformer 338
          13          13           1
SMALL
USER_CHARGES
 
@<TRIPOS>ATOM
       1    C1      20.531764   19.732049   22.779112 C.3        1 MOL1        -0.1693
       2    H1      21.407028   20.358580   22.570912 H          1 MOL1         0.0829
       3    H2      20.334244   19.752429   23.858824 H          1 MOL1         0.0829
       4    C2      20.544272   18.300073   22.148034 C.3        1 MOL1        -0.1768
       5    H3      21.080853   18.227831   21.194291 H          1 MOL1         0.0829
       6    H4      20.881869   17.488778   22.802421 H          1 MOL1         0.0829
       7    C3      18.998232   18.454338   22.001775 C.3        1 MOL1         0.1211
       8    H5      18.575954   17.991873   21.100321 H          1 MOL1         0.0786
       9    C4      19.274330   19.985920   21.882948 C.3        1 MOL1        -0.1768
      10    H6      18.508617   20.645817   22.305527 H          1 MOL1         0.0829
      11    H7      19.503297   20.323033   20.864664 H          1 MOL1         0.0829
      12    O1      18.251811   18.068434   23.138472 O.3        1 MOL1        -0.5515
      13    H8      17.329415   18.370542   22.996799 H          1 MOL1         0.3773
@<TRIPOS>BOND
    1     1     2    1
    2     1     3    1
    3     1     4    1
    4     4     5    1
    5     4     6    1
    6     4     7    1
    7     7     8    1
    8     1     9    1
    9     7     9    1
   10     9    10    1
   11     9    11    1
   12     7    12    1
   13    12    13    1
@<TRIPOS>SUBSTRUCTURE
       1 MOL1            1 RESIDUE      1      MOL     
@<SCITEGIC>MOL_PROPERTY
VConf Rank
SciTegic.value.IntegerValue
338

@<SCITEGIC>MOL_PROPERTY
Conf_Id
SciTegic.value.IntegerValue
20

@<SCITEGIC>MOL_PROPERTY
Delta U+W
SciTegic.value.DoubleValue
1.030

@<SCITEGIC>MOL_PROPERTY
U+W
SciTegic.value.DoubleValue
-2.101

@<SCITEGIC>MOL_PROPERTY
Grad RMS
SciTegic.value.DoubleValue
0.000000

@<SCITEGIC>MOL_PROPERTY
U
SciTegic.value.DoubleValue
0.841

@<SCITEGIC>MOL_PROPERTY
W
SciTegic.value.DoubleValue
-2.942

@<SCITEGIC>MOL_PROPERTY
W(PB)
SciTegic.value.DoubleValue
-4.530

@<SCITEGIC>MOL_PROPERTY
W(SA)
SciTegic.value.DoubleValue
1.587

@<SCITEGIC>MOL_PROPERTY
Valence
SciTegic.value.DoubleValue
6.736

@<SCITEGIC>MOL_PROPERTY
Coulomb
SciTegic.value.DoubleValue
-7.246

@<SCITEGIC>MOL_PROPERTY
VdW
SciTegic.value.DoubleValue
1.352

@<SCITEGIC>MOL_PROPERTY
VdW6
SciTegic.value.DoubleValue
-2.500

@<SCITEGIC>MOL_PROPERTY
VdW12
SciTegic.value.DoubleValue
3.851

@<SCITEGIC>MOL_PROPERTY
Bond
SciTegic.value.DoubleValue
0.063

@<SCITEGIC>MOL_PROPERTY
Angle
SciTegic.value.DoubleValue
0.687

@<SCITEGIC>MOL_PROPERTY
Pdih
SciTegic.value.DoubleValue
5.986

@<SCITEGIC>MOL_PROPERTY
Idih
SciTegic.value.DoubleValue
0.000

@<SCITEGIC>MOL_PROPERTY
Tether
SciTegic.value.DoubleValue
0.000

@<TRIPOS>MOLECULE
guest-s16_confgen4.mol2 : confsearch ligand conformer 339
          13          13           1
SMALL
USER_CHARGES
 
@<TRIPOS>ATOM
       1    C1      20.959719   18.615894   22.452613 C.3        1 MOL1        -0.1693
       2    H1      21.759805   19.269905   22.081399 H          1 MOL1         0.0829
       3    H2      21.415944   17.768671   22.978440 H          1 MOL1         0.0829
       4    C2      19.863518   18.258749   21.395187 C.3        1 MOL1        -0.1768
       5    H3      20.202560   18.182389   20.356192 H          1 MOL1         0.0829
       6    H4      19.266871   17.370502   21.636884 H          1 MOL1         0.0829
       7    C3      19.209545   19.615624   21.795645 C.3        1 MOL1         0.1211
       8    H5      19.642025   20.485523   21.282877 H          1 MOL1         0.0786
       9    C4      19.808844   19.356159   23.210803 C.3        1 MOL1        -0.1768
      10    H6      19.199977   18.713197   23.858313 H          1 MOL1         0.0829
      11    H7      20.099598   20.248979   23.775273 H          1 MOL1         0.0829
      12    O1      17.803671   19.651149   21.731840 O.3        1 MOL1        -0.5515
      13    H8      17.476527   18.856096   22.202570 H          1 MOL1         0.3773
@<TRIPOS>BOND
    1     1     2    1
    2     1     3    1
    3     1     4    1
    4     4     5    1
    5     4     6    1
    6     4     7    1
    7     7     8    1
    8     1     9    1
    9     7     9    1
   10     9    10    1
   11     9    11    1
   12     7    12    1
   13    12    13    1
@<TRIPOS>SUBSTRUCTURE
       1 MOL1            1 RESIDUE      1      MOL     
@<SCITEGIC>MOL_PROPERTY
VConf Rank
SciTegic.value.IntegerValue
339

@<SCITEGIC>MOL_PROPERTY
Conf_Id
SciTegic.value.IntegerValue
24

@<SCITEGIC>MOL_PROPERTY
Delta U+W
SciTegic.value.DoubleValue
0.356

@<SCITEGIC>MOL_PROPERTY
U+W
SciTegic.value.DoubleValue
-2.775

@<SCITEGIC>MOL_PROPERTY
Grad RMS
SciTegic.value.DoubleValue
0.000000

@<SCITEGIC>MOL_PROPERTY
U
SciTegic.value.DoubleValue
-0.184

@<SCITEGIC>MOL_PROPERTY
W
SciTegic.value.DoubleValue
-2.591

@<SCITEGIC>MOL_PROPERTY
W(PB)
SciTegic.value.DoubleValue
-4.184

@<SCITEGIC>MOL_PROPERTY
W(SA)
SciTegic.value.DoubleValue
1.593

@<SCITEGIC>MOL_PROPERTY
Valence
SciTegic.value.DoubleValue
6.840

@<SCITEGIC>MOL_PROPERTY
Coulomb
SciTegic.value.DoubleValue
-7.916

@<SCITEGIC>MOL_PROPERTY
VdW
SciTegic.value.DoubleValue
0.893

@<SCITEGIC>MOL_PROPERTY
VdW6
SciTegic.value.DoubleValue
-2.167

@<SCITEGIC>MOL_PROPERTY
VdW12
SciTegic.value.DoubleValue
3.060

@<SCITEGIC>MOL_PROPERTY
Bond
SciTegic.value.DoubleValue
0.059

@<SCITEGIC>MOL_PROPERTY
Angle
SciTegic.value.DoubleValue
0.918

@<SCITEGIC>MOL_PROPERTY
Pdih
SciTegic.value.DoubleValue
5.862

@<SCITEGIC>MOL_PROPERTY
Idih
SciTegic.value.DoubleValue
0.000

@<SCITEGIC>MOL_PROPERTY
Tether
SciTegic.value.DoubleValue
0.000

@<TRIPOS>MOLECULE
guest-s16_confgen4.mol2 : confsearch ligand conformer 340
          13          13           1
SMALL
USER_CHARGES
 
@<TRIPOS>ATOM
       1    C1      18.733245   19.503240   21.962712 C.3        1 MOL1        -0.1693
       2    H1      17.676056   19.391150   21.694085 H          1 MOL1         0.0829
       3    H2      18.965220   20.574452   22.017376 H          1 MOL1         0.0829
       4    C2      19.745780   18.652133   21.125737 C.3        1 MOL1        -0.1768
       5    H3      19.342726   17.700726   20.757785 H          1 MOL1         0.0829
       6    H4      20.237394   19.167292   20.292890 H          1 MOL1         0.0829
       7    C3      20.581287   18.524634   22.437096 C.3        1 MOL1         0.1211
       8    H5      21.086299   17.559287   22.569588 H          1 MOL1         0.0786
       9    C4      19.220765   18.660573   23.188425 C.3        1 MOL1        -0.1768
      10    H6      18.688985   17.711237   23.326214 H          1 MOL1         0.0829
      11    H7      19.255398   19.183079   24.150972 H          1 MOL1         0.0829
      12    O1      21.490522   19.579833   22.664201 O.3        1 MOL1        -0.5515
      13    H8      20.988180   20.410335   22.532926 H          1 MOL1         0.3773
@<TRIPOS>BOND
    1     1     2    1
    2     1     3    1
    3     1     4    1
    4     4     5    1
    5     4     6    1
    6     4     7    1
    7     7     8    1
    8     1     9    1
    9     7     9    1
   10     9    10    1
   11     9    11    1
   12     7    12    1
   13    12    13    1
@<TRIPOS>SUBSTRUCTURE
       1 MOL1            1 RESIDUE      1      MOL     
@<SCITEGIC>MOL_PROPERTY
VConf Rank
SciTegic.value.IntegerValue
340

@<SCITEGIC>MOL_PROPERTY
Conf_Id
SciTegic.value.IntegerValue
44

@<SCITEGIC>MOL_PROPERTY
Delta U+W
SciTegic.value.DoubleValue
0.823

@<SCITEGIC>MOL_PROPERTY
U+W
SciTegic.value.DoubleValue
-2.308

@<SCITEGIC>MOL_PROPERTY
Grad RMS
SciTegic.value.DoubleValue
0.000000

@<SCITEGIC>MOL_PROPERTY
U
SciTegic.value.DoubleValue
0.039

@<SCITEGIC>MOL_PROPERTY
W
SciTegic.value.DoubleValue
-2.348

@<SCITEGIC>MOL_PROPERTY
W(PB)
SciTegic.value.DoubleValue
-3.918

@<SCITEGIC>MOL_PROPERTY
W(SA)
SciTegic.value.DoubleValue
1.571

@<SCITEGIC>MOL_PROPERTY
Valence
SciTegic.value.DoubleValue
7.320

@<SCITEGIC>MOL_PROPERTY
Coulomb
SciTegic.value.DoubleValue
-8.530

@<SCITEGIC>MOL_PROPERTY
VdW
SciTegic.value.DoubleValue
1.249

@<SCITEGIC>MOL_PROPERTY
VdW6
SciTegic.value.DoubleValue
-2.615

@<SCITEGIC>MOL_PROPERTY
VdW12
SciTegic.value.DoubleValue
3.864

@<SCITEGIC>MOL_PROPERTY
Bond
SciTegic.value.DoubleValue
0.056

@<SCITEGIC>MOL_PROPERTY
Angle
SciTegic.value.DoubleValue
0.694

@<SCITEGIC>MOL_PROPERTY
Pdih
SciTegic.value.DoubleValue
6.570

@<SCITEGIC>MOL_PROPERTY
Idih
SciTegic.value.DoubleValue
0.000

@<SCITEGIC>MOL_PROPERTY
Tether
SciTegic.value.DoubleValue
0.000

@<TRIPOS>MOLECULE
guest-s16_confgen4.mol2 : confsearch ligand conformer 341
          13          13           1
SMALL
USER_CHARGES
 
@<TRIPOS>ATOM
       1    C1      19.713603   17.918735   22.937789 C.3        1 MOL1        -0.1693
       2    H1      20.729467   17.635399   23.243284 H          1 MOL1         0.0829
       3    H2      19.007118   17.188890   23.350757 H          1 MOL1         0.0829
       4    C2      19.554591   18.243558   21.415780 C.3        1 MOL1        -0.1768
       5    H3      20.197969   17.680203   20.731195 H          1 MOL1         0.0829
       6    H4      18.523559   18.205565   21.042797 H          1 MOL1         0.0829
       7    C3      20.052436   19.671410   21.792921 C.3        1 MOL1         0.1211
       8    H5      21.145972   19.756910   21.855607 H          1 MOL1         0.0786
       9    C4      19.357493   19.424861   23.166042 C.3        1 MOL1        -0.1768
      10    H6      19.826076   19.905315   24.031932 H          1 MOL1         0.0829
      11    H7      18.282624   19.644598   23.178882 H          1 MOL1         0.0829
      12    O1      19.511923   20.720442   21.023555 O.3        1 MOL1        -0.5515
      13    H8      19.769896   21.562021   21.457604 H          1 MOL1         0.3773
@<TRIPOS>BOND
    1     1     2    1
    2     1     3    1
    3     1     4    1
    4     4     5    1
    5     4     6    1
    6     4     7    1
    7     7     8    1
    8     1     9    1
    9     7     9    1
   10     9    10    1
   11     9    11    1
   12     7    12    1
   13    12    13    1
@<TRIPOS>SUBSTRUCTURE
       1 MOL1            1 RESIDUE      1      MOL     
@<SCITEGIC>MOL_PROPERTY
VConf Rank
SciTegic.value.IntegerValue
341

@<SCITEGIC>MOL_PROPERTY
Conf_Id
SciTegic.value.IntegerValue
22

@<SCITEGIC>MOL_PROPERTY
Delta U+W
SciTegic.value.DoubleValue
0.000

@<SCITEGIC>MOL_PROPERTY
U+W
SciTegic.value.DoubleValue
-3.131

@<SCITEGIC>MOL_PROPERTY
Grad RMS
SciTegic.value.DoubleValue
0.000000

@<SCITEGIC>MOL_PROPERTY
U
SciTegic.value.DoubleValue
-0.154

@<SCITEGIC>MOL_PROPERTY
W
SciTegic.value.DoubleValue
-2.978

@<SCITEGIC>MOL_PROPERTY
W(PB)
SciTegic.value.DoubleValue
-4.579

@<SCITEGIC>MOL_PROPERTY
W(SA)
SciTegic.value.DoubleValue
1.601

@<SCITEGIC>MOL_PROPERTY
Valence
SciTegic.value.DoubleValue
6.333

@<SCITEGIC>MOL_PROPERTY
Coulomb
SciTegic.value.DoubleValue
-7.439

@<SCITEGIC>MOL_PROPERTY
VdW
SciTegic.value.DoubleValue
0.952

@<SCITEGIC>MOL_PROPERTY
VdW6
SciTegic.value.DoubleValue
-2.120

@<SCITEGIC>MOL_PROPERTY
VdW12
SciTegic.value.DoubleValue
3.072

@<SCITEGIC>MOL_PROPERTY
Bond
SciTegic.value.DoubleValue
0.065

@<SCITEGIC>MOL_PROPERTY
Angle
SciTegic.value.DoubleValue
0.931

@<SCITEGIC>MOL_PROPERTY
Pdih
SciTegic.value.DoubleValue
5.338

@<SCITEGIC>MOL_PROPERTY
Idih
SciTegic.value.DoubleValue
0.000

@<SCITEGIC>MOL_PROPERTY
Tether
SciTegic.value.DoubleValue
0.000

@<TRIPOS>MOLECULE
guest-s16_confgen4.mol2 : confsearch ligand conformer 342
          13          13           1
SMALL
USER_CHARGES
 
@<TRIPOS>ATOM
       1    C1      19.625133   17.835804   22.989817 C.3        1 MOL1        -0.1693
       2    H1      20.158057   17.955031   23.942373 H          1 MOL1         0.0829
       3    H2      19.277644   16.798868   22.910110 H          1 MOL1         0.0829
       4    C2      20.378051   18.405913   21.742652 C.3        1 MOL1        -0.1768
       5    H3      20.030234   18.013765   20.778787 H          1 MOL1         0.0829
       6    H4      21.471730   18.349720   21.772337 H          1 MOL1         0.0829
       7    C3      19.756476   19.777049   22.146167 C.3        1 MOL1         0.1211
       8    H5      20.318372   20.309093   22.926079 H          1 MOL1         0.0786
       9    C4      18.559593   18.942114   22.693158 C.3        1 MOL1        -0.1768
      10    H6      17.812366   18.669939   21.937410 H          1 MOL1         0.0829
      11    H7      18.043778   19.362572   23.563280 H          1 MOL1         0.0829
      12    O1      19.449925   20.638602   21.074578 O.3        1 MOL1        -0.5515
      13    H8      20.300741   20.975911   20.720261 H          1 MOL1         0.3773
@<TRIPOS>BOND
    1     1     2    1
    2     1     3    1
    3     1     4    1
    4     4     5    1
    5     4     6    1
    6     4     7    1
    7     7     8    1
    8     1     9    1
    9     7     9    1
   10     9    10    1
   11     9    11    1
   12     7    12    1
   13    12    13    1
@<TRIPOS>SUBSTRUCTURE
       1 MOL1            1 RESIDUE      1      MOL     
@<SCITEGIC>MOL_PROPERTY
VConf Rank
SciTegic.value.IntegerValue
342

@<SCITEGIC>MOL_PROPERTY
Conf_Id
SciTegic.value.IntegerValue
19

@<SCITEGIC>MOL_PROPERTY
Delta U+W
SciTegic.value.DoubleValue
-0.011

@<SCITEGIC>MOL_PROPERTY
U+W
SciTegic.value.DoubleValue
-3.142

@<SCITEGIC>MOL_PROPERTY
Grad RMS
SciTegic.value.DoubleValue
0.000000

@<SCITEGIC>MOL_PROPERTY
U
SciTegic.value.DoubleValue
-0.154

@<SCITEGIC>MOL_PROPERTY
W
SciTegic.value.DoubleValue
-2.989

@<SCITEGIC>MOL_PROPERTY
W(PB)
SciTegic.value.DoubleValue
-4.588

@<SCITEGIC>MOL_PROPERTY
W(SA)
SciTegic.value.DoubleValue
1.599

@<SCITEGIC>MOL_PROPERTY
Valence
SciTegic.value.DoubleValue
6.334

@<SCITEGIC>MOL_PROPERTY
Coulomb
SciTegic.value.DoubleValue
-7.439

@<SCITEGIC>MOL_PROPERTY
VdW
SciTegic.value.DoubleValue
0.951

@<SCITEGIC>MOL_PROPERTY
VdW6
SciTegic.value.DoubleValue
-2.120

@<SCITEGIC>MOL_PROPERTY
VdW12
SciTegic.value.DoubleValue
3.072

@<SCITEGIC>MOL_PROPERTY
Bond
SciTegic.value.DoubleValue
0.065

@<SCITEGIC>MOL_PROPERTY
Angle
SciTegic.value.DoubleValue
0.930

@<SCITEGIC>MOL_PROPERTY
Pdih
SciTegic.value.DoubleValue
5.339

@<SCITEGIC>MOL_PROPERTY
Idih
SciTegic.value.DoubleValue
0.000

@<SCITEGIC>MOL_PROPERTY
Tether
SciTegic.value.DoubleValue
0.000

@<TRIPOS>MOLECULE
guest-s16_confgen4.mol2 : confsearch ligand conformer 343
          13          13           1
SMALL
USER_CHARGES
 
@<TRIPOS>ATOM
       1    C1      19.710110   20.258568   22.035097 C.3        1 MOL1        -0.1693
       2    H1      20.340884   21.152404   22.106912 H          1 MOL1         0.0829
       3    H2      18.802318   20.513730   21.472946 H          1 MOL1         0.0829
       4    C2      19.450834   19.489539   23.373133 C.3        1 MOL1        -0.1768
       5    H3      20.271129   19.549324   24.098604 H          1 MOL1         0.0829
       6    H4      18.511136   19.720891   23.886784 H          1 MOL1         0.0829
       7    C3      19.450883   18.186826   22.513850 C.3        1 MOL1         0.1211
       8    H5      19.887384   17.311132   23.011284 H          1 MOL1         0.0786
       9    C4      20.422938   18.949101   21.559836 C.3        1 MOL1        -0.1768
      10    H6      20.332614   18.712808   20.493835 H          1 MOL1         0.0829
      11    H7      21.479520   18.878225   21.845467 H          1 MOL1         0.0829
      12    O1      18.201048   17.848195   21.946941 O.3        1 MOL1        -0.5515
      13    H8      18.360890   17.128952   21.299411 H          1 MOL1         0.3773
@<TRIPOS>BOND
    1     1     2    1
    2     1     3    1
    3     1     4    1
    4     4     5    1
    5     4     6    1
    6     4     7    1
    7     7     8    1
    8     1     9    1
    9     7     9    1
   10     9    10    1
   11     9    11    1
   12     7    12    1
   13    12    13    1
@<TRIPOS>SUBSTRUCTURE
       1 MOL1            1 RESIDUE      1      MOL     
@<SCITEGIC>MOL_PROPERTY
VConf Rank
SciTegic.value.IntegerValue
343

@<SCITEGIC>MOL_PROPERTY
Conf_Id
SciTegic.value.IntegerValue
20

@<SCITEGIC>MOL_PROPERTY
Delta U+W
SciTegic.value.DoubleValue
1.030

@<SCITEGIC>MOL_PROPERTY
U+W
SciTegic.value.DoubleValue
-2.101

@<SCITEGIC>MOL_PROPERTY
Grad RMS
SciTegic.value.DoubleValue
0.000000

@<SCITEGIC>MOL_PROPERTY
U
SciTegic.value.DoubleValue
0.841

@<SCITEGIC>MOL_PROPERTY
W
SciTegic.value.DoubleValue
-2.942

@<SCITEGIC>MOL_PROPERTY
W(PB)
SciTegic.value.DoubleValue
-4.530

@<SCITEGIC>MOL_PROPERTY
W(SA)
SciTegic.value.DoubleValue
1.587

@<SCITEGIC>MOL_PROPERTY
Valence
SciTegic.value.DoubleValue
6.736

@<SCITEGIC>MOL_PROPERTY
Coulomb
SciTegic.value.DoubleValue
-7.246

@<SCITEGIC>MOL_PROPERTY
VdW
SciTegic.value.DoubleValue
1.352

@<SCITEGIC>MOL_PROPERTY
VdW6
SciTegic.value.DoubleValue
-2.500

@<SCITEGIC>MOL_PROPERTY
VdW12
SciTegic.value.DoubleValue
3.851

@<SCITEGIC>MOL_PROPERTY
Bond
SciTegic.value.DoubleValue
0.063

@<SCITEGIC>MOL_PROPERTY
Angle
SciTegic.value.DoubleValue
0.687

@<SCITEGIC>MOL_PROPERTY
Pdih
SciTegic.value.DoubleValue
5.986

@<SCITEGIC>MOL_PROPERTY
Idih
SciTegic.value.DoubleValue
0.000

@<SCITEGIC>MOL_PROPERTY
Tether
SciTegic.value.DoubleValue
0.000

@<TRIPOS>MOLECULE
guest-s16_confgen4.mol2 : confsearch ligand conformer 344
          13          13           1
SMALL
USER_CHARGES
 
@<TRIPOS>ATOM
       1    C1      20.640204   19.193969   21.325181 C.3        1 MOL1        -0.1693
       2    H1      21.180321   20.148194   21.383457 H          1 MOL1         0.0829
       3    H2      21.016679   18.630835   20.462877 H          1 MOL1         0.0829
       4    C2      19.084784   19.314750   21.441107 C.3        1 MOL1        -0.1768
       5    H3      18.640097   20.227697   21.029922 H          1 MOL1         0.0829
       6    H4      18.528993   18.449592   21.059026 H          1 MOL1         0.0829
       7    C3      19.322289   19.312104   22.981477 C.3        1 MOL1         0.1211
       8    H5      19.585261   20.296497   23.391976 H          1 MOL1         0.0786
       9    C4      20.554073   18.407736   22.674913 C.3        1 MOL1        -0.1768
      10    H6      20.326686   17.339849   22.568602 H          1 MOL1         0.0829
      11    H7      21.406989   18.519650   23.353367 H          1 MOL1         0.0829
      12    O1      18.306719   18.710484   23.748607 O.3        1 MOL1        -0.5515
      13    H8      18.115506   17.841481   23.337523 H          1 MOL1         0.3773
@<TRIPOS>BOND
    1     1     2    1
    2     1     3    1
    3     1     4    1
    4     4     5    1
    5     4     6    1
    6     4     7    1
    7     7     8    1
    8     1     9    1
    9     7     9    1
   10     9    10    1
   11     9    11    1
   12     7    12    1
   13    12    13    1
@<TRIPOS>SUBSTRUCTURE
       1 MOL1            1 RESIDUE      1      MOL     
@<SCITEGIC>MOL_PROPERTY
VConf Rank
SciTegic.value.IntegerValue
344

@<SCITEGIC>MOL_PROPERTY
Conf_Id
SciTegic.value.IntegerValue
24

@<SCITEGIC>MOL_PROPERTY
Delta U+W
SciTegic.value.DoubleValue
0.356

@<SCITEGIC>MOL_PROPERTY
U+W
SciTegic.value.DoubleValue
-2.775

@<SCITEGIC>MOL_PROPERTY
Grad RMS
SciTegic.value.DoubleValue
0.000000

@<SCITEGIC>MOL_PROPERTY
U
SciTegic.value.DoubleValue
-0.184

@<SCITEGIC>MOL_PROPERTY
W
SciTegic.value.DoubleValue
-2.591

@<SCITEGIC>MOL_PROPERTY
W(PB)
SciTegic.value.DoubleValue
-4.184

@<SCITEGIC>MOL_PROPERTY
W(SA)
SciTegic.value.DoubleValue
1.593

@<SCITEGIC>MOL_PROPERTY
Valence
SciTegic.value.DoubleValue
6.840

@<SCITEGIC>MOL_PROPERTY
Coulomb
SciTegic.value.DoubleValue
-7.916

@<SCITEGIC>MOL_PROPERTY
VdW
SciTegic.value.DoubleValue
0.893

@<SCITEGIC>MOL_PROPERTY
VdW6
SciTegic.value.DoubleValue
-2.167

@<SCITEGIC>MOL_PROPERTY
VdW12
SciTegic.value.DoubleValue
3.060

@<SCITEGIC>MOL_PROPERTY
Bond
SciTegic.value.DoubleValue
0.059

@<SCITEGIC>MOL_PROPERTY
Angle
SciTegic.value.DoubleValue
0.918

@<SCITEGIC>MOL_PROPERTY
Pdih
SciTegic.value.DoubleValue
5.862

@<SCITEGIC>MOL_PROPERTY
Idih
SciTegic.value.DoubleValue
0.000

@<SCITEGIC>MOL_PROPERTY
Tether
SciTegic.value.DoubleValue
0.000

@<TRIPOS>MOLECULE
guest-s16_confgen4.mol2 : confsearch ligand conformer 345
          13          13           1
SMALL
USER_CHARGES
 
@<TRIPOS>ATOM
       1    C1      18.745252   18.699746   21.667011 C.3        1 MOL1        -0.1693
       2    H1      18.195602   17.912374   21.137574 H          1 MOL1         0.0829
       3    H2      18.125350   19.605174   21.681778 H          1 MOL1         0.0829
       4    C2      20.226646   18.923319   21.213555 C.3        1 MOL1        -0.1768
       5    H3      20.727874   18.021465   20.841473 H          1 MOL1         0.0829
       6    H4      20.395587   19.735812   20.497996 H          1 MOL1         0.0829
       7    C3      20.537102   19.253917   22.706309 C.3        1 MOL1         0.1211
       8    H5      21.520558   18.916789   23.057941 H          1 MOL1         0.0786
       9    C4      19.354678   18.296363   23.051214 C.3        1 MOL1        -0.1768
      10    H6      19.642112   17.240789   23.129699 H          1 MOL1         0.0829
      11    H7      18.764644   18.563142   23.935180 H          1 MOL1         0.0829
      12    O1      20.331455   20.602278   23.068747 O.3        1 MOL1        -0.5515
      13    H8      19.444998   20.846803   22.731531 H          1 MOL1         0.3773
@<TRIPOS>BOND
    1     1     2    1
    2     1     3    1
    3     1     4    1
    4     4     5    1
    5     4     6    1
    6     4     7    1
    7     7     8    1
    8     1     9    1
    9     7     9    1
   10     9    10    1
   11     9    11    1
   12     7    12    1
   13    12    13    1
@<TRIPOS>SUBSTRUCTURE
       1 MOL1            1 RESIDUE      1      MOL     
@<SCITEGIC>MOL_PROPERTY
VConf Rank
SciTegic.value.IntegerValue
345

@<SCITEGIC>MOL_PROPERTY
Conf_Id
SciTegic.value.IntegerValue
44

@<SCITEGIC>MOL_PROPERTY
Delta U+W
SciTegic.value.DoubleValue
0.823

@<SCITEGIC>MOL_PROPERTY
U+W
SciTegic.value.DoubleValue
-2.308

@<SCITEGIC>MOL_PROPERTY
Grad RMS
SciTegic.value.DoubleValue
0.000000

@<SCITEGIC>MOL_PROPERTY
U
SciTegic.value.DoubleValue
0.039

@<SCITEGIC>MOL_PROPERTY
W
SciTegic.value.DoubleValue
-2.348

@<SCITEGIC>MOL_PROPERTY
W(PB)
SciTegic.value.DoubleValue
-3.918

@<SCITEGIC>MOL_PROPERTY
W(SA)
SciTegic.value.DoubleValue
1.571

@<SCITEGIC>MOL_PROPERTY
Valence
SciTegic.value.DoubleValue
7.320

@<SCITEGIC>MOL_PROPERTY
Coulomb
SciTegic.value.DoubleValue
-8.530

@<SCITEGIC>MOL_PROPERTY
VdW
SciTegic.value.DoubleValue
1.249

@<SCITEGIC>MOL_PROPERTY
VdW6
SciTegic.value.DoubleValue
-2.615

@<SCITEGIC>MOL_PROPERTY
VdW12
SciTegic.value.DoubleValue
3.864

@<SCITEGIC>MOL_PROPERTY
Bond
SciTegic.value.DoubleValue
0.056

@<SCITEGIC>MOL_PROPERTY
Angle
SciTegic.value.DoubleValue
0.694

@<SCITEGIC>MOL_PROPERTY
Pdih
SciTegic.value.DoubleValue
6.570

@<SCITEGIC>MOL_PROPERTY
Idih
SciTegic.value.DoubleValue
0.000

@<SCITEGIC>MOL_PROPERTY
Tether
SciTegic.value.DoubleValue
0.000

@<TRIPOS>MOLECULE
guest-s16_confgen4.mol2 : confsearch ligand conformer 346
          13          13           1
SMALL
USER_CHARGES
 
@<TRIPOS>ATOM
       1    C1      19.483255   20.014765   21.374814 C.3        1 MOL1        -0.1693
       2    H1      20.122678   19.930143   20.486241 H          1 MOL1         0.0829
       3    H2      18.822468   20.880833   21.249818 H          1 MOL1         0.0829
       4    C2      20.243092   19.921644   22.739103 C.3        1 MOL1        -0.1768
       5    H3      21.261676   20.324419   22.753908 H          1 MOL1         0.0829
       6    H4      19.692964   20.321381   23.600007 H          1 MOL1         0.0829
       7    C3      20.127416   18.377897   22.559348 C.3        1 MOL1         0.1211
       8    H5      20.908426   17.947011   21.917925 H          1 MOL1         0.0786
       9    C4      18.792775   18.681409   21.813823 C.3        1 MOL1        -0.1768
      10    H6      18.526931   17.988082   21.008344 H          1 MOL1         0.0829
      11    H7      17.923137   18.810397   22.470242 H          1 MOL1         0.0829
      12    O1      19.997061   17.640700   23.752702 O.3        1 MOL1        -0.5515
      13    H8      19.770849   16.719226   23.501869 H          1 MOL1         0.3773
@<TRIPOS>BOND
    1     1     2    1
    2     1     3    1
    3     1     4    1
    4     4     5    1
    5     4     6    1
    6     4     7    1
    7     7     8    1
    8     1     9    1
    9     7     9    1
   10     9    10    1
   11     9    11    1
   12     7    12    1
   13    12    13    1
@<TRIPOS>SUBSTRUCTURE
       1 MOL1            1 RESIDUE      1      MOL     
@<SCITEGIC>MOL_PROPERTY
VConf Rank
SciTegic.value.IntegerValue
346

@<SCITEGIC>MOL_PROPERTY
Conf_Id
SciTegic.value.IntegerValue
22

@<SCITEGIC>MOL_PROPERTY
Delta U+W
SciTegic.value.DoubleValue
0.000

@<SCITEGIC>MOL_PROPERTY
U+W
SciTegic.value.DoubleValue
-3.131

@<SCITEGIC>MOL_PROPERTY
Grad RMS
SciTegic.value.DoubleValue
0.000000

@<SCITEGIC>MOL_PROPERTY
U
SciTegic.value.DoubleValue
-0.154

@<SCITEGIC>MOL_PROPERTY
W
SciTegic.value.DoubleValue
-2.978

@<SCITEGIC>MOL_PROPERTY
W(PB)
SciTegic.value.DoubleValue
-4.579

@<SCITEGIC>MOL_PROPERTY
W(SA)
SciTegic.value.DoubleValue
1.601

@<SCITEGIC>MOL_PROPERTY
Valence
SciTegic.value.DoubleValue
6.333

@<SCITEGIC>MOL_PROPERTY
Coulomb
SciTegic.value.DoubleValue
-7.439

@<SCITEGIC>MOL_PROPERTY
VdW
SciTegic.value.DoubleValue
0.952

@<SCITEGIC>MOL_PROPERTY
VdW6
SciTegic.value.DoubleValue
-2.120

@<SCITEGIC>MOL_PROPERTY
VdW12
SciTegic.value.DoubleValue
3.072

@<SCITEGIC>MOL_PROPERTY
Bond
SciTegic.value.DoubleValue
0.065

@<SCITEGIC>MOL_PROPERTY
Angle
SciTegic.value.DoubleValue
0.931

@<SCITEGIC>MOL_PROPERTY
Pdih
SciTegic.value.DoubleValue
5.338

@<SCITEGIC>MOL_PROPERTY
Idih
SciTegic.value.DoubleValue
0.000

@<SCITEGIC>MOL_PROPERTY
Tether
SciTegic.value.DoubleValue
0.000

@<TRIPOS>MOLECULE
guest-s16_confgen4.mol2 : confsearch ligand conformer 347
          13          13           1
SMALL
USER_CHARGES
 
@<TRIPOS>ATOM
       1    C1      19.095726   17.825035   21.750944 C.3        1 MOL1        -0.1693
       2    H1      19.840380   17.091716   21.414314 H          1 MOL1         0.0829
       3    H2      18.095234   17.437857   21.524124 H          1 MOL1         0.0829
       4    C2      19.379674   19.297733   21.306125 C.3        1 MOL1        -0.1768
       5    H3      18.508904   19.964080   21.345287 H          1 MOL1         0.0829
       6    H4      19.875370   19.421711   20.337060 H          1 MOL1         0.0829
       7    C3      20.305929   19.368443   22.557622 C.3        1 MOL1         0.1211
       8    H5      21.311253   18.957368   22.392085 H          1 MOL1         0.0786
       9    C4      19.312764   18.357382   23.205869 C.3        1 MOL1        -0.1768
      10    H6      18.428723   18.818640   23.663357 H          1 MOL1         0.0829
      11    H7      19.750483   17.650639   23.919225 H          1 MOL1         0.0829
      12    O1      20.377490   20.628164   23.184145 O.3        1 MOL1        -0.5515
      13    H8      20.900171   21.215613   22.596852 H          1 MOL1         0.3773
@<TRIPOS>BOND
    1     1     2    1
    2     1     3    1
    3     1     4    1
    4     4     5    1
    5     4     6    1
    6     4     7    1
    7     7     8    1
    8     1     9    1
    9     7     9    1
   10     9    10    1
   11     9    11    1
   12     7    12    1
   13    12    13    1
@<TRIPOS>SUBSTRUCTURE
       1 MOL1            1 RESIDUE      1      MOL     
@<SCITEGIC>MOL_PROPERTY
VConf Rank
SciTegic.value.IntegerValue
347

@<SCITEGIC>MOL_PROPERTY
Conf_Id
SciTegic.value.IntegerValue
19

@<SCITEGIC>MOL_PROPERTY
Delta U+W
SciTegic.value.DoubleValue
-0.011

@<SCITEGIC>MOL_PROPERTY
U+W
SciTegic.value.DoubleValue
-3.142

@<SCITEGIC>MOL_PROPERTY
Grad RMS
SciTegic.value.DoubleValue
0.000000

@<SCITEGIC>MOL_PROPERTY
U
SciTegic.value.DoubleValue
-0.154

@<SCITEGIC>MOL_PROPERTY
W
SciTegic.value.DoubleValue
-2.989

@<SCITEGIC>MOL_PROPERTY
W(PB)
SciTegic.value.DoubleValue
-4.588

@<SCITEGIC>MOL_PROPERTY
W(SA)
SciTegic.value.DoubleValue
1.599

@<SCITEGIC>MOL_PROPERTY
Valence
SciTegic.value.DoubleValue
6.334

@<SCITEGIC>MOL_PROPERTY
Coulomb
SciTegic.value.DoubleValue
-7.439

@<SCITEGIC>MOL_PROPERTY
VdW
SciTegic.value.DoubleValue
0.951

@<SCITEGIC>MOL_PROPERTY
VdW6
SciTegic.value.DoubleValue
-2.120

@<SCITEGIC>MOL_PROPERTY
VdW12
SciTegic.value.DoubleValue
3.072

@<SCITEGIC>MOL_PROPERTY
Bond
SciTegic.value.DoubleValue
0.065

@<SCITEGIC>MOL_PROPERTY
Angle
SciTegic.value.DoubleValue
0.930

@<SCITEGIC>MOL_PROPERTY
Pdih
SciTegic.value.DoubleValue
5.339

@<SCITEGIC>MOL_PROPERTY
Idih
SciTegic.value.DoubleValue
0.000

@<SCITEGIC>MOL_PROPERTY
Tether
SciTegic.value.DoubleValue
0.000

@<TRIPOS>MOLECULE
guest-s16_confgen4.mol2 : confsearch ligand conformer 348
          13          13           1
SMALL
USER_CHARGES
 
@<TRIPOS>ATOM
       1    C1      20.425659   19.074303   23.222630 C.3        1 MOL1        -0.1693
       2    H1      21.182416   18.504033   23.774072 H          1 MOL1         0.0829
       3    H2      20.388072   20.093124   23.629812 H          1 MOL1         0.0829
       4    C2      19.028793   18.387648   23.060637 C.3        1 MOL1        -0.1768
       5    H3      19.063110   17.292611   23.010809 H          1 MOL1         0.0829
       6    H4      18.261202   18.681630   23.785049 H          1 MOL1         0.0829
       7    C3      18.951400   19.088932   21.668646 C.3        1 MOL1         0.1211
       8    H5      18.453871   18.500170   20.887214 H          1 MOL1         0.0786
       9    C4      20.509668   19.000334   21.661806 C.3        1 MOL1        -0.1768
      10    H6      21.035152   19.826007   21.169381 H          1 MOL1         0.0829
      11    H7      20.903687   18.053530   21.272853 H          1 MOL1         0.0829
      12    O1      18.427920   20.401773   21.692337 O.3        1 MOL1        -0.5515
      13    H8      18.590739   20.795602   20.808853 H          1 MOL1         0.3773
@<TRIPOS>BOND
    1     1     2    1
    2     1     3    1
    3     1     4    1
    4     4     5    1
    5     4     6    1
    6     4     7    1
    7     7     8    1
    8     1     9    1
    9     7     9    1
   10     9    10    1
   11     9    11    1
   12     7    12    1
   13    12    13    1
@<TRIPOS>SUBSTRUCTURE
       1 MOL1            1 RESIDUE      1      MOL     
@<SCITEGIC>MOL_PROPERTY
VConf Rank
SciTegic.value.IntegerValue
348

@<SCITEGIC>MOL_PROPERTY
Conf_Id
SciTegic.value.IntegerValue
20

@<SCITEGIC>MOL_PROPERTY
Delta U+W
SciTegic.value.DoubleValue
1.030

@<SCITEGIC>MOL_PROPERTY
U+W
SciTegic.value.DoubleValue
-2.101

@<SCITEGIC>MOL_PROPERTY
Grad RMS
SciTegic.value.DoubleValue
0.000000

@<SCITEGIC>MOL_PROPERTY
U
SciTegic.value.DoubleValue
0.841

@<SCITEGIC>MOL_PROPERTY
W
SciTegic.value.DoubleValue
-2.942

@<SCITEGIC>MOL_PROPERTY
W(PB)
SciTegic.value.DoubleValue
-4.530

@<SCITEGIC>MOL_PROPERTY
W(SA)
SciTegic.value.DoubleValue
1.587

@<SCITEGIC>MOL_PROPERTY
Valence
SciTegic.value.DoubleValue
6.736

@<SCITEGIC>MOL_PROPERTY
Coulomb
SciTegic.value.DoubleValue
-7.246

@<SCITEGIC>MOL_PROPERTY
VdW
SciTegic.value.DoubleValue
1.352

@<SCITEGIC>MOL_PROPERTY
VdW6
SciTegic.value.DoubleValue
-2.500

@<SCITEGIC>MOL_PROPERTY
VdW12
SciTegic.value.DoubleValue
3.851

@<SCITEGIC>MOL_PROPERTY
Bond
SciTegic.value.DoubleValue
0.063

@<SCITEGIC>MOL_PROPERTY
Angle
SciTegic.value.DoubleValue
0.687

@<SCITEGIC>MOL_PROPERTY
Pdih
SciTegic.value.DoubleValue
5.986

@<SCITEGIC>MOL_PROPERTY
Idih
SciTegic.value.DoubleValue
0.000

@<SCITEGIC>MOL_PROPERTY
Tether
SciTegic.value.DoubleValue
0.000

@<TRIPOS>MOLECULE
guest-s16_confgen4.mol2 : confsearch ligand conformer 349
          13          13           1
SMALL
USER_CHARGES
 
@<TRIPOS>ATOM
       1    C1      19.329898   19.793834   21.338963 C.3        1 MOL1        -0.1693
       2    H1      20.053528   20.180464   20.609206 H          1 MOL1         0.0829
       3    H2      18.352454   20.247906   21.136865 H          1 MOL1         0.0829
       4    C2      19.813751   19.837688   22.826014 C.3        1 MOL1        -0.1768
       5    H3      20.478348   20.666882   23.092544 H          1 MOL1         0.0829
       6    H4      19.010329   19.777318   23.570499 H          1 MOL1         0.0829
       7    C3      20.515791   18.482775   22.508987 C.3        1 MOL1         0.1211
       8    H5      21.495230   18.592897   22.023945 H          1 MOL1         0.0786
       9    C4      19.342790   18.239092   21.512072 C.3        1 MOL1        -0.1768
      10    H6      18.434102   17.821415   21.962873 H          1 MOL1         0.0829
      11    H7      19.591457   17.656480   20.618192 H          1 MOL1         0.0829
      12    O1      20.593970   17.576583   23.583473 O.3        1 MOL1        -0.5515
      13    H8      19.696954   17.519502   23.974400 H          1 MOL1         0.3773
@<TRIPOS>BOND
    1     1     2    1
    2     1     3    1
    3     1     4    1
    4     4     5    1
    5     4     6    1
    6     4     7    1
    7     7     8    1
    8     1     9    1
    9     7     9    1
   10     9    10    1
   11     9    11    1
   12     7    12    1
   13    12    13    1
@<TRIPOS>SUBSTRUCTURE
       1 MOL1            1 RESIDUE      1      MOL     
@<SCITEGIC>MOL_PROPERTY
VConf Rank
SciTegic.value.IntegerValue
349

@<SCITEGIC>MOL_PROPERTY
Conf_Id
SciTegic.value.IntegerValue
24

@<SCITEGIC>MOL_PROPERTY
Delta U+W
SciTegic.value.DoubleValue
0.356

@<SCITEGIC>MOL_PROPERTY
U+W
SciTegic.value.DoubleValue
-2.775

@<SCITEGIC>MOL_PROPERTY
Grad RMS
SciTegic.value.DoubleValue
0.000000

@<SCITEGIC>MOL_PROPERTY
U
SciTegic.value.DoubleValue
-0.184

@<SCITEGIC>MOL_PROPERTY
W
SciTegic.value.DoubleValue
-2.591

@<SCITEGIC>MOL_PROPERTY
W(PB)
SciTegic.value.DoubleValue
-4.184

@<SCITEGIC>MOL_PROPERTY
W(SA)
SciTegic.value.DoubleValue
1.593

@<SCITEGIC>MOL_PROPERTY
Valence
SciTegic.value.DoubleValue
6.840

@<SCITEGIC>MOL_PROPERTY
Coulomb
SciTegic.value.DoubleValue
-7.916

@<SCITEGIC>MOL_PROPERTY
VdW
SciTegic.value.DoubleValue
0.893

@<SCITEGIC>MOL_PROPERTY
VdW6
SciTegic.value.DoubleValue
-2.167

@<SCITEGIC>MOL_PROPERTY
VdW12
SciTegic.value.DoubleValue
3.060

@<SCITEGIC>MOL_PROPERTY
Bond
SciTegic.value.DoubleValue
0.059

@<SCITEGIC>MOL_PROPERTY
Angle
SciTegic.value.DoubleValue
0.918

@<SCITEGIC>MOL_PROPERTY
Pdih
SciTegic.value.DoubleValue
5.862

@<SCITEGIC>MOL_PROPERTY
Idih
SciTegic.value.DoubleValue
0.000

@<SCITEGIC>MOL_PROPERTY
Tether
SciTegic.value.DoubleValue
0.000

@<TRIPOS>MOLECULE
guest-s16_confgen4.mol2 : confsearch ligand conformer 350
          13          13           1
SMALL
USER_CHARGES
 
@<TRIPOS>ATOM
       1    C1      18.839815   19.589786   21.816369 C.3        1 MOL1        -0.1693
       2    H1      17.887643   19.582004   21.272604 H          1 MOL1         0.0829
       3    H2      19.067240   20.624631   22.102149 H          1 MOL1         0.0829
       4    C2      20.021401   18.819190   21.138007 C.3        1 MOL1        -0.1768
       5    H3      19.712590   17.960462   20.529537 H          1 MOL1         0.0829
       6    H4      20.721796   19.426172   20.553432 H          1 MOL1         0.0829
       7    C3      20.483525   18.443969   22.580104 C.3        1 MOL1         0.1211
       8    H5      20.920367   17.441916   22.677808 H          1 MOL1         0.0786
       9    C4      18.976535   18.542465   22.971603 C.3        1 MOL1        -0.1768
      10    H6      18.411537   17.615889   22.812702 H          1 MOL1         0.0829
      11    H7      18.767461   18.908581   23.983015 H          1 MOL1         0.0829
      12    O1      21.319384   19.397110   23.200257 O.3        1 MOL1        -0.5515
      13    H8      20.882563   20.265797   23.082421 H          1 MOL1         0.3773
@<TRIPOS>BOND
    1     1     2    1
    2     1     3    1
    3     1     4    1
    4     4     5    1
    5     4     6    1
    6     4     7    1
    7     7     8    1
    8     1     9    1
    9     7     9    1
   10     9    10    1
   11     9    11    1
   12     7    12    1
   13    12    13    1
@<TRIPOS>SUBSTRUCTURE
       1 MOL1            1 RESIDUE      1      MOL     
@<SCITEGIC>MOL_PROPERTY
VConf Rank
SciTegic.value.IntegerValue
350

@<SCITEGIC>MOL_PROPERTY
Conf_Id
SciTegic.value.IntegerValue
44

@<SCITEGIC>MOL_PROPERTY
Delta U+W
SciTegic.value.DoubleValue
0.823

@<SCITEGIC>MOL_PROPERTY
U+W
SciTegic.value.DoubleValue
-2.308

@<SCITEGIC>MOL_PROPERTY
Grad RMS
SciTegic.value.DoubleValue
0.000000

@<SCITEGIC>MOL_PROPERTY
U
SciTegic.value.DoubleValue
0.039

@<SCITEGIC>MOL_PROPERTY
W
SciTegic.value.DoubleValue
-2.348

@<SCITEGIC>MOL_PROPERTY
W(PB)
SciTegic.value.DoubleValue
-3.918

@<SCITEGIC>MOL_PROPERTY
W(SA)
SciTegic.value.DoubleValue
1.571

@<SCITEGIC>MOL_PROPERTY
Valence
SciTegic.value.DoubleValue
7.320

@<SCITEGIC>MOL_PROPERTY
Coulomb
SciTegic.value.DoubleValue
-8.530

@<SCITEGIC>MOL_PROPERTY
VdW
SciTegic.value.DoubleValue
1.249

@<SCITEGIC>MOL_PROPERTY
VdW6
SciTegic.value.DoubleValue
-2.615

@<SCITEGIC>MOL_PROPERTY
VdW12
SciTegic.value.DoubleValue
3.864

@<SCITEGIC>MOL_PROPERTY
Bond
SciTegic.value.DoubleValue
0.056

@<SCITEGIC>MOL_PROPERTY
Angle
SciTegic.value.DoubleValue
0.694

@<SCITEGIC>MOL_PROPERTY
Pdih
SciTegic.value.DoubleValue
6.570

@<SCITEGIC>MOL_PROPERTY
Idih
SciTegic.value.DoubleValue
0.000

@<SCITEGIC>MOL_PROPERTY
Tether
SciTegic.value.DoubleValue
0.000

@<TRIPOS>MOLECULE
guest-s16_confgen4.mol2 : confsearch ligand conformer 351
          13          13           1
SMALL
USER_CHARGES
 
@<TRIPOS>ATOM
       1    C1      18.483200   18.473573   22.372671 C.3        1 MOL1        -0.1693
       2    H1      17.661664   19.193667   22.482797 H          1 MOL1         0.0829
       3    H2      18.061233   17.461838   22.346710 H          1 MOL1         0.0829
       4    C2      19.681728   18.693057   23.353826 C.3        1 MOL1        -0.1768
       5    H3      19.430855   19.094648   24.341626 H          1 MOL1         0.0829
       6    H4      20.335852   17.821807   23.482786 H          1 MOL1         0.0829
       7    C3      20.188941   19.732051   22.308803 C.3        1 MOL1         0.1211
       8    H5      19.724673   20.722834   22.408131 H          1 MOL1         0.0786
       9    C4      19.509639   18.819093   21.243792 C.3        1 MOL1        -0.1768
      10    H6      19.104637   19.330946   20.363933 H          1 MOL1         0.0829
      11    H7      20.124216   17.974059   20.909120 H          1 MOL1         0.0829
      12    O1      21.589121   19.844177   22.201700 O.3        1 MOL1        -0.5515
      13    H8      21.776968   20.396157   21.412248 H          1 MOL1         0.3773
@<TRIPOS>BOND
    1     1     2    1
    2     1     3    1
    3     1     4    1
    4     4     5    1
    5     4     6    1
    6     4     7    1
    7     7     8    1
    8     1     9    1
    9     7     9    1
   10     9    10    1
   11     9    11    1
   12     7    12    1
   13    12    13    1
@<TRIPOS>SUBSTRUCTURE
       1 MOL1            1 RESIDUE      1      MOL     
@<SCITEGIC>MOL_PROPERTY
VConf Rank
SciTegic.value.IntegerValue
351

@<SCITEGIC>MOL_PROPERTY
Conf_Id
SciTegic.value.IntegerValue
22

@<SCITEGIC>MOL_PROPERTY
Delta U+W
SciTegic.value.DoubleValue
0.000

@<SCITEGIC>MOL_PROPERTY
U+W
SciTegic.value.DoubleValue
-3.131

@<SCITEGIC>MOL_PROPERTY
Grad RMS
SciTegic.value.DoubleValue
0.000000

@<SCITEGIC>MOL_PROPERTY
U
SciTegic.value.DoubleValue
-0.154

@<SCITEGIC>MOL_PROPERTY
W
SciTegic.value.DoubleValue
-2.978

@<SCITEGIC>MOL_PROPERTY
W(PB)
SciTegic.value.DoubleValue
-4.579

@<SCITEGIC>MOL_PROPERTY
W(SA)
SciTegic.value.DoubleValue
1.601

@<SCITEGIC>MOL_PROPERTY
Valence
SciTegic.value.DoubleValue
6.333

@<SCITEGIC>MOL_PROPERTY
Coulomb
SciTegic.value.DoubleValue
-7.439

@<SCITEGIC>MOL_PROPERTY
VdW
SciTegic.value.DoubleValue
0.952

@<SCITEGIC>MOL_PROPERTY
VdW6
SciTegic.value.DoubleValue
-2.120

@<SCITEGIC>MOL_PROPERTY
VdW12
SciTegic.value.DoubleValue
3.072

@<SCITEGIC>MOL_PROPERTY
Bond
SciTegic.value.DoubleValue
0.065

@<SCITEGIC>MOL_PROPERTY
Angle
SciTegic.value.DoubleValue
0.931

@<SCITEGIC>MOL_PROPERTY
Pdih
SciTegic.value.DoubleValue
5.338

@<SCITEGIC>MOL_PROPERTY
Idih
SciTegic.value.DoubleValue
0.000

@<SCITEGIC>MOL_PROPERTY
Tether
SciTegic.value.DoubleValue
0.000

@<TRIPOS>MOLECULE
guest-s16_confgen4.mol2 : confsearch ligand conformer 352
          13          13           1
SMALL
USER_CHARGES
 
@<TRIPOS>ATOM
       1    C1      18.803044   19.949068   22.139963 C.3        1 MOL1        -0.1693
       2    H1      17.884081   19.713023   21.587356 H          1 MOL1         0.0829
       3    H2      18.787997   21.012463   22.406989 H          1 MOL1         0.0829
       4    C2      20.119165   19.426095   21.475390 C.3        1 MOL1        -0.1768
       5    H3      21.035254   19.920215   21.822406 H          1 MOL1         0.0829
       6    H4      20.127590   19.396384   20.380302 H          1 MOL1         0.0829
       7    C3      19.800183   18.078060   22.189705 C.3        1 MOL1         0.1211
       8    H5      19.086569   17.443508   21.646418 H          1 MOL1         0.0786
       9    C4      19.143681   18.954602   23.298544 C.3        1 MOL1        -0.1768
      10    H6      19.846337   19.343029   24.046196 H          1 MOL1         0.0829
      11    H7      18.289720   18.505594   23.817296 H          1 MOL1         0.0829
      12    O1      20.923098   17.331800   22.598004 O.3        1 MOL1        -0.5515
      13    H8      21.335382   16.960540   21.788441 H          1 MOL1         0.3773
@<TRIPOS>BOND
    1     1     2    1
    2     1     3    1
    3     1     4    1
    4     4     5    1
    5     4     6    1
    6     4     7    1
    7     7     8    1
    8     1     9    1
    9     7     9    1
   10     9    10    1
   11     9    11    1
   12     7    12    1
   13    12    13    1
@<TRIPOS>SUBSTRUCTURE
       1 MOL1            1 RESIDUE      1      MOL     
@<SCITEGIC>MOL_PROPERTY
VConf Rank
SciTegic.value.IntegerValue
352

@<SCITEGIC>MOL_PROPERTY
Conf_Id
SciTegic.value.IntegerValue
19

@<SCITEGIC>MOL_PROPERTY
Delta U+W
SciTegic.value.DoubleValue
-0.011

@<SCITEGIC>MOL_PROPERTY
U+W
SciTegic.value.DoubleValue
-3.142

@<SCITEGIC>MOL_PROPERTY
Grad RMS
SciTegic.value.DoubleValue
0.000000

@<SCITEGIC>MOL_PROPERTY
U
SciTegic.value.DoubleValue
-0.154

@<SCITEGIC>MOL_PROPERTY
W
SciTegic.value.DoubleValue
-2.989

@<SCITEGIC>MOL_PROPERTY
W(PB)
SciTegic.value.DoubleValue
-4.588

@<SCITEGIC>MOL_PROPERTY
W(SA)
SciTegic.value.DoubleValue
1.599

@<SCITEGIC>MOL_PROPERTY
Valence
SciTegic.value.DoubleValue
6.334

@<SCITEGIC>MOL_PROPERTY
Coulomb
SciTegic.value.DoubleValue
-7.439

@<SCITEGIC>MOL_PROPERTY
VdW
SciTegic.value.DoubleValue
0.951

@<SCITEGIC>MOL_PROPERTY
VdW6
SciTegic.value.DoubleValue
-2.120

@<SCITEGIC>MOL_PROPERTY
VdW12
SciTegic.value.DoubleValue
3.072

@<SCITEGIC>MOL_PROPERTY
Bond
SciTegic.value.DoubleValue
0.065

@<SCITEGIC>MOL_PROPERTY
Angle
SciTegic.value.DoubleValue
0.930

@<SCITEGIC>MOL_PROPERTY
Pdih
SciTegic.value.DoubleValue
5.339

@<SCITEGIC>MOL_PROPERTY
Idih
SciTegic.value.DoubleValue
0.000

@<SCITEGIC>MOL_PROPERTY
Tether
SciTegic.value.DoubleValue
0.000

@<TRIPOS>MOLECULE
guest-s16_confgen4.mol2 : confsearch ligand conformer 353
          13          13           1
SMALL
USER_CHARGES
 
@<TRIPOS>ATOM
       1    C1      19.714813   17.827527   22.363926 C.3        1 MOL1        -0.1693
       2    H1      19.158108   16.897721   22.529805 H          1 MOL1         0.0829
       3    H2      20.754991   17.575171   22.119895 H          1 MOL1         0.0829
       4    C2      19.554633   18.931124   23.461827 C.3        1 MOL1        -0.1768
       5    H3      18.580156   18.934348   23.964967 H          1 MOL1         0.0829
       6    H4      20.342015   18.970835   24.222647 H          1 MOL1         0.0829
       7    C3      19.679103   19.968433   22.302549 C.3        1 MOL1         0.1211
       8    H5      19.061417   20.867437   22.425297 H          1 MOL1         0.0786
       9    C4      19.052503   18.863301   21.395824 C.3        1 MOL1        -0.1768
      10    H6      19.400267   18.840538   20.357126 H          1 MOL1         0.0829
      11    H7      17.955789   18.849591   21.397830 H          1 MOL1         0.0829
      12    O1      21.003798   20.333261   21.970543 O.3        1 MOL1        -0.5515
      13    H8      20.964094   20.840407   21.131864 H          1 MOL1         0.3773
@<TRIPOS>BOND
    1     1     2    1
    2     1     3    1
    3     1     4    1
    4     4     5    1
    5     4     6    1
    6     4     7    1
    7     7     8    1
    8     1     9    1
    9     7     9    1
   10     9    10    1
   11     9    11    1
   12     7    12    1
   13    12    13    1
@<TRIPOS>SUBSTRUCTURE
       1 MOL1            1 RESIDUE      1      MOL     
@<SCITEGIC>MOL_PROPERTY
VConf Rank
SciTegic.value.IntegerValue
353

@<SCITEGIC>MOL_PROPERTY
Conf_Id
SciTegic.value.IntegerValue
20

@<SCITEGIC>MOL_PROPERTY
Delta U+W
SciTegic.value.DoubleValue
1.030

@<SCITEGIC>MOL_PROPERTY
U+W
SciTegic.value.DoubleValue
-2.101

@<SCITEGIC>MOL_PROPERTY
Grad RMS
SciTegic.value.DoubleValue
0.000000

@<SCITEGIC>MOL_PROPERTY
U
SciTegic.value.DoubleValue
0.841

@<SCITEGIC>MOL_PROPERTY
W
SciTegic.value.DoubleValue
-2.942

@<SCITEGIC>MOL_PROPERTY
W(PB)
SciTegic.value.DoubleValue
-4.530

@<SCITEGIC>MOL_PROPERTY
W(SA)
SciTegic.value.DoubleValue
1.587

@<SCITEGIC>MOL_PROPERTY
Valence
SciTegic.value.DoubleValue
6.736

@<SCITEGIC>MOL_PROPERTY
Coulomb
SciTegic.value.DoubleValue
-7.246

@<SCITEGIC>MOL_PROPERTY
VdW
SciTegic.value.DoubleValue
1.352

@<SCITEGIC>MOL_PROPERTY
VdW6
SciTegic.value.DoubleValue
-2.500

@<SCITEGIC>MOL_PROPERTY
VdW12
SciTegic.value.DoubleValue
3.851

@<SCITEGIC>MOL_PROPERTY
Bond
SciTegic.value.DoubleValue
0.063

@<SCITEGIC>MOL_PROPERTY
Angle
SciTegic.value.DoubleValue
0.687

@<SCITEGIC>MOL_PROPERTY
Pdih
SciTegic.value.DoubleValue
5.986

@<SCITEGIC>MOL_PROPERTY
Idih
SciTegic.value.DoubleValue
0.000

@<SCITEGIC>MOL_PROPERTY
Tether
SciTegic.value.DoubleValue
0.000

@<TRIPOS>MOLECULE
guest-s16_confgen4.mol2 : confsearch ligand conformer 354
          13          13           1
SMALL
USER_CHARGES
 
@<TRIPOS>ATOM
       1    C1      19.480641   18.327890   21.125505 C.3        1 MOL1        -0.1693
       2    H1      19.636472   17.241169   21.104947 H          1 MOL1         0.0829
       3    H2      19.108188   18.646640   20.144638 H          1 MOL1         0.0829
       4    C2      20.678781   19.149516   21.705807 C.3        1 MOL1        -0.1768
       5    H3      21.677914   18.737618   21.525900 H          1 MOL1         0.0829
       6    H4      20.681123   20.211457   21.430737 H          1 MOL1         0.0829
       7    C3      20.058627   18.835875   23.100867 C.3        1 MOL1         0.1211
       8    H5      20.338087   17.851311   23.499905 H          1 MOL1         0.0786
       9    C4      18.684153   18.851009   22.366194 C.3        1 MOL1        -0.1768
      10    H6      18.240671   19.846230   22.238728 H          1 MOL1         0.0829
      11    H7      17.921725   18.175486   22.769511 H          1 MOL1         0.0829
      12    O1      20.232724   19.834240   24.077993 O.3        1 MOL1        -0.5515
      13    H8      19.969496   20.684396   23.667304 H          1 MOL1         0.3773
@<TRIPOS>BOND
    1     1     2    1
    2     1     3    1
    3     1     4    1
    4     4     5    1
    5     4     6    1
    6     4     7    1
    7     7     8    1
    8     1     9    1
    9     7     9    1
   10     9    10    1
   11     9    11    1
   12     7    12    1
   13    12    13    1
@<TRIPOS>SUBSTRUCTURE
       1 MOL1            1 RESIDUE      1      MOL     
@<SCITEGIC>MOL_PROPERTY
VConf Rank
SciTegic.value.IntegerValue
354

@<SCITEGIC>MOL_PROPERTY
Conf_Id
SciTegic.value.IntegerValue
24

@<SCITEGIC>MOL_PROPERTY
Delta U+W
SciTegic.value.DoubleValue
0.356

@<SCITEGIC>MOL_PROPERTY
U+W
SciTegic.value.DoubleValue
-2.775

@<SCITEGIC>MOL_PROPERTY
Grad RMS
SciTegic.value.DoubleValue
0.000000

@<SCITEGIC>MOL_PROPERTY
U
SciTegic.value.DoubleValue
-0.184

@<SCITEGIC>MOL_PROPERTY
W
SciTegic.value.DoubleValue
-2.591

@<SCITEGIC>MOL_PROPERTY
W(PB)
SciTegic.value.DoubleValue
-4.184

@<SCITEGIC>MOL_PROPERTY
W(SA)
SciTegic.value.DoubleValue
1.593

@<SCITEGIC>MOL_PROPERTY
Valence
SciTegic.value.DoubleValue
6.840

@<SCITEGIC>MOL_PROPERTY
Coulomb
SciTegic.value.DoubleValue
-7.916

@<SCITEGIC>MOL_PROPERTY
VdW
SciTegic.value.DoubleValue
0.893

@<SCITEGIC>MOL_PROPERTY
VdW6
SciTegic.value.DoubleValue
-2.167

@<SCITEGIC>MOL_PROPERTY
VdW12
SciTegic.value.DoubleValue
3.060

@<SCITEGIC>MOL_PROPERTY
Bond
SciTegic.value.DoubleValue
0.059

@<SCITEGIC>MOL_PROPERTY
Angle
SciTegic.value.DoubleValue
0.918

@<SCITEGIC>MOL_PROPERTY
Pdih
SciTegic.value.DoubleValue
5.862

@<SCITEGIC>MOL_PROPERTY
Idih
SciTegic.value.DoubleValue
0.000

@<SCITEGIC>MOL_PROPERTY
Tether
SciTegic.value.DoubleValue
0.000

@<TRIPOS>MOLECULE
guest-s16_confgen4.mol2 : confsearch ligand conformer 355
          13          13           1
SMALL
USER_CHARGES
 
@<TRIPOS>ATOM
       1    C1      19.201037   17.971628   22.369855 C.3        1 MOL1        -0.1693
       2    H1      18.891941   17.219811   23.105793 H          1 MOL1         0.0829
       3    H2      18.919924   17.614778   21.370892 H          1 MOL1         0.0829
       4    C2      20.674019   18.486252   22.494852 C.3        1 MOL1        -0.1768
       5    H3      21.069342   18.485130   23.517952 H          1 MOL1         0.0829
       6    H4      21.409673   18.010243   21.836871 H          1 MOL1         0.0829
       7    C3      20.132947   19.871461   22.023230 C.3        1 MOL1         0.1211
       8    H5      20.620291   20.738597   22.486972 H          1 MOL1         0.0786
       9    C4      18.784353   19.447540   22.683215 C.3        1 MOL1        -0.1768
      10    H6      18.716357   19.682111   23.752499 H          1 MOL1         0.0829
      11    H7      17.875212   19.808249   22.189190 H          1 MOL1         0.0829
      12    O1      20.079132   20.040023   20.623080 O.3        1 MOL1        -0.5515
      13    H8      19.637631   19.242149   20.265607 H          1 MOL1         0.3773
@<TRIPOS>BOND
    1     1     2    1
    2     1     3    1
    3     1     4    1
    4     4     5    1
    5     4     6    1
    6     4     7    1
    7     7     8    1
    8     1     9    1
    9     7     9    1
   10     9    10    1
   11     9    11    1
   12     7    12    1
   13    12    13    1
@<TRIPOS>SUBSTRUCTURE
       1 MOL1            1 RESIDUE      1      MOL     
@<SCITEGIC>MOL_PROPERTY
VConf Rank
SciTegic.value.IntegerValue
355

@<SCITEGIC>MOL_PROPERTY
Conf_Id
SciTegic.value.IntegerValue
44

@<SCITEGIC>MOL_PROPERTY
Delta U+W
SciTegic.value.DoubleValue
0.823

@<SCITEGIC>MOL_PROPERTY
U+W
SciTegic.value.DoubleValue
-2.308

@<SCITEGIC>MOL_PROPERTY
Grad RMS
SciTegic.value.DoubleValue
0.000000

@<SCITEGIC>MOL_PROPERTY
U
SciTegic.value.DoubleValue
0.039

@<SCITEGIC>MOL_PROPERTY
W
SciTegic.value.DoubleValue
-2.348

@<SCITEGIC>MOL_PROPERTY
W(PB)
SciTegic.value.DoubleValue
-3.918

@<SCITEGIC>MOL_PROPERTY
W(SA)
SciTegic.value.DoubleValue
1.571

@<SCITEGIC>MOL_PROPERTY
Valence
SciTegic.value.DoubleValue
7.320

@<SCITEGIC>MOL_PROPERTY
Coulomb
SciTegic.value.DoubleValue
-8.530

@<SCITEGIC>MOL_PROPERTY
VdW
SciTegic.value.DoubleValue
1.249

@<SCITEGIC>MOL_PROPERTY
VdW6
SciTegic.value.DoubleValue
-2.615

@<SCITEGIC>MOL_PROPERTY
VdW12
SciTegic.value.DoubleValue
3.864

@<SCITEGIC>MOL_PROPERTY
Bond
SciTegic.value.DoubleValue
0.056

@<SCITEGIC>MOL_PROPERTY
Angle
SciTegic.value.DoubleValue
0.694

@<SCITEGIC>MOL_PROPERTY
Pdih
SciTegic.value.DoubleValue
6.570

@<SCITEGIC>MOL_PROPERTY
Idih
SciTegic.value.DoubleValue
0.000

@<SCITEGIC>MOL_PROPERTY
Tether
SciTegic.value.DoubleValue
0.000

@<TRIPOS>MOLECULE
guest-s16_confgen4.mol2 : confsearch ligand conformer 356
          13          13           1
SMALL
USER_CHARGES
 
@<TRIPOS>ATOM
       1    C1      18.913472   19.517507   21.274630 C.3        1 MOL1        -0.1693
       2    H1      18.547412   20.535538   21.462243 H          1 MOL1         0.0829
       3    H2      18.577099   19.201958   20.279834 H          1 MOL1         0.0829
       4    C2      18.657708   18.505065   22.439470 C.3        1 MOL1        -0.1768
       5    H3      17.745815   18.662507   23.025663 H          1 MOL1         0.0829
       6    H4      18.713489   17.448169   22.150598 H          1 MOL1         0.0829
       7    C3      19.968925   19.074761   23.059958 C.3        1 MOL1         0.1211
       8    H5      19.822819   20.003764   23.627995 H          1 MOL1         0.0786
       9    C4      20.430465   19.299142   21.588282 C.3        1 MOL1        -0.1768
      10    H6      21.086641   20.159959   21.419172 H          1 MOL1         0.0829
      11    H7      20.874721   18.417072   21.110388 H          1 MOL1         0.0829
      12    O1      20.736133   18.152365   23.798283 O.3        1 MOL1        -0.5515
      13    H8      21.598029   18.580100   23.991627 H          1 MOL1         0.3773
@<TRIPOS>BOND
    1     1     2    1
    2     1     3    1
    3     1     4    1
    4     4     5    1
    5     4     6    1
    6     4     7    1
    7     7     8    1
    8     1     9    1
    9     7     9    1
   10     9    10    1
   11     9    11    1
   12     7    12    1
   13    12    13    1
@<TRIPOS>SUBSTRUCTURE
       1 MOL1            1 RESIDUE      1      MOL     
@<SCITEGIC>MOL_PROPERTY
VConf Rank
SciTegic.value.IntegerValue
356

@<SCITEGIC>MOL_PROPERTY
Conf_Id
SciTegic.value.IntegerValue
22

@<SCITEGIC>MOL_PROPERTY
Delta U+W
SciTegic.value.DoubleValue
0.000

@<SCITEGIC>MOL_PROPERTY
U+W
SciTegic.value.DoubleValue
-3.131

@<SCITEGIC>MOL_PROPERTY
Grad RMS
SciTegic.value.DoubleValue
0.000000

@<SCITEGIC>MOL_PROPERTY
U
SciTegic.value.DoubleValue
-0.154

@<SCITEGIC>MOL_PROPERTY
W
SciTegic.value.DoubleValue
-2.978

@<SCITEGIC>MOL_PROPERTY
W(PB)
SciTegic.value.DoubleValue
-4.579

@<SCITEGIC>MOL_PROPERTY
W(SA)
SciTegic.value.DoubleValue
1.601

@<SCITEGIC>MOL_PROPERTY
Valence
SciTegic.value.DoubleValue
6.333

@<SCITEGIC>MOL_PROPERTY
Coulomb
SciTegic.value.DoubleValue
-7.439

@<SCITEGIC>MOL_PROPERTY
VdW
SciTegic.value.DoubleValue
0.952

@<SCITEGIC>MOL_PROPERTY
VdW6
SciTegic.value.DoubleValue
-2.120

@<SCITEGIC>MOL_PROPERTY
VdW12
SciTegic.value.DoubleValue
3.072

@<SCITEGIC>MOL_PROPERTY
Bond
SciTegic.value.DoubleValue
0.065

@<SCITEGIC>MOL_PROPERTY
Angle
SciTegic.value.DoubleValue
0.931

@<SCITEGIC>MOL_PROPERTY
Pdih
SciTegic.value.DoubleValue
5.338

@<SCITEGIC>MOL_PROPERTY
Idih
SciTegic.value.DoubleValue
0.000

@<SCITEGIC>MOL_PROPERTY
Tether
SciTegic.value.DoubleValue
0.000

@<TRIPOS>MOLECULE
guest-s16_confgen4.mol2 : confsearch ligand conformer 357
          13          13           1
SMALL
USER_CHARGES
 
@<TRIPOS>ATOM
       1    C1      18.690601   19.677768   21.703326 C.3        1 MOL1        -0.1693
       2    H1      18.005330   20.119406   22.438817 H          1 MOL1         0.0829
       3    H2      18.354071   19.958381   20.698168 H          1 MOL1         0.0829
       4    C2      19.000238   18.160519   21.925607 C.3        1 MOL1        -0.1768
       5    H3      19.399330   17.640711   21.045654 H          1 MOL1         0.0829
       6    H4      18.189085   17.560249   22.352080 H          1 MOL1         0.0829
       7    C3      20.082808   18.653888   22.932496 C.3        1 MOL1         0.1211
       8    H5      19.690154   18.882629   23.932776 H          1 MOL1         0.0786
       9    C4      20.208905   19.901293   22.006794 C.3        1 MOL1        -0.1768
      10    H6      20.875032   19.763001   21.146135 H          1 MOL1         0.0829
      11    H7      20.469085   20.840795   22.506398 H          1 MOL1         0.0829
      12    O1      21.236076   17.849572   23.019676 O.3        1 MOL1        -0.5515
      13    H8      20.981385   17.026169   23.489083 H          1 MOL1         0.3773
@<TRIPOS>BOND
    1     1     2    1
    2     1     3    1
    3     1     4    1
    4     4     5    1
    5     4     6    1
    6     4     7    1
    7     7     8    1
    8     1     9    1
    9     7     9    1
   10     9    10    1
   11     9    11    1
   12     7    12    1
   13    12    13    1
@<TRIPOS>SUBSTRUCTURE
       1 MOL1            1 RESIDUE      1      MOL     
@<SCITEGIC>MOL_PROPERTY
VConf Rank
SciTegic.value.IntegerValue
357

@<SCITEGIC>MOL_PROPERTY
Conf_Id
SciTegic.value.IntegerValue
19

@<SCITEGIC>MOL_PROPERTY
Delta U+W
SciTegic.value.DoubleValue
-0.011

@<SCITEGIC>MOL_PROPERTY
U+W
SciTegic.value.DoubleValue
-3.142

@<SCITEGIC>MOL_PROPERTY
Grad RMS
SciTegic.value.DoubleValue
0.000000

@<SCITEGIC>MOL_PROPERTY
U
SciTegic.value.DoubleValue
-0.154

@<SCITEGIC>MOL_PROPERTY
W
SciTegic.value.DoubleValue
-2.989

@<SCITEGIC>MOL_PROPERTY
W(PB)
SciTegic.value.DoubleValue
-4.588

@<SCITEGIC>MOL_PROPERTY
W(SA)
SciTegic.value.DoubleValue
1.599

@<SCITEGIC>MOL_PROPERTY
Valence
SciTegic.value.DoubleValue
6.334

@<SCITEGIC>MOL_PROPERTY
Coulomb
SciTegic.value.DoubleValue
-7.439

@<SCITEGIC>MOL_PROPERTY
VdW
SciTegic.value.DoubleValue
0.951

@<SCITEGIC>MOL_PROPERTY
VdW6
SciTegic.value.DoubleValue
-2.120

@<SCITEGIC>MOL_PROPERTY
VdW12
SciTegic.value.DoubleValue
3.072

@<SCITEGIC>MOL_PROPERTY
Bond
SciTegic.value.DoubleValue
0.065

@<SCITEGIC>MOL_PROPERTY
Angle
SciTegic.value.DoubleValue
0.930

@<SCITEGIC>MOL_PROPERTY
Pdih
SciTegic.value.DoubleValue
5.339

@<SCITEGIC>MOL_PROPERTY
Idih
SciTegic.value.DoubleValue
0.000

@<SCITEGIC>MOL_PROPERTY
Tether
SciTegic.value.DoubleValue
0.000

@<TRIPOS>MOLECULE
guest-s16_confgen4.mol2 : confsearch ligand conformer 358
          13          13           1
SMALL
USER_CHARGES
 
@<TRIPOS>ATOM
       1    C1      20.725115   18.513259   22.457580 C.3        1 MOL1        -0.1693
       2    H1      21.381439   18.030322   23.191057 H          1 MOL1         0.0829
       3    H2      21.196056   18.447474   21.468089 H          1 MOL1         0.0829
       4    C2      20.202841   19.939409   22.834802 C.3        1 MOL1        -0.1768
       5    H3      20.072223   20.106237   23.910847 H          1 MOL1         0.0829
       6    H4      20.761409   20.783108   22.414603 H          1 MOL1         0.0829
       7    C3      18.890434   19.553747   22.083615 C.3        1 MOL1         0.1211
       8    H5      17.972836   19.959507   22.528793 H          1 MOL1         0.0786
       9    C4      19.220724   18.083911   22.491763 C.3        1 MOL1        -0.1768
      10    H6      18.925924   17.309126   21.775416 H          1 MOL1         0.0829
      11    H7      18.852134   17.800306   23.485083 H          1 MOL1         0.0829
      12    O1      18.905456   19.805099   20.692665 O.3        1 MOL1        -0.5515
      13    H8      18.115095   19.368190   20.309788 H          1 MOL1         0.3773
@<TRIPOS>BOND
    1     1     2    1
    2     1     3    1
    3     1     4    1
    4     4     5    1
    5     4     6    1
    6     4     7    1
    7     7     8    1
    8     1     9    1
    9     7     9    1
   10     9    10    1
   11     9    11    1
   12     7    12    1
   13    12    13    1
@<TRIPOS>SUBSTRUCTURE
       1 MOL1            1 RESIDUE      1      MOL     
@<SCITEGIC>MOL_PROPERTY
VConf Rank
SciTegic.value.IntegerValue
358

@<SCITEGIC>MOL_PROPERTY
Conf_Id
SciTegic.value.IntegerValue
20

@<SCITEGIC>MOL_PROPERTY
Delta U+W
SciTegic.value.DoubleValue
1.030

@<SCITEGIC>MOL_PROPERTY
U+W
SciTegic.value.DoubleValue
-2.101

@<SCITEGIC>MOL_PROPERTY
Grad RMS
SciTegic.value.DoubleValue
0.000000

@<SCITEGIC>MOL_PROPERTY
U
SciTegic.value.DoubleValue
0.841

@<SCITEGIC>MOL_PROPERTY
W
SciTegic.value.DoubleValue
-2.942

@<SCITEGIC>MOL_PROPERTY
W(PB)
SciTegic.value.DoubleValue
-4.530

@<SCITEGIC>MOL_PROPERTY
W(SA)
SciTegic.value.DoubleValue
1.587

@<SCITEGIC>MOL_PROPERTY
Valence
SciTegic.value.DoubleValue
6.736

@<SCITEGIC>MOL_PROPERTY
Coulomb
SciTegic.value.DoubleValue
-7.246

@<SCITEGIC>MOL_PROPERTY
VdW
SciTegic.value.DoubleValue
1.352

@<SCITEGIC>MOL_PROPERTY
VdW6
SciTegic.value.DoubleValue
-2.500

@<SCITEGIC>MOL_PROPERTY
VdW12
SciTegic.value.DoubleValue
3.851

@<SCITEGIC>MOL_PROPERTY
Bond
SciTegic.value.DoubleValue
0.063

@<SCITEGIC>MOL_PROPERTY
Angle
SciTegic.value.DoubleValue
0.687

@<SCITEGIC>MOL_PROPERTY
Pdih
SciTegic.value.DoubleValue
5.986

@<SCITEGIC>MOL_PROPERTY
Idih
SciTegic.value.DoubleValue
0.000

@<SCITEGIC>MOL_PROPERTY
Tether
SciTegic.value.DoubleValue
0.000

@<TRIPOS>MOLECULE
guest-s16_confgen4.mol2 : confsearch ligand conformer 359
          13          13           1
SMALL
USER_CHARGES
 
@<TRIPOS>ATOM
       1    C1      19.884587   19.774551   21.237810 C.3        1 MOL1        -0.1693
       2    H1      19.948879   20.845462   21.471656 H          1 MOL1         0.0829
       3    H2      19.958261   19.648620   20.151009 H          1 MOL1         0.0829
       4    C2      18.705724   19.021769   21.938494 C.3        1 MOL1        -0.1768
       5    H3      17.794808   19.605843   22.109911 H          1 MOL1         0.0829
       6    H4      18.429779   18.068345   21.471349 H          1 MOL1         0.0829
       7    C3      19.670229   18.899123   23.156625 C.3        1 MOL1         0.1211
       8    H5      19.689321   19.789722   23.799402 H          1 MOL1         0.0786
       9    C4      20.815544   18.859773   22.100282 C.3        1 MOL1        -0.1768
      10    H6      21.011170   17.870140   21.669299 H          1 MOL1         0.0829
      11    H7      21.767921   19.300776   22.414584 H          1 MOL1         0.0829
      12    O1      19.521321   17.732564   23.930436 O.3        1 MOL1        -0.5515
      13    H8      19.511060   16.976150   23.307176 H          1 MOL1         0.3773
@<TRIPOS>BOND
    1     1     2    1
    2     1     3    1
    3     1     4    1
    4     4     5    1
    5     4     6    1
    6     4     7    1
    7     7     8    1
    8     1     9    1
    9     7     9    1
   10     9    10    1
   11     9    11    1
   12     7    12    1
   13    12    13    1
@<TRIPOS>SUBSTRUCTURE
       1 MOL1            1 RESIDUE      1      MOL     
@<SCITEGIC>MOL_PROPERTY
VConf Rank
SciTegic.value.IntegerValue
359

@<SCITEGIC>MOL_PROPERTY
Conf_Id
SciTegic.value.IntegerValue
24

@<SCITEGIC>MOL_PROPERTY
Delta U+W
SciTegic.value.DoubleValue
0.356

@<SCITEGIC>MOL_PROPERTY
U+W
SciTegic.value.DoubleValue
-2.775

@<SCITEGIC>MOL_PROPERTY
Grad RMS
SciTegic.value.DoubleValue
0.000000

@<SCITEGIC>MOL_PROPERTY
U
SciTegic.value.DoubleValue
-0.184

@<SCITEGIC>MOL_PROPERTY
W
SciTegic.value.DoubleValue
-2.591

@<SCITEGIC>MOL_PROPERTY
W(PB)
SciTegic.value.DoubleValue
-4.184

@<SCITEGIC>MOL_PROPERTY
W(SA)
SciTegic.value.DoubleValue
1.593

@<SCITEGIC>MOL_PROPERTY
Valence
SciTegic.value.DoubleValue
6.840

@<SCITEGIC>MOL_PROPERTY
Coulomb
SciTegic.value.DoubleValue
-7.916

@<SCITEGIC>MOL_PROPERTY
VdW
SciTegic.value.DoubleValue
0.893

@<SCITEGIC>MOL_PROPERTY
VdW6
SciTegic.value.DoubleValue
-2.167

@<SCITEGIC>MOL_PROPERTY
VdW12
SciTegic.value.DoubleValue
3.060

@<SCITEGIC>MOL_PROPERTY
Bond
SciTegic.value.DoubleValue
0.059

@<SCITEGIC>MOL_PROPERTY
Angle
SciTegic.value.DoubleValue
0.918

@<SCITEGIC>MOL_PROPERTY
Pdih
SciTegic.value.DoubleValue
5.862

@<SCITEGIC>MOL_PROPERTY
Idih
SciTegic.value.DoubleValue
0.000

@<SCITEGIC>MOL_PROPERTY
Tether
SciTegic.value.DoubleValue
0.000

@<TRIPOS>MOLECULE
guest-s16_confgen4.mol2 : confsearch ligand conformer 360
          13          13           1
SMALL
USER_CHARGES
 
@<TRIPOS>ATOM
       1    C1      19.747354   18.821208   21.095336 C.3        1 MOL1        -0.1693
       2    H1      19.424285   18.209225   20.244762 H          1 MOL1         0.0829
       3    H2      20.391523   19.625792   20.718526 H          1 MOL1         0.0829
       4    C2      20.321952   18.037888   22.322684 C.3        1 MOL1        -0.1768
       5    H3      19.894797   17.037353   22.462264 H          1 MOL1         0.0829
       6    H4      21.413589   17.961322   22.379037 H          1 MOL1         0.0829
       7    C3      19.668747   19.138770   23.214521 C.3        1 MOL1         0.1211
       8    H5      19.264978   18.778570   24.169358 H          1 MOL1         0.0786
       9    C4      18.616284   19.286255   22.072346 C.3        1 MOL1        -0.1768
      10    H6      17.770924   18.591801   22.150545 H          1 MOL1         0.0829
      11    H7      18.223280   20.296284   21.910799 H          1 MOL1         0.0829
      12    O1      20.471783   20.279155   23.429886 O.3        1 MOL1        -0.5515
      13    H8      20.802362   20.554349   22.549943 H          1 MOL1         0.3773
@<TRIPOS>BOND
    1     1     2    1
    2     1     3    1
    3     1     4    1
    4     4     5    1
    5     4     6    1
    6     4     7    1
    7     7     8    1
    8     1     9    1
    9     7     9    1
   10     9    10    1
   11     9    11    1
   12     7    12    1
   13    12    13    1
@<TRIPOS>SUBSTRUCTURE
       1 MOL1            1 RESIDUE      1      MOL     
@<SCITEGIC>MOL_PROPERTY
VConf Rank
SciTegic.value.IntegerValue
360

@<SCITEGIC>MOL_PROPERTY
Conf_Id
SciTegic.value.IntegerValue
44

@<SCITEGIC>MOL_PROPERTY
Delta U+W
SciTegic.value.DoubleValue
0.823

@<SCITEGIC>MOL_PROPERTY
U+W
SciTegic.value.DoubleValue
-2.308

@<SCITEGIC>MOL_PROPERTY
Grad RMS
SciTegic.value.DoubleValue
0.000000

@<SCITEGIC>MOL_PROPERTY
U
SciTegic.value.DoubleValue
0.039

@<SCITEGIC>MOL_PROPERTY
W
SciTegic.value.DoubleValue
-2.348

@<SCITEGIC>MOL_PROPERTY
W(PB)
SciTegic.value.DoubleValue
-3.918

@<SCITEGIC>MOL_PROPERTY
W(SA)
SciTegic.value.DoubleValue
1.571

@<SCITEGIC>MOL_PROPERTY
Valence
SciTegic.value.DoubleValue
7.320

@<SCITEGIC>MOL_PROPERTY
Coulomb
SciTegic.value.DoubleValue
-8.530

@<SCITEGIC>MOL_PROPERTY
VdW
SciTegic.value.DoubleValue
1.249

@<SCITEGIC>MOL_PROPERTY
VdW6
SciTegic.value.DoubleValue
-2.615

@<SCITEGIC>MOL_PROPERTY
VdW12
SciTegic.value.DoubleValue
3.864

@<SCITEGIC>MOL_PROPERTY
Bond
SciTegic.value.DoubleValue
0.056

@<SCITEGIC>MOL_PROPERTY
Angle
SciTegic.value.DoubleValue
0.694

@<SCITEGIC>MOL_PROPERTY
Pdih
SciTegic.value.DoubleValue
6.570

@<SCITEGIC>MOL_PROPERTY
Idih
SciTegic.value.DoubleValue
0.000

@<SCITEGIC>MOL_PROPERTY
Tether
SciTegic.value.DoubleValue
0.000

@<TRIPOS>MOLECULE
guest-s16_confgen4.mol2 : confsearch ligand conformer 361
          13          13           1
SMALL
USER_CHARGES
 
@<TRIPOS>ATOM
       1    C1      20.772425   19.763763   22.243797 C.3        1 MOL1        -0.1693
       2    H1      21.587608   19.309750   21.665062 H          1 MOL1         0.0829
       3    H2      21.108994   20.737706   22.618622 H          1 MOL1         0.0829
       4    C2      20.109241   18.814656   23.295791 C.3        1 MOL1        -0.1768
       5    H3      20.767711   18.073184   23.761192 H          1 MOL1         0.0829
       6    H4      19.541562   19.326066   24.083056 H          1 MOL1         0.0829
       7    C3      19.243704   18.300387   22.106160 C.3        1 MOL1         0.1211
       8    H5      19.740029   17.532651   21.496812 H          1 MOL1         0.0786
       9    C4      19.377501   19.744709   21.535876 C.3        1 MOL1        -0.1768
      10    H6      19.389876   19.828009   20.443594 H          1 MOL1         0.0829
      11    H7      18.650558   20.462164   21.936635 H          1 MOL1         0.0829
      12    O1      17.934228   17.903625   22.441416 O.3        1 MOL1        -0.5515
      13    H8      17.449289   17.761237   21.600129 H          1 MOL1         0.3773
@<TRIPOS>BOND
    1     1     2    1
    2     1     3    1
    3     1     4    1
    4     4     5    1
    5     4     6    1
    6     4     7    1
    7     7     8    1
    8     1     9    1
    9     7     9    1
   10     9    10    1
   11     9    11    1
   12     7    12    1
   13    12    13    1
@<TRIPOS>SUBSTRUCTURE
       1 MOL1            1 RESIDUE      1      MOL     
@<SCITEGIC>MOL_PROPERTY
VConf Rank
SciTegic.value.IntegerValue
361

@<SCITEGIC>MOL_PROPERTY
Conf_Id
SciTegic.value.IntegerValue
22

@<SCITEGIC>MOL_PROPERTY
Delta U+W
SciTegic.value.DoubleValue
0.000

@<SCITEGIC>MOL_PROPERTY
U+W
SciTegic.value.DoubleValue
-3.131

@<SCITEGIC>MOL_PROPERTY
Grad RMS
SciTegic.value.DoubleValue
0.000000

@<SCITEGIC>MOL_PROPERTY
U
SciTegic.value.DoubleValue
-0.154

@<SCITEGIC>MOL_PROPERTY
W
SciTegic.value.DoubleValue
-2.978

@<SCITEGIC>MOL_PROPERTY
W(PB)
SciTegic.value.DoubleValue
-4.579

@<SCITEGIC>MOL_PROPERTY
W(SA)
SciTegic.value.DoubleValue
1.601

@<SCITEGIC>MOL_PROPERTY
Valence
SciTegic.value.DoubleValue
6.333

@<SCITEGIC>MOL_PROPERTY
Coulomb
SciTegic.value.DoubleValue
-7.439

@<SCITEGIC>MOL_PROPERTY
VdW
SciTegic.value.DoubleValue
0.952

@<SCITEGIC>MOL_PROPERTY
VdW6
SciTegic.value.DoubleValue
-2.120

@<SCITEGIC>MOL_PROPERTY
VdW12
SciTegic.value.DoubleValue
3.072

@<SCITEGIC>MOL_PROPERTY
Bond
SciTegic.value.DoubleValue
0.065

@<SCITEGIC>MOL_PROPERTY
Angle
SciTegic.value.DoubleValue
0.931

@<SCITEGIC>MOL_PROPERTY
Pdih
SciTegic.value.DoubleValue
5.338

@<SCITEGIC>MOL_PROPERTY
Idih
SciTegic.value.DoubleValue
0.000

@<SCITEGIC>MOL_PROPERTY
Tether
SciTegic.value.DoubleValue
0.000

@<TRIPOS>MOLECULE
guest-s16_confgen4.mol2 : confsearch ligand conformer 362
          13          13           1
SMALL
USER_CHARGES
 
@<TRIPOS>ATOM
       1    C1      19.751871   18.818722   20.936395 C.3        1 MOL1        -0.1693
       2    H1      18.935977   18.254192   20.466067 H          1 MOL1         0.0829
       3    H2      20.478837   19.093922   20.163010 H          1 MOL1         0.0829
       4    C2      20.339603   18.164586   22.230229 C.3        1 MOL1        -0.1768
       5    H3      21.336098   18.525542   22.513958 H          1 MOL1         0.0829
       6    H4      20.339578   17.069457   22.259634 H          1 MOL1         0.0829
       7    C3      19.161640   18.864721   22.972799 C.3        1 MOL1         0.1211
       8    H5      18.215010   18.308637   22.931306 H          1 MOL1         0.0786
       9    C4      19.287278   19.973125   21.884452 C.3        1 MOL1        -0.1768
      10    H6      20.051739   20.731500   22.094336 H          1 MOL1         0.0829
      11    H7      18.355186   20.478896   21.609933 H          1 MOL1         0.0829
      12    O1      19.440867   19.279476   24.289826 O.3        1 MOL1        -0.5515
      13    H8      19.488413   18.471606   24.845065 H          1 MOL1         0.3773
@<TRIPOS>BOND
    1     1     2    1
    2     1     3    1
    3     1     4    1
    4     4     5    1
    5     4     6    1
    6     4     7    1
    7     7     8    1
    8     1     9    1
    9     7     9    1
   10     9    10    1
   11     9    11    1
   12     7    12    1
   13    12    13    1
@<TRIPOS>SUBSTRUCTURE
       1 MOL1            1 RESIDUE      1      MOL     
@<SCITEGIC>MOL_PROPERTY
VConf Rank
SciTegic.value.IntegerValue
362

@<SCITEGIC>MOL_PROPERTY
Conf_Id
SciTegic.value.IntegerValue
19

@<SCITEGIC>MOL_PROPERTY
Delta U+W
SciTegic.value.DoubleValue
-0.011

@<SCITEGIC>MOL_PROPERTY
U+W
SciTegic.value.DoubleValue
-3.142

@<SCITEGIC>MOL_PROPERTY
Grad RMS
SciTegic.value.DoubleValue
0.000000

@<SCITEGIC>MOL_PROPERTY
U
SciTegic.value.DoubleValue
-0.154

@<SCITEGIC>MOL_PROPERTY
W
SciTegic.value.DoubleValue
-2.989

@<SCITEGIC>MOL_PROPERTY
W(PB)
SciTegic.value.DoubleValue
-4.588

@<SCITEGIC>MOL_PROPERTY
W(SA)
SciTegic.value.DoubleValue
1.599

@<SCITEGIC>MOL_PROPERTY
Valence
SciTegic.value.DoubleValue
6.334

@<SCITEGIC>MOL_PROPERTY
Coulomb
SciTegic.value.DoubleValue
-7.439

@<SCITEGIC>MOL_PROPERTY
VdW
SciTegic.value.DoubleValue
0.951

@<SCITEGIC>MOL_PROPERTY
VdW6
SciTegic.value.DoubleValue
-2.120

@<SCITEGIC>MOL_PROPERTY
VdW12
SciTegic.value.DoubleValue
3.072

@<SCITEGIC>MOL_PROPERTY
Bond
SciTegic.value.DoubleValue
0.065

@<SCITEGIC>MOL_PROPERTY
Angle
SciTegic.value.DoubleValue
0.930

@<SCITEGIC>MOL_PROPERTY
Pdih
SciTegic.value.DoubleValue
5.339

@<SCITEGIC>MOL_PROPERTY
Idih
SciTegic.value.DoubleValue
0.000

@<SCITEGIC>MOL_PROPERTY
Tether
SciTegic.value.DoubleValue
0.000

@<TRIPOS>MOLECULE
guest-s16_confgen4.mol2 : confsearch ligand conformer 363
          13          13           1
SMALL
USER_CHARGES
 
@<TRIPOS>ATOM
       1    C1      19.595360   18.127651   23.091739 C.3        1 MOL1        -0.1693
       2    H1      20.116338   17.238965   23.466967 H          1 MOL1         0.0829
       3    H2      18.710781   18.306174   23.716924 H          1 MOL1         0.0829
       4    C2      19.320599   18.165674   21.551599 C.3        1 MOL1        -0.1768
       5    H3      20.071214   17.647573   20.942572 H          1 MOL1         0.0829
       6    H4      18.324502   17.839706   21.232334 H          1 MOL1         0.0829
       7    C3      19.530224   19.709087   21.648362 C.3        1 MOL1         0.1211
       8    H5      20.021179   20.159298   20.775960 H          1 MOL1         0.0786
       9    C4      20.482590   19.392569   22.843733 C.3        1 MOL1        -0.1768
      10    H6      20.500917   20.132356   23.651651 H          1 MOL1         0.0829
      11    H7      21.515500   19.171633   22.548339 H          1 MOL1         0.0829
      12    O1      18.372549   20.446549   21.986124 O.3        1 MOL1        -0.5515
      13    H8      18.659932   21.362460   22.187798 H          1 MOL1         0.3773
@<TRIPOS>BOND
    1     1     2    1
    2     1     3    1
    3     1     4    1
    4     4     5    1
    5     4     6    1
    6     4     7    1
    7     7     8    1
    8     1     9    1
    9     7     9    1
   10     9    10    1
   11     9    11    1
   12     7    12    1
   13    12    13    1
@<TRIPOS>SUBSTRUCTURE
       1 MOL1            1 RESIDUE      1      MOL     
@<SCITEGIC>MOL_PROPERTY
VConf Rank
SciTegic.value.IntegerValue
363

@<SCITEGIC>MOL_PROPERTY
Conf_Id
SciTegic.value.IntegerValue
20

@<SCITEGIC>MOL_PROPERTY
Delta U+W
SciTegic.value.DoubleValue
1.030

@<SCITEGIC>MOL_PROPERTY
U+W
SciTegic.value.DoubleValue
-2.101

@<SCITEGIC>MOL_PROPERTY
Grad RMS
SciTegic.value.DoubleValue
0.000000

@<SCITEGIC>MOL_PROPERTY
U
SciTegic.value.DoubleValue
0.841

@<SCITEGIC>MOL_PROPERTY
W
SciTegic.value.DoubleValue
-2.942

@<SCITEGIC>MOL_PROPERTY
W(PB)
SciTegic.value.DoubleValue
-4.530

@<SCITEGIC>MOL_PROPERTY
W(SA)
SciTegic.value.DoubleValue
1.587

@<SCITEGIC>MOL_PROPERTY
Valence
SciTegic.value.DoubleValue
6.736

@<SCITEGIC>MOL_PROPERTY
Coulomb
SciTegic.value.DoubleValue
-7.246

@<SCITEGIC>MOL_PROPERTY
VdW
SciTegic.value.DoubleValue
1.352

@<SCITEGIC>MOL_PROPERTY
VdW6
SciTegic.value.DoubleValue
-2.500

@<SCITEGIC>MOL_PROPERTY
VdW12
SciTegic.value.DoubleValue
3.851

@<SCITEGIC>MOL_PROPERTY
Bond
SciTegic.value.DoubleValue
0.063

@<SCITEGIC>MOL_PROPERTY
Angle
SciTegic.value.DoubleValue
0.687

@<SCITEGIC>MOL_PROPERTY
Pdih
SciTegic.value.DoubleValue
5.986

@<SCITEGIC>MOL_PROPERTY
Idih
SciTegic.value.DoubleValue
0.000

@<SCITEGIC>MOL_PROPERTY
Tether
SciTegic.value.DoubleValue
0.000

@<TRIPOS>MOLECULE
guest-s16_confgen4.mol2 : confsearch ligand conformer 364
          13          13           1
SMALL
USER_CHARGES
 
@<TRIPOS>ATOM
       1    C1      20.911966   18.970828   21.678386 C.3        1 MOL1        -0.1693
       2    H1      21.592658   19.787262   21.953638 H          1 MOL1         0.0829
       3    H2      21.422455   18.316035   20.962099 H          1 MOL1         0.0829
       4    C2      19.468580   19.427571   21.284202 C.3        1 MOL1        -0.1768
       5    H3      19.389113   20.403207   20.792154 H          1 MOL1         0.0829
       6    H4      18.899044   18.692476   20.702264 H          1 MOL1         0.0829
       7    C3      19.179272   19.416448   22.815650 C.3        1 MOL1         0.1211
       8    H5      19.495437   20.331897   23.333999 H          1 MOL1         0.0786
       9    C4      20.221005   18.259438   22.888285 C.3        1 MOL1        -0.1768
      10    H6      19.819646   17.263251   22.664879 H          1 MOL1         0.0829
      11    H7      20.806041   18.203434   23.812887 H          1 MOL1         0.0829
      12    O1      17.864398   19.069656   23.179876 O.3        1 MOL1        -0.5515
      13    H8      17.638988   18.251332   22.689717 H          1 MOL1         0.3773
@<TRIPOS>BOND
    1     1     2    1
    2     1     3    1
    3     1     4    1
    4     4     5    1
    5     4     6    1
    6     4     7    1
    7     7     8    1
    8     1     9    1
    9     7     9    1
   10     9    10    1
   11     9    11    1
   12     7    12    1
   13    12    13    1
@<TRIPOS>SUBSTRUCTURE
       1 MOL1            1 RESIDUE      1      MOL     
@<SCITEGIC>MOL_PROPERTY
VConf Rank
SciTegic.value.IntegerValue
364

@<SCITEGIC>MOL_PROPERTY
Conf_Id
SciTegic.value.IntegerValue
24

@<SCITEGIC>MOL_PROPERTY
Delta U+W
SciTegic.value.DoubleValue
0.356

@<SCITEGIC>MOL_PROPERTY
U+W
SciTegic.value.DoubleValue
-2.775

@<SCITEGIC>MOL_PROPERTY
Grad RMS
SciTegic.value.DoubleValue
0.000000

@<SCITEGIC>MOL_PROPERTY
U
SciTegic.value.DoubleValue
-0.184

@<SCITEGIC>MOL_PROPERTY
W
SciTegic.value.DoubleValue
-2.591

@<SCITEGIC>MOL_PROPERTY
W(PB)
SciTegic.value.DoubleValue
-4.184

@<SCITEGIC>MOL_PROPERTY
W(SA)
SciTegic.value.DoubleValue
1.593

@<SCITEGIC>MOL_PROPERTY
Valence
SciTegic.value.DoubleValue
6.840

@<SCITEGIC>MOL_PROPERTY
Coulomb
SciTegic.value.DoubleValue
-7.916

@<SCITEGIC>MOL_PROPERTY
VdW
SciTegic.value.DoubleValue
0.893

@<SCITEGIC>MOL_PROPERTY
VdW6
SciTegic.value.DoubleValue
-2.167

@<SCITEGIC>MOL_PROPERTY
VdW12
SciTegic.value.DoubleValue
3.060

@<SCITEGIC>MOL_PROPERTY
Bond
SciTegic.value.DoubleValue
0.059

@<SCITEGIC>MOL_PROPERTY
Angle
SciTegic.value.DoubleValue
0.918

@<SCITEGIC>MOL_PROPERTY
Pdih
SciTegic.value.DoubleValue
5.862

@<SCITEGIC>MOL_PROPERTY
Idih
SciTegic.value.DoubleValue
0.000

@<SCITEGIC>MOL_PROPERTY
Tether
SciTegic.value.DoubleValue
0.000

@<TRIPOS>MOLECULE
guest-s16_confgen4.mol2 : confsearch ligand conformer 365
          13          13           1
SMALL
USER_CHARGES
 
@<TRIPOS>ATOM
       1    C1      20.744454   19.059554   22.600397 C.3        1 MOL1        -0.1693
       2    H1      21.811623   19.032019   22.349864 H          1 MOL1         0.0829
       3    H2      20.645895   19.253576   23.676008 H          1 MOL1         0.0829
       4    C2      19.885016   17.865797   22.065188 C.3        1 MOL1        -0.1768
       5    H3      20.244470   17.435149   21.122664 H          1 MOL1         0.0829
       6    H4      19.698425   17.049583   22.772073 H          1 MOL1         0.0829
       7    C3      18.726785   18.896734   21.892956 C.3        1 MOL1         0.1211
       8    H5      18.084992   18.726891   21.019033 H          1 MOL1         0.0786
       9    C4      19.849613   19.959607   21.684263 C.3        1 MOL1        -0.1768
      10    H6      20.200387   20.042329   20.648344 H          1 MOL1         0.0829
      11    H7      19.632208   20.965875   22.059586 H          1 MOL1         0.0829
      12    O1      17.933197   19.092615   23.043424 O.3        1 MOL1        -0.5515
      13    H8      18.554791   19.238243   23.786207 H          1 MOL1         0.3773
@<TRIPOS>BOND
    1     1     2    1
    2     1     3    1
    3     1     4    1
    4     4     5    1
    5     4     6    1
    6     4     7    1
    7     7     8    1
    8     1     9    1
    9     7     9    1
   10     9    10    1
   11     9    11    1
   12     7    12    1
   13    12    13    1
@<TRIPOS>SUBSTRUCTURE
       1 MOL1            1 RESIDUE      1      MOL     
@<SCITEGIC>MOL_PROPERTY
VConf Rank
SciTegic.value.IntegerValue
365

@<SCITEGIC>MOL_PROPERTY
Conf_Id
SciTegic.value.IntegerValue
44

@<SCITEGIC>MOL_PROPERTY
Delta U+W
SciTegic.value.DoubleValue
0.823

@<SCITEGIC>MOL_PROPERTY
U+W
SciTegic.value.DoubleValue
-2.308

@<SCITEGIC>MOL_PROPERTY
Grad RMS
SciTegic.value.DoubleValue
0.000000

@<SCITEGIC>MOL_PROPERTY
U
SciTegic.value.DoubleValue
0.039

@<SCITEGIC>MOL_PROPERTY
W
SciTegic.value.DoubleValue
-2.348

@<SCITEGIC>MOL_PROPERTY
W(PB)
SciTegic.value.DoubleValue
-3.918

@<SCITEGIC>MOL_PROPERTY
W(SA)
SciTegic.value.DoubleValue
1.571

@<SCITEGIC>MOL_PROPERTY
Valence
SciTegic.value.DoubleValue
7.320

@<SCITEGIC>MOL_PROPERTY
Coulomb
SciTegic.value.DoubleValue
-8.530

@<SCITEGIC>MOL_PROPERTY
VdW
SciTegic.value.DoubleValue
1.249

@<SCITEGIC>MOL_PROPERTY
VdW6
SciTegic.value.DoubleValue
-2.615

@<SCITEGIC>MOL_PROPERTY
VdW12
SciTegic.value.DoubleValue
3.864

@<SCITEGIC>MOL_PROPERTY
Bond
SciTegic.value.DoubleValue
0.056

@<SCITEGIC>MOL_PROPERTY
Angle
SciTegic.value.DoubleValue
0.694

@<SCITEGIC>MOL_PROPERTY
Pdih
SciTegic.value.DoubleValue
6.570

@<SCITEGIC>MOL_PROPERTY
Idih
SciTegic.value.DoubleValue
0.000

@<SCITEGIC>MOL_PROPERTY
Tether
SciTegic.value.DoubleValue
0.000

@<TRIPOS>MOLECULE
guest-s16_confgen4.mol2 : confsearch ligand conformer 366
          13          13           1
SMALL
USER_CHARGES
 
@<TRIPOS>ATOM
       1    C1      19.656749   19.398745   20.977654 C.3        1 MOL1        -0.1693
       2    H1      20.653569   19.633558   20.581676 H          1 MOL1         0.0829
       3    H2      18.927513   19.482260   20.163051 H          1 MOL1         0.0829
       4    C2      19.289754   20.137877   22.306678 C.3        1 MOL1        -0.1768
       5    H3      19.709831   21.141535   22.433823 H          1 MOL1         0.0829
       6    H4      18.216614   20.173318   22.531848 H          1 MOL1         0.0829
       7    C3      20.060899   18.985434   23.018055 C.3        1 MOL1         0.1211
       8    H5      21.148639   19.135988   23.052964 H          1 MOL1         0.0786
       9    C4      19.583743   18.091480   21.833842 C.3        1 MOL1        -0.1768
      10    H6      20.263648   17.284177   21.540307 H          1 MOL1         0.0829
      11    H7      18.574615   17.677634   21.952945 H          1 MOL1         0.0829
      12    O1      19.565282   18.621766   24.285594 O.3        1 MOL1        -0.5515
      13    H8      20.021871   17.794134   24.549706 H          1 MOL1         0.3773
@<TRIPOS>BOND
    1     1     2    1
    2     1     3    1
    3     1     4    1
    4     4     5    1
    5     4     6    1
    6     4     7    1
    7     7     8    1
    8     1     9    1
    9     7     9    1
   10     9    10    1
   11     9    11    1
   12     7    12    1
   13    12    13    1
@<TRIPOS>SUBSTRUCTURE
       1 MOL1            1 RESIDUE      1      MOL     
@<SCITEGIC>MOL_PROPERTY
VConf Rank
SciTegic.value.IntegerValue
366

@<SCITEGIC>MOL_PROPERTY
Conf_Id
SciTegic.value.IntegerValue
22

@<SCITEGIC>MOL_PROPERTY
Delta U+W
SciTegic.value.DoubleValue
0.000

@<SCITEGIC>MOL_PROPERTY
U+W
SciTegic.value.DoubleValue
-3.131

@<SCITEGIC>MOL_PROPERTY
Grad RMS
SciTegic.value.DoubleValue
0.000000

@<SCITEGIC>MOL_PROPERTY
U
SciTegic.value.DoubleValue
-0.154

@<SCITEGIC>MOL_PROPERTY
W
SciTegic.value.DoubleValue
-2.978

@<SCITEGIC>MOL_PROPERTY
W(PB)
SciTegic.value.DoubleValue
-4.579

@<SCITEGIC>MOL_PROPERTY
W(SA)
SciTegic.value.DoubleValue
1.601

@<SCITEGIC>MOL_PROPERTY
Valence
SciTegic.value.DoubleValue
6.333

@<SCITEGIC>MOL_PROPERTY
Coulomb
SciTegic.value.DoubleValue
-7.439

@<SCITEGIC>MOL_PROPERTY
VdW
SciTegic.value.DoubleValue
0.952

@<SCITEGIC>MOL_PROPERTY
VdW6
SciTegic.value.DoubleValue
-2.120

@<SCITEGIC>MOL_PROPERTY
VdW12
SciTegic.value.DoubleValue
3.072

@<SCITEGIC>MOL_PROPERTY
Bond
SciTegic.value.DoubleValue
0.065

@<SCITEGIC>MOL_PROPERTY
Angle
SciTegic.value.DoubleValue
0.931

@<SCITEGIC>MOL_PROPERTY
Pdih
SciTegic.value.DoubleValue
5.338

@<SCITEGIC>MOL_PROPERTY
Idih
SciTegic.value.DoubleValue
0.000

@<SCITEGIC>MOL_PROPERTY
Tether
SciTegic.value.DoubleValue
0.000

@<TRIPOS>MOLECULE
guest-s16_confgen4.mol2 : confsearch ligand conformer 367
          13          13           1
SMALL
USER_CHARGES
 
@<TRIPOS>ATOM
       1    C1      20.870693   18.484170   22.320233 C.3        1 MOL1        -0.1693
       2    H1      21.493276   19.048037   23.027361 H          1 MOL1         0.0829
       3    H2      21.494832   17.727626   21.829897 H          1 MOL1         0.0829
       4    C2      19.990678   19.366779   21.374767 C.3        1 MOL1        -0.1768
       5    H3      19.630244   18.854451   20.473990 H          1 MOL1         0.0829
       6    H4      20.415471   20.333921   21.084320 H          1 MOL1         0.0829
       7    C3      18.971357   19.398273   22.553405 C.3        1 MOL1         0.1211
       8    H5      19.194180   20.157691   23.315439 H          1 MOL1         0.0786
       9    C4      19.510426   17.978823   22.904701 C.3        1 MOL1        -0.1768
      10    H6      19.042476   17.162550   22.340514 H          1 MOL1         0.0829
      11    H7      19.508117   17.718350   23.968707 H          1 MOL1         0.0829
      12    O1      17.615102   19.451065   22.176129 O.3        1 MOL1        -0.5515
      13    H8      17.445249   20.352644   21.827547 H          1 MOL1         0.3773
@<TRIPOS>BOND
    1     1     2    1
    2     1     3    1
    3     1     4    1
    4     4     5    1
    5     4     6    1
    6     4     7    1
    7     7     8    1
    8     1     9    1
    9     7     9    1
   10     9    10    1
   11     9    11    1
   12     7    12    1
   13    12    13    1
@<TRIPOS>SUBSTRUCTURE
       1 MOL1            1 RESIDUE      1      MOL     
@<SCITEGIC>MOL_PROPERTY
VConf Rank
SciTegic.value.IntegerValue
367

@<SCITEGIC>MOL_PROPERTY
Conf_Id
SciTegic.value.IntegerValue
19

@<SCITEGIC>MOL_PROPERTY
Delta U+W
SciTegic.value.DoubleValue
-0.011

@<SCITEGIC>MOL_PROPERTY
U+W
SciTegic.value.DoubleValue
-3.142

@<SCITEGIC>MOL_PROPERTY
Grad RMS
SciTegic.value.DoubleValue
0.000000

@<SCITEGIC>MOL_PROPERTY
U
SciTegic.value.DoubleValue
-0.154

@<SCITEGIC>MOL_PROPERTY
W
SciTegic.value.DoubleValue
-2.989

@<SCITEGIC>MOL_PROPERTY
W(PB)
SciTegic.value.DoubleValue
-4.588

@<SCITEGIC>MOL_PROPERTY
W(SA)
SciTegic.value.DoubleValue
1.599

@<SCITEGIC>MOL_PROPERTY
Valence
SciTegic.value.DoubleValue
6.334

@<SCITEGIC>MOL_PROPERTY
Coulomb
SciTegic.value.DoubleValue
-7.439

@<SCITEGIC>MOL_PROPERTY
VdW
SciTegic.value.DoubleValue
0.951

@<SCITEGIC>MOL_PROPERTY
VdW6
SciTegic.value.DoubleValue
-2.120

@<SCITEGIC>MOL_PROPERTY
VdW12
SciTegic.value.DoubleValue
3.072

@<SCITEGIC>MOL_PROPERTY
Bond
SciTegic.value.DoubleValue
0.065

@<SCITEGIC>MOL_PROPERTY
Angle
SciTegic.value.DoubleValue
0.930

@<SCITEGIC>MOL_PROPERTY
Pdih
SciTegic.value.DoubleValue
5.339

@<SCITEGIC>MOL_PROPERTY
Idih
SciTegic.value.DoubleValue
0.000

@<SCITEGIC>MOL_PROPERTY
Tether
SciTegic.value.DoubleValue
0.000

@<TRIPOS>MOLECULE
guest-s16_confgen4.mol2 : confsearch ligand conformer 368
          13          13           1
SMALL
USER_CHARGES
 
@<TRIPOS>ATOM
       1    C1      20.150754   19.550864   21.279378 C.3        1 MOL1        -0.1693
       2    H1      20.847305   20.313423   20.911552 H          1 MOL1         0.0829
       3    H2      19.813291   18.944146   20.428955 H          1 MOL1         0.0829
       4    C2      19.000885   20.060477   22.210542 C.3        1 MOL1        -0.1768
       5    H3      19.262972   20.932712   22.821509 H          1 MOL1         0.0829
       6    H4      18.036844   20.249311   21.725402 H          1 MOL1         0.0829
       7    C3      19.128694   18.695658   22.956440 C.3        1 MOL1         0.1211
       8    H5      18.964457   18.749981   24.040362 H          1 MOL1         0.0786
       9    C4      20.626906   18.724247   22.519815 C.3        1 MOL1        -0.1768
      10    H6      21.082208   17.751630   22.302865 H          1 MOL1         0.0829
      11    H7      21.283908   19.272767   23.205707 H          1 MOL1         0.0829
      12    O1      18.365508   17.642010   22.403704 O.3        1 MOL1        -0.5515
      13    H8      18.657955   16.812472   22.837867 H          1 MOL1         0.3773
@<TRIPOS>BOND
    1     1     2    1
    2     1     3    1
    3     1     4    1
    4     4     5    1
    5     4     6    1
    6     4     7    1
    7     7     8    1
    8     1     9    1
    9     7     9    1
   10     9    10    1
   11     9    11    1
   12     7    12    1
   13    12    13    1
@<TRIPOS>SUBSTRUCTURE
       1 MOL1            1 RESIDUE      1      MOL     
@<SCITEGIC>MOL_PROPERTY
VConf Rank
SciTegic.value.IntegerValue
368

@<SCITEGIC>MOL_PROPERTY
Conf_Id
SciTegic.value.IntegerValue
20

@<SCITEGIC>MOL_PROPERTY
Delta U+W
SciTegic.value.DoubleValue
1.030

@<SCITEGIC>MOL_PROPERTY
U+W
SciTegic.value.DoubleValue
-2.101

@<SCITEGIC>MOL_PROPERTY
Grad RMS
SciTegic.value.DoubleValue
0.000000

@<SCITEGIC>MOL_PROPERTY
U
SciTegic.value.DoubleValue
0.841

@<SCITEGIC>MOL_PROPERTY
W
SciTegic.value.DoubleValue
-2.942

@<SCITEGIC>MOL_PROPERTY
W(PB)
SciTegic.value.DoubleValue
-4.530

@<SCITEGIC>MOL_PROPERTY
W(SA)
SciTegic.value.DoubleValue
1.587

@<SCITEGIC>MOL_PROPERTY
Valence
SciTegic.value.DoubleValue
6.736

@<SCITEGIC>MOL_PROPERTY
Coulomb
SciTegic.value.DoubleValue
-7.246

@<SCITEGIC>MOL_PROPERTY
VdW
SciTegic.value.DoubleValue
1.352

@<SCITEGIC>MOL_PROPERTY
VdW6
SciTegic.value.DoubleValue
-2.500

@<SCITEGIC>MOL_PROPERTY
VdW12
SciTegic.value.DoubleValue
3.851

@<SCITEGIC>MOL_PROPERTY
Bond
SciTegic.value.DoubleValue
0.063

@<SCITEGIC>MOL_PROPERTY
Angle
SciTegic.value.DoubleValue
0.687

@<SCITEGIC>MOL_PROPERTY
Pdih
SciTegic.value.DoubleValue
5.986

@<SCITEGIC>MOL_PROPERTY
Idih
SciTegic.value.DoubleValue
0.000

@<SCITEGIC>MOL_PROPERTY
Tether
SciTegic.value.DoubleValue
0.000

@<TRIPOS>MOLECULE
guest-s16_confgen4.mol2 : confsearch ligand conformer 369
          13          13           1
SMALL
USER_CHARGES
 
@<TRIPOS>ATOM
       1    C1      20.814129   18.986751   22.921039 C.3        1 MOL1        -0.1693
       2    H1      21.359678   19.937412   22.986531 H          1 MOL1         0.0829
       3    H2      21.345836   18.236280   23.518118 H          1 MOL1         0.0829
       4    C2      20.420872   18.557080   21.469113 C.3        1 MOL1        -0.1768
       5    H3      21.114842   18.852104   20.674344 H          1 MOL1         0.0829
       6    H4      20.187414   17.491332   21.354802 H          1 MOL1         0.0829
       7    C3      19.181300   19.481783   21.662871 C.3        1 MOL1         0.1211
       8    H5      19.382820   20.542674   21.461391 H          1 MOL1         0.0786
       9    C4      19.273789   19.098121   23.170652 C.3        1 MOL1        -0.1768
      10    H6      18.783944   18.153302   23.436656 H          1 MOL1         0.0829
      11    H7      18.954708   19.870966   23.878599 H          1 MOL1         0.0829
      12    O1      18.008470   19.066349   21.004312 O.3        1 MOL1        -0.5515
      13    H8      17.880799   18.118684   21.219605 H          1 MOL1         0.3773
@<TRIPOS>BOND
    1     1     2    1
    2     1     3    1
    3     1     4    1
    4     4     5    1
    5     4     6    1
    6     4     7    1
    7     7     8    1
    8     1     9    1
    9     7     9    1
   10     9    10    1
   11     9    11    1
   12     7    12    1
   13    12    13    1
@<TRIPOS>SUBSTRUCTURE
       1 MOL1            1 RESIDUE      1      MOL     
@<SCITEGIC>MOL_PROPERTY
VConf Rank
SciTegic.value.IntegerValue
369

@<SCITEGIC>MOL_PROPERTY
Conf_Id
SciTegic.value.IntegerValue
24

@<SCITEGIC>MOL_PROPERTY
Delta U+W
SciTegic.value.DoubleValue
0.356

@<SCITEGIC>MOL_PROPERTY
U+W
SciTegic.value.DoubleValue
-2.775

@<SCITEGIC>MOL_PROPERTY
Grad RMS
SciTegic.value.DoubleValue
0.000000

@<SCITEGIC>MOL_PROPERTY
U
SciTegic.value.DoubleValue
-0.184

@<SCITEGIC>MOL_PROPERTY
W
SciTegic.value.DoubleValue
-2.591

@<SCITEGIC>MOL_PROPERTY
W(PB)
SciTegic.value.DoubleValue
-4.184

@<SCITEGIC>MOL_PROPERTY
W(SA)
SciTegic.value.DoubleValue
1.593

@<SCITEGIC>MOL_PROPERTY
Valence
SciTegic.value.DoubleValue
6.840

@<SCITEGIC>MOL_PROPERTY
Coulomb
SciTegic.value.DoubleValue
-7.916

@<SCITEGIC>MOL_PROPERTY
VdW
SciTegic.value.DoubleValue
0.893

@<SCITEGIC>MOL_PROPERTY
VdW6
SciTegic.value.DoubleValue
-2.167

@<SCITEGIC>MOL_PROPERTY
VdW12
SciTegic.value.DoubleValue
3.060

@<SCITEGIC>MOL_PROPERTY
Bond
SciTegic.value.DoubleValue
0.059

@<SCITEGIC>MOL_PROPERTY
Angle
SciTegic.value.DoubleValue
0.918

@<SCITEGIC>MOL_PROPERTY
Pdih
SciTegic.value.DoubleValue
5.862

@<SCITEGIC>MOL_PROPERTY
Idih
SciTegic.value.DoubleValue
0.000

@<SCITEGIC>MOL_PROPERTY
Tether
SciTegic.value.DoubleValue
0.000

@<TRIPOS>MOLECULE
guest-s16_confgen4.mol2 : confsearch ligand conformer 370
          13          13           1
SMALL
USER_CHARGES
 
@<TRIPOS>ATOM
       1    C1      20.348469   19.275895   21.346987 C.3        1 MOL1        -0.1693
       2    H1      20.656085   20.095133   20.686233 H          1 MOL1         0.0829
       3    H2      20.901146   18.372515   21.059325 H          1 MOL1         0.0829
       4    C2      18.805239   19.077286   21.517666 C.3        1 MOL1        -0.1768
       5    H3      18.217193   19.999074   21.430921 H          1 MOL1         0.0829
       6    H4      18.344097   18.309475   20.886379 H          1 MOL1         0.0829
       7    C3      19.114756   18.655875   22.987565 C.3        1 MOL1         0.1211
       8    H5      18.364066   18.968981   23.724393 H          1 MOL1         0.0786
       9    C4      20.357332   19.593096   22.879775 C.3        1 MOL1        -0.1768
      10    H6      20.149837   20.641352   23.126999 H          1 MOL1         0.0829
      11    H7      21.247156   19.274255   23.434087 H          1 MOL1         0.0829
      12    O1      19.418324   17.288391   23.159495 O.3        1 MOL1        -0.5515
      13    H8      20.088158   17.066642   22.480184 H          1 MOL1         0.3773
@<TRIPOS>BOND
    1     1     2    1
    2     1     3    1
    3     1     4    1
    4     4     5    1
    5     4     6    1
    6     4     7    1
    7     7     8    1
    8     1     9    1
    9     7     9    1
   10     9    10    1
   11     9    11    1
   12     7    12    1
   13    12    13    1
@<TRIPOS>SUBSTRUCTURE
       1 MOL1            1 RESIDUE      1      MOL     
@<SCITEGIC>MOL_PROPERTY
VConf Rank
SciTegic.value.IntegerValue
370

@<SCITEGIC>MOL_PROPERTY
Conf_Id
SciTegic.value.IntegerValue
44

@<SCITEGIC>MOL_PROPERTY
Delta U+W
SciTegic.value.DoubleValue
0.823

@<SCITEGIC>MOL_PROPERTY
U+W
SciTegic.value.DoubleValue
-2.308

@<SCITEGIC>MOL_PROPERTY
Grad RMS
SciTegic.value.DoubleValue
0.000000

@<SCITEGIC>MOL_PROPERTY
U
SciTegic.value.DoubleValue
0.039

@<SCITEGIC>MOL_PROPERTY
W
SciTegic.value.DoubleValue
-2.348

@<SCITEGIC>MOL_PROPERTY
W(PB)
SciTegic.value.DoubleValue
-3.918

@<SCITEGIC>MOL_PROPERTY
W(SA)
SciTegic.value.DoubleValue
1.571

@<SCITEGIC>MOL_PROPERTY
Valence
SciTegic.value.DoubleValue
7.320

@<SCITEGIC>MOL_PROPERTY
Coulomb
SciTegic.value.DoubleValue
-8.530

@<SCITEGIC>MOL_PROPERTY
VdW
SciTegic.value.DoubleValue
1.249

@<SCITEGIC>MOL_PROPERTY
VdW6
SciTegic.value.DoubleValue
-2.615

@<SCITEGIC>MOL_PROPERTY
VdW12
SciTegic.value.DoubleValue
3.864

@<SCITEGIC>MOL_PROPERTY
Bond
SciTegic.value.DoubleValue
0.056

@<SCITEGIC>MOL_PROPERTY
Angle
SciTegic.value.DoubleValue
0.694

@<SCITEGIC>MOL_PROPERTY
Pdih
SciTegic.value.DoubleValue
6.570

@<SCITEGIC>MOL_PROPERTY
Idih
SciTegic.value.DoubleValue
0.000

@<SCITEGIC>MOL_PROPERTY
Tether
SciTegic.value.DoubleValue
0.000

@<TRIPOS>MOLECULE
guest-s16_confgen4.mol2 : confsearch ligand conformer 371
          13          13           1
SMALL
USER_CHARGES
 
@<TRIPOS>ATOM
       1    C1      20.563399   20.003895   22.368893 C.3        1 MOL1        -0.1693
       2    H1      20.364209   20.870287   21.724476 H          1 MOL1         0.0829
       3    H2      21.448121   20.217962   22.980268 H          1 MOL1         0.0829
       4    C2      20.555377   18.624231   21.631484 C.3        1 MOL1        -0.1768
       5    H3      20.903416   18.628923   20.592827 H          1 MOL1         0.0829
       6    H4      21.060671   17.812463   22.169346 H          1 MOL1         0.0829
       7    C3      19.009942   18.665199   21.828460 C.3        1 MOL1         0.1211
       8    H5      18.481539   19.251726   21.064367 H          1 MOL1         0.0786
       9    C4      19.314136   19.457450   23.135747 C.3        1 MOL1        -0.1768
      10    H6      18.565090   20.201096   23.429162 H          1 MOL1         0.0829
      11    H7      19.548385   18.830106   24.004862 H          1 MOL1         0.0829
      12    O1      18.392870   17.412278   22.012728 O.3        1 MOL1        -0.5515
      13    H8      17.465571   17.582292   22.285521 H          1 MOL1         0.3773
@<TRIPOS>BOND
    1     1     2    1
    2     1     3    1
    3     1     4    1
    4     4     5    1
    5     4     6    1
    6     4     7    1
    7     7     8    1
    8     1     9    1
    9     7     9    1
   10     9    10    1
   11     9    11    1
   12     7    12    1
   13    12    13    1
@<TRIPOS>SUBSTRUCTURE
       1 MOL1            1 RESIDUE      1      MOL     
@<SCITEGIC>MOL_PROPERTY
VConf Rank
SciTegic.value.IntegerValue
371

@<SCITEGIC>MOL_PROPERTY
Conf_Id
SciTegic.value.IntegerValue
22

@<SCITEGIC>MOL_PROPERTY
Delta U+W
SciTegic.value.DoubleValue
0.000

@<SCITEGIC>MOL_PROPERTY
U+W
SciTegic.value.DoubleValue
-3.131

@<SCITEGIC>MOL_PROPERTY
Grad RMS
SciTegic.value.DoubleValue
0.000000

@<SCITEGIC>MOL_PROPERTY
U
SciTegic.value.DoubleValue
-0.154

@<SCITEGIC>MOL_PROPERTY
W
SciTegic.value.DoubleValue
-2.978

@<SCITEGIC>MOL_PROPERTY
W(PB)
SciTegic.value.DoubleValue
-4.579

@<SCITEGIC>MOL_PROPERTY
W(SA)
SciTegic.value.DoubleValue
1.601

@<SCITEGIC>MOL_PROPERTY
Valence
SciTegic.value.DoubleValue
6.333

@<SCITEGIC>MOL_PROPERTY
Coulomb
SciTegic.value.DoubleValue
-7.439

@<SCITEGIC>MOL_PROPERTY
VdW
SciTegic.value.DoubleValue
0.952

@<SCITEGIC>MOL_PROPERTY
VdW6
SciTegic.value.DoubleValue
-2.120

@<SCITEGIC>MOL_PROPERTY
VdW12
SciTegic.value.DoubleValue
3.072

@<SCITEGIC>MOL_PROPERTY
Bond
SciTegic.value.DoubleValue
0.065

@<SCITEGIC>MOL_PROPERTY
Angle
SciTegic.value.DoubleValue
0.931

@<SCITEGIC>MOL_PROPERTY
Pdih
SciTegic.value.DoubleValue
5.338

@<SCITEGIC>MOL_PROPERTY
Idih
SciTegic.value.DoubleValue
0.000

@<SCITEGIC>MOL_PROPERTY
Tether
SciTegic.value.DoubleValue
0.000

@<TRIPOS>MOLECULE
guest-s16_confgen4.mol2 : confsearch ligand conformer 372
          13          13           1
SMALL
USER_CHARGES
 
@<TRIPOS>ATOM
       1    C1      20.712756   18.182328   22.123433 C.3        1 MOL1        -0.1693
       2    H1      21.634080   18.768527   22.008887 H          1 MOL1         0.0829
       3    H2      20.963539   17.117431   22.049679 H          1 MOL1         0.0829
       4    C2      19.513952   18.668414   21.243707 C.3        1 MOL1        -0.1768
       5    H3      18.720926   17.924219   21.098530 H          1 MOL1         0.0829
       6    H4      19.773682   19.101304   20.271431 H          1 MOL1         0.0829
       7    C3      19.243204   19.687682   22.391306 C.3        1 MOL1         0.1211
       8    H5      19.858348   20.596248   22.335038 H          1 MOL1         0.0786
       9    C4      19.821367   18.595449   23.340832 C.3        1 MOL1        -0.1768
      10    H6      19.094441   17.836948   23.656807 H          1 MOL1         0.0829
      11    H7      20.351644   18.965313   24.225121 H          1 MOL1         0.0829
      12    O1      17.888726   20.012831   22.601582 O.3        1 MOL1        -0.5515
      13    H8      17.605434   20.577687   21.850657 H          1 MOL1         0.3773
@<TRIPOS>BOND
    1     1     2    1
    2     1     3    1
    3     1     4    1
    4     4     5    1
    5     4     6    1
    6     4     7    1
    7     7     8    1
    8     1     9    1
    9     7     9    1
   10     9    10    1
   11     9    11    1
   12     7    12    1
   13    12    13    1
@<TRIPOS>SUBSTRUCTURE
       1 MOL1            1 RESIDUE      1      MOL     
@<SCITEGIC>MOL_PROPERTY
VConf Rank
SciTegic.value.IntegerValue
372

@<SCITEGIC>MOL_PROPERTY
Conf_Id
SciTegic.value.IntegerValue
19

@<SCITEGIC>MOL_PROPERTY
Delta U+W
SciTegic.value.DoubleValue
-0.011

@<SCITEGIC>MOL_PROPERTY
U+W
SciTegic.value.DoubleValue
-3.142

@<SCITEGIC>MOL_PROPERTY
Grad RMS
SciTegic.value.DoubleValue
0.000000

@<SCITEGIC>MOL_PROPERTY
U
SciTegic.value.DoubleValue
-0.154

@<SCITEGIC>MOL_PROPERTY
W
SciTegic.value.DoubleValue
-2.989

@<SCITEGIC>MOL_PROPERTY
W(PB)
SciTegic.value.DoubleValue
-4.588

@<SCITEGIC>MOL_PROPERTY
W(SA)
SciTegic.value.DoubleValue
1.599

@<SCITEGIC>MOL_PROPERTY
Valence
SciTegic.value.DoubleValue
6.334

@<SCITEGIC>MOL_PROPERTY
Coulomb
SciTegic.value.DoubleValue
-7.439

@<SCITEGIC>MOL_PROPERTY
VdW
SciTegic.value.DoubleValue
0.951

@<SCITEGIC>MOL_PROPERTY
VdW6
SciTegic.value.DoubleValue
-2.120

@<SCITEGIC>MOL_PROPERTY
VdW12
SciTegic.value.DoubleValue
3.072

@<SCITEGIC>MOL_PROPERTY
Bond
SciTegic.value.DoubleValue
0.065

@<SCITEGIC>MOL_PROPERTY
Angle
SciTegic.value.DoubleValue
0.930

@<SCITEGIC>MOL_PROPERTY
Pdih
SciTegic.value.DoubleValue
5.339

@<SCITEGIC>MOL_PROPERTY
Idih
SciTegic.value.DoubleValue
0.000

@<SCITEGIC>MOL_PROPERTY
Tether
SciTegic.value.DoubleValue
0.000

@<TRIPOS>MOLECULE
guest-s16_confgen4.mol2 : confsearch ligand conformer 373
          13          13           1
SMALL
USER_CHARGES
 
@<TRIPOS>ATOM
       1    C1      20.042601   20.203510   22.446335 C.3        1 MOL1        -0.1693
       2    H1      20.929300   20.827854   22.607376 H          1 MOL1         0.0829
       3    H2      19.168664   20.857872   22.331222 H          1 MOL1         0.0829
       4    C2      19.840987   19.021468   23.451870 C.3        1 MOL1        -0.1768
       5    H3      20.771616   18.595837   23.846247 H          1 MOL1         0.0829
       6    H4      19.160633   19.212681   24.289097 H          1 MOL1         0.0829
       7    C3      19.233747   18.229547   22.252058 C.3        1 MOL1         0.1211
       8    H5      19.458165   17.155094   22.253095 H          1 MOL1         0.0786
       9    C4      20.172118   19.092711   21.351779 C.3        1 MOL1        -0.1768
      10    H6      19.783581   19.348235   20.359761 H          1 MOL1         0.0829
      11    H7      21.183658   18.684635   21.236736 H          1 MOL1         0.0829
      12    O1      17.850893   18.434732   22.042876 O.3        1 MOL1        -0.5515
      13    H8      17.625723   18.035519   21.175649 H          1 MOL1         0.3773
@<TRIPOS>BOND
    1     1     2    1
    2     1     3    1
    3     1     4    1
    4     4     5    1
    5     4     6    1
    6     4     7    1
    7     7     8    1
    8     1     9    1
    9     7     9    1
   10     9    10    1
   11     9    11    1
   12     7    12    1
   13    12    13    1
@<TRIPOS>SUBSTRUCTURE
       1 MOL1            1 RESIDUE      1      MOL     
@<SCITEGIC>MOL_PROPERTY
VConf Rank
SciTegic.value.IntegerValue
373

@<SCITEGIC>MOL_PROPERTY
Conf_Id
SciTegic.value.IntegerValue
20

@<SCITEGIC>MOL_PROPERTY
Delta U+W
SciTegic.value.DoubleValue
1.030

@<SCITEGIC>MOL_PROPERTY
U+W
SciTegic.value.DoubleValue
-2.101

@<SCITEGIC>MOL_PROPERTY
Grad RMS
SciTegic.value.DoubleValue
0.000000

@<SCITEGIC>MOL_PROPERTY
U
SciTegic.value.DoubleValue
0.841

@<SCITEGIC>MOL_PROPERTY
W
SciTegic.value.DoubleValue
-2.942

@<SCITEGIC>MOL_PROPERTY
W(PB)
SciTegic.value.DoubleValue
-4.530

@<SCITEGIC>MOL_PROPERTY
W(SA)
SciTegic.value.DoubleValue
1.587

@<SCITEGIC>MOL_PROPERTY
Valence
SciTegic.value.DoubleValue
6.736

@<SCITEGIC>MOL_PROPERTY
Coulomb
SciTegic.value.DoubleValue
-7.246

@<SCITEGIC>MOL_PROPERTY
VdW
SciTegic.value.DoubleValue
1.352

@<SCITEGIC>MOL_PROPERTY
VdW6
SciTegic.value.DoubleValue
-2.500

@<SCITEGIC>MOL_PROPERTY
VdW12
SciTegic.value.DoubleValue
3.851

@<SCITEGIC>MOL_PROPERTY
Bond
SciTegic.value.DoubleValue
0.063

@<SCITEGIC>MOL_PROPERTY
Angle
SciTegic.value.DoubleValue
0.687

@<SCITEGIC>MOL_PROPERTY
Pdih
SciTegic.value.DoubleValue
5.986

@<SCITEGIC>MOL_PROPERTY
Idih
SciTegic.value.DoubleValue
0.000

@<SCITEGIC>MOL_PROPERTY
Tether
SciTegic.value.DoubleValue
0.000

@<TRIPOS>MOLECULE
guest-s16_confgen4.mol2 : confsearch ligand conformer 374
          13          13           1
SMALL
USER_CHARGES
 
@<TRIPOS>ATOM
       1    C1      19.851430   19.426836   21.025730 C.3        1 MOL1        -0.1693
       2    H1      20.857324   19.522939   20.596068 H          1 MOL1         0.0829
       3    H2      19.120909   19.782666   20.289425 H          1 MOL1         0.0829
       4    C2      19.701594   19.998649   22.474155 C.3        1 MOL1        -0.1768
       5    H3      20.326143   20.865291   22.717383 H          1 MOL1         0.0829
       6    H4      18.669189   20.212757   22.776953 H          1 MOL1         0.0829
       7    C3      20.248636   18.617002   22.944211 C.3        1 MOL1         0.1211
       8    H5      21.344267   18.541547   22.919883 H          1 MOL1         0.0786
       9    C4      19.548846   18.037422   21.677903 C.3        1 MOL1        -0.1768
      10    H6      18.482300   17.813172   21.802728 H          1 MOL1         0.0829
      11    H7      20.038496   17.172002   21.217921 H          1 MOL1         0.0829
      12    O1      19.747359   18.155845   24.176231 O.3        1 MOL1        -0.5515
      13    H8      18.772110   18.246709   24.139444 H          1 MOL1         0.3773
@<TRIPOS>BOND
    1     1     2    1
    2     1     3    1
    3     1     4    1
    4     4     5    1
    5     4     6    1
    6     4     7    1
    7     7     8    1
    8     1     9    1
    9     7     9    1
   10     9    10    1
   11     9    11    1
   12     7    12    1
   13    12    13    1
@<TRIPOS>SUBSTRUCTURE
       1 MOL1            1 RESIDUE      1      MOL     
@<SCITEGIC>MOL_PROPERTY
VConf Rank
SciTegic.value.IntegerValue
374

@<SCITEGIC>MOL_PROPERTY
Conf_Id
SciTegic.value.IntegerValue
24

@<SCITEGIC>MOL_PROPERTY
Delta U+W
SciTegic.value.DoubleValue
0.356

@<SCITEGIC>MOL_PROPERTY
U+W
SciTegic.value.DoubleValue
-2.775

@<SCITEGIC>MOL_PROPERTY
Grad RMS
SciTegic.value.DoubleValue
0.000000

@<SCITEGIC>MOL_PROPERTY
U
SciTegic.value.DoubleValue
-0.184

@<SCITEGIC>MOL_PROPERTY
W
SciTegic.value.DoubleValue
-2.591

@<SCITEGIC>MOL_PROPERTY
W(PB)
SciTegic.value.DoubleValue
-4.184

@<SCITEGIC>MOL_PROPERTY
W(SA)
SciTegic.value.DoubleValue
1.593

@<SCITEGIC>MOL_PROPERTY
Valence
SciTegic.value.DoubleValue
6.840

@<SCITEGIC>MOL_PROPERTY
Coulomb
SciTegic.value.DoubleValue
-7.916

@<SCITEGIC>MOL_PROPERTY
VdW
SciTegic.value.DoubleValue
0.893

@<SCITEGIC>MOL_PROPERTY
VdW6
SciTegic.value.DoubleValue
-2.167

@<SCITEGIC>MOL_PROPERTY
VdW12
SciTegic.value.DoubleValue
3.060

@<SCITEGIC>MOL_PROPERTY
Bond
SciTegic.value.DoubleValue
0.059

@<SCITEGIC>MOL_PROPERTY
Angle
SciTegic.value.DoubleValue
0.918

@<SCITEGIC>MOL_PROPERTY
Pdih
SciTegic.value.DoubleValue
5.862

@<SCITEGIC>MOL_PROPERTY
Idih
SciTegic.value.DoubleValue
0.000

@<SCITEGIC>MOL_PROPERTY
Tether
SciTegic.value.DoubleValue
0.000

@<TRIPOS>MOLECULE
guest-s16_confgen4.mol2 : confsearch ligand conformer 375
          13          13           1
SMALL
USER_CHARGES
 
@<TRIPOS>ATOM
       1    C1      20.281053   18.830814   21.260062 C.3        1 MOL1        -0.1693
       2    H1      20.907948   19.313836   20.501071 H          1 MOL1         0.0829
       3    H2      20.174156   17.770606   20.997715 H          1 MOL1         0.0829
       4    C2      18.940995   19.561683   21.606780 C.3        1 MOL1        -0.1768
       5    H3      18.978917   20.652660   21.500256 H          1 MOL1         0.0829
       6    H4      18.043683   19.193129   21.097167 H          1 MOL1         0.0829
       7    C3      19.150789   19.057316   23.068147 C.3        1 MOL1         0.1211
       8    H5      18.821480   19.755523   23.848242 H          1 MOL1         0.0786
       9    C4      20.677329   19.103833   22.749546 C.3        1 MOL1        -0.1768
      10    H6      21.140975   20.082551   22.923209 H          1 MOL1         0.0829
      11    H7      21.291348   18.336760   23.234610 H          1 MOL1         0.0829
      12    O1      18.639712   17.767743   23.328009 O.3        1 MOL1        -0.5515
      13    H8      18.963470   17.191519   22.605195 H          1 MOL1         0.3773
@<TRIPOS>BOND
    1     1     2    1
    2     1     3    1
    3     1     4    1
    4     4     5    1
    5     4     6    1
    6     4     7    1
    7     7     8    1
    8     1     9    1
    9     7     9    1
   10     9    10    1
   11     9    11    1
   12     7    12    1
   13    12    13    1
@<TRIPOS>SUBSTRUCTURE
       1 MOL1            1 RESIDUE      1      MOL     
@<SCITEGIC>MOL_PROPERTY
VConf Rank
SciTegic.value.IntegerValue
375

@<SCITEGIC>MOL_PROPERTY
Conf_Id
SciTegic.value.IntegerValue
44

@<SCITEGIC>MOL_PROPERTY
Delta U+W
SciTegic.value.DoubleValue
0.823

@<SCITEGIC>MOL_PROPERTY
U+W
SciTegic.value.DoubleValue
-2.308

@<SCITEGIC>MOL_PROPERTY
Grad RMS
SciTegic.value.DoubleValue
0.000000

@<SCITEGIC>MOL_PROPERTY
U
SciTegic.value.DoubleValue
0.039

@<SCITEGIC>MOL_PROPERTY
W
SciTegic.value.DoubleValue
-2.348

@<SCITEGIC>MOL_PROPERTY
W(PB)
SciTegic.value.DoubleValue
-3.918

@<SCITEGIC>MOL_PROPERTY
W(SA)
SciTegic.value.DoubleValue
1.571

@<SCITEGIC>MOL_PROPERTY
Valence
SciTegic.value.DoubleValue
7.320

@<SCITEGIC>MOL_PROPERTY
Coulomb
SciTegic.value.DoubleValue
-8.530

@<SCITEGIC>MOL_PROPERTY
VdW
SciTegic.value.DoubleValue
1.249

@<SCITEGIC>MOL_PROPERTY
VdW6
SciTegic.value.DoubleValue
-2.615

@<SCITEGIC>MOL_PROPERTY
VdW12
SciTegic.value.DoubleValue
3.864

@<SCITEGIC>MOL_PROPERTY
Bond
SciTegic.value.DoubleValue
0.056

@<SCITEGIC>MOL_PROPERTY
Angle
SciTegic.value.DoubleValue
0.694

@<SCITEGIC>MOL_PROPERTY
Pdih
SciTegic.value.DoubleValue
6.570

@<SCITEGIC>MOL_PROPERTY
Idih
SciTegic.value.DoubleValue
0.000

@<SCITEGIC>MOL_PROPERTY
Tether
SciTegic.value.DoubleValue
0.000

@<TRIPOS>MOLECULE
guest-s16_confgen4.mol2 : confsearch ligand conformer 376
          13          13           1
SMALL
USER_CHARGES
 
@<TRIPOS>ATOM
       1    C1      19.914508   20.161470   21.593373 C.3        1 MOL1        -0.1693
       2    H1      19.011214   20.741623   21.363007 H          1 MOL1         0.0829
       3    H2      20.789775   20.722996   21.245618 H          1 MOL1         0.0829
       4    C2      19.851308   18.656640   21.170529 C.3        1 MOL1        -0.1768
       5    H3      19.266663   18.430829   20.272107 H          1 MOL1         0.0829
       6    H4      20.826314   18.159999   21.091186 H          1 MOL1         0.0829
       7    C3      19.120806   18.431540   22.528669 C.3        1 MOL1         0.1211
       8    H5      18.044086   18.647162   22.493419 H          1 MOL1         0.0786
       9    C4      19.985958   19.615178   23.057541 C.3        1 MOL1        -0.1768
      10    H6      19.521312   20.239653   23.828454 H          1 MOL1         0.0829
      11    H7      20.991558   19.330972   23.391891 H          1 MOL1         0.0829
      12    O1      19.361910   17.187039   23.143187 O.3        1 MOL1        -0.5515
      13    H8      18.987315   17.232806   24.049161 H          1 MOL1         0.3773
@<TRIPOS>BOND
    1     1     2    1
    2     1     3    1
    3     1     4    1
    4     4     5    1
    5     4     6    1
    6     4     7    1
    7     7     8    1
    8     1     9    1
    9     7     9    1
   10     9    10    1
   11     9    11    1
   12     7    12    1
   13    12    13    1
@<TRIPOS>SUBSTRUCTURE
       1 MOL1            1 RESIDUE      1      MOL     
@<SCITEGIC>MOL_PROPERTY
VConf Rank
SciTegic.value.IntegerValue
376

@<SCITEGIC>MOL_PROPERTY
Conf_Id
SciTegic.value.IntegerValue
22

@<SCITEGIC>MOL_PROPERTY
Delta U+W
SciTegic.value.DoubleValue
0.000

@<SCITEGIC>MOL_PROPERTY
U+W
SciTegic.value.DoubleValue
-3.131

@<SCITEGIC>MOL_PROPERTY
Grad RMS
SciTegic.value.DoubleValue
0.000000

@<SCITEGIC>MOL_PROPERTY
U
SciTegic.value.DoubleValue
-0.154

@<SCITEGIC>MOL_PROPERTY
W
SciTegic.value.DoubleValue
-2.978

@<SCITEGIC>MOL_PROPERTY
W(PB)
SciTegic.value.DoubleValue
-4.579

@<SCITEGIC>MOL_PROPERTY
W(SA)
SciTegic.value.DoubleValue
1.601

@<SCITEGIC>MOL_PROPERTY
Valence
SciTegic.value.DoubleValue
6.333

@<SCITEGIC>MOL_PROPERTY
Coulomb
SciTegic.value.DoubleValue
-7.439

@<SCITEGIC>MOL_PROPERTY
VdW
SciTegic.value.DoubleValue
0.952

@<SCITEGIC>MOL_PROPERTY
VdW6
SciTegic.value.DoubleValue
-2.120

@<SCITEGIC>MOL_PROPERTY
VdW12
SciTegic.value.DoubleValue
3.072

@<SCITEGIC>MOL_PROPERTY
Bond
SciTegic.value.DoubleValue
0.065

@<SCITEGIC>MOL_PROPERTY
Angle
SciTegic.value.DoubleValue
0.931

@<SCITEGIC>MOL_PROPERTY
Pdih
SciTegic.value.DoubleValue
5.338

@<SCITEGIC>MOL_PROPERTY
Idih
SciTegic.value.DoubleValue
0.000

@<SCITEGIC>MOL_PROPERTY
Tether
SciTegic.value.DoubleValue
0.000

@<TRIPOS>MOLECULE
guest-s16_confgen4.mol2 : confsearch ligand conformer 377
          13          13           1
SMALL
USER_CHARGES
 
@<TRIPOS>ATOM
       1    C1      19.619488   19.522698   23.422715 C.3        1 MOL1        -0.1693
       2    H1      19.083122   18.956210   24.195366 H          1 MOL1         0.0829
       3    H2      19.957306   20.471973   23.855258 H          1 MOL1         0.0829
       4    C2      18.878191   19.619035   22.048478 C.3        1 MOL1        -0.1768
       5    H3      19.226872   20.429015   21.395679 H          1 MOL1         0.0829
       6    H4      17.783887   19.647267   22.091797 H          1 MOL1         0.0829
       7    C3      19.511042   18.226890   21.747438 C.3        1 MOL1         0.1211
       8    H5      18.950541   17.381578   22.169751 H          1 MOL1         0.0786
       9    C4      20.697115   18.702553   22.639525 C.3        1 MOL1        -0.1768
      10    H6      21.445335   19.309623   22.114912 H          1 MOL1         0.0829
      11    H7      21.212743   17.918214   23.204238 H          1 MOL1         0.0829
      12    O1      19.831119   17.989768   20.396189 O.3        1 MOL1        -0.5515
      13    H8      18.985340   17.859557   19.915662 H          1 MOL1         0.3773
@<TRIPOS>BOND
    1     1     2    1
    2     1     3    1
    3     1     4    1
    4     4     5    1
    5     4     6    1
    6     4     7    1
    7     7     8    1
    8     1     9    1
    9     7     9    1
   10     9    10    1
   11     9    11    1
   12     7    12    1
   13    12    13    1
@<TRIPOS>SUBSTRUCTURE
       1 MOL1            1 RESIDUE      1      MOL     
@<SCITEGIC>MOL_PROPERTY
VConf Rank
SciTegic.value.IntegerValue
377

@<SCITEGIC>MOL_PROPERTY
Conf_Id
SciTegic.value.IntegerValue
19

@<SCITEGIC>MOL_PROPERTY
Delta U+W
SciTegic.value.DoubleValue
-0.011

@<SCITEGIC>MOL_PROPERTY
U+W
SciTegic.value.DoubleValue
-3.142

@<SCITEGIC>MOL_PROPERTY
Grad RMS
SciTegic.value.DoubleValue
0.000000

@<SCITEGIC>MOL_PROPERTY
U
SciTegic.value.DoubleValue
-0.154

@<SCITEGIC>MOL_PROPERTY
W
SciTegic.value.DoubleValue
-2.989

@<SCITEGIC>MOL_PROPERTY
W(PB)
SciTegic.value.DoubleValue
-4.588

@<SCITEGIC>MOL_PROPERTY
W(SA)
SciTegic.value.DoubleValue
1.599

@<SCITEGIC>MOL_PROPERTY
Valence
SciTegic.value.DoubleValue
6.334

@<SCITEGIC>MOL_PROPERTY
Coulomb
SciTegic.value.DoubleValue
-7.439

@<SCITEGIC>MOL_PROPERTY
VdW
SciTegic.value.DoubleValue
0.951

@<SCITEGIC>MOL_PROPERTY
VdW6
SciTegic.value.DoubleValue
-2.120

@<SCITEGIC>MOL_PROPERTY
VdW12
SciTegic.value.DoubleValue
3.072

@<SCITEGIC>MOL_PROPERTY
Bond
SciTegic.value.DoubleValue
0.065

@<SCITEGIC>MOL_PROPERTY
Angle
SciTegic.value.DoubleValue
0.930

@<SCITEGIC>MOL_PROPERTY
Pdih
SciTegic.value.DoubleValue
5.339

@<SCITEGIC>MOL_PROPERTY
Idih
SciTegic.value.DoubleValue
0.000

@<SCITEGIC>MOL_PROPERTY
Tether
SciTegic.value.DoubleValue
0.000

@<TRIPOS>MOLECULE
guest-s16_confgen4.mol2 : confsearch ligand conformer 378
          13          13           1
SMALL
USER_CHARGES
 
@<TRIPOS>ATOM
       1    C1      19.260761   17.912479   22.003247 C.3        1 MOL1        -0.1693
       2    H1      19.563769   16.942978   21.590657 H          1 MOL1         0.0829
       3    H2      18.229271   17.830985   22.370119 H          1 MOL1         0.0829
       4    C2      19.531798   19.160603   21.098982 C.3        1 MOL1        -0.1768
       5    H3      20.410280   19.069293   20.448829 H          1 MOL1         0.0829
       6    H4      18.685923   19.512090   20.497862 H          1 MOL1         0.0829
       7    C3      19.794739   19.944072   22.422790 C.3        1 MOL1         0.1211
       8    H5      20.582141   20.705744   22.354483 H          1 MOL1         0.0786
       9    C4      20.258880   18.574569   23.010270 C.3        1 MOL1        -0.1768
      10    H6      20.047699   18.411903   24.072952 H          1 MOL1         0.0829
      11    H7      21.314037   18.340560   22.823567 H          1 MOL1         0.0829
      12    O1      18.641410   20.493454   23.027897 O.3        1 MOL1        -0.5515
      13    H8      18.900978   20.800967   23.922445 H          1 MOL1         0.3773
@<TRIPOS>BOND
    1     1     2    1
    2     1     3    1
    3     1     4    1
    4     4     5    1
    5     4     6    1
    6     4     7    1
    7     7     8    1
    8     1     9    1
    9     7     9    1
   10     9    10    1
   11     9    11    1
   12     7    12    1
   13    12    13    1
@<TRIPOS>SUBSTRUCTURE
       1 MOL1            1 RESIDUE      1      MOL     
@<SCITEGIC>MOL_PROPERTY
VConf Rank
SciTegic.value.IntegerValue
378

@<SCITEGIC>MOL_PROPERTY
Conf_Id
SciTegic.value.IntegerValue
20

@<SCITEGIC>MOL_PROPERTY
Delta U+W
SciTegic.value.DoubleValue
1.030

@<SCITEGIC>MOL_PROPERTY
U+W
SciTegic.value.DoubleValue
-2.101

@<SCITEGIC>MOL_PROPERTY
Grad RMS
SciTegic.value.DoubleValue
0.000000

@<SCITEGIC>MOL_PROPERTY
U
SciTegic.value.DoubleValue
0.841

@<SCITEGIC>MOL_PROPERTY
W
SciTegic.value.DoubleValue
-2.942

@<SCITEGIC>MOL_PROPERTY
W(PB)
SciTegic.value.DoubleValue
-4.530

@<SCITEGIC>MOL_PROPERTY
W(SA)
SciTegic.value.DoubleValue
1.587

@<SCITEGIC>MOL_PROPERTY
Valence
SciTegic.value.DoubleValue
6.736

@<SCITEGIC>MOL_PROPERTY
Coulomb
SciTegic.value.DoubleValue
-7.246

@<SCITEGIC>MOL_PROPERTY
VdW
SciTegic.value.DoubleValue
1.352

@<SCITEGIC>MOL_PROPERTY
VdW6
SciTegic.value.DoubleValue
-2.500

@<SCITEGIC>MOL_PROPERTY
VdW12
SciTegic.value.DoubleValue
3.851

@<SCITEGIC>MOL_PROPERTY
Bond
SciTegic.value.DoubleValue
0.063

@<SCITEGIC>MOL_PROPERTY
Angle
SciTegic.value.DoubleValue
0.687

@<SCITEGIC>MOL_PROPERTY
Pdih
SciTegic.value.DoubleValue
5.986

@<SCITEGIC>MOL_PROPERTY
Idih
SciTegic.value.DoubleValue
0.000

@<SCITEGIC>MOL_PROPERTY
Tether
SciTegic.value.DoubleValue
0.000

@<TRIPOS>MOLECULE
guest-s16_confgen4.mol2 : confsearch ligand conformer 379
          13          13           1
SMALL
USER_CHARGES
 
@<TRIPOS>ATOM
       1    C1      18.849454   18.202816   22.735908 C.3        1 MOL1        -0.1693
       2    H1      18.937359   17.117710   22.592778 H          1 MOL1         0.0829
       3    H2      17.953266   18.405397   23.334431 H          1 MOL1         0.0829
       4    C2      19.009892   19.049789   21.430438 C.3        1 MOL1        -0.1768
       5    H3      18.651906   18.583319   20.506022 H          1 MOL1         0.0829
       6    H4      18.603056   20.066690   21.491959 H          1 MOL1         0.0829
       7    C3      20.542081   18.940495   21.694267 C.3        1 MOL1         0.1211
       8    H5      20.990086   18.006359   21.329063 H          1 MOL1         0.0786
       9    C4      20.163846   18.909085   23.205924 C.3        1 MOL1        -0.1768
      10    H6      20.014933   19.894537   23.664289 H          1 MOL1         0.0829
      11    H7      20.824978   18.318354   23.849533 H          1 MOL1         0.0829
      12    O1      21.306453   20.049713   21.285379 O.3        1 MOL1        -0.5515
      13    H8      20.861293   20.848575   21.638043 H          1 MOL1         0.3773
@<TRIPOS>BOND
    1     1     2    1
    2     1     3    1
    3     1     4    1
    4     4     5    1
    5     4     6    1
    6     4     7    1
    7     7     8    1
    8     1     9    1
    9     7     9    1
   10     9    10    1
   11     9    11    1
   12     7    12    1
   13    12    13    1
@<TRIPOS>SUBSTRUCTURE
       1 MOL1            1 RESIDUE      1      MOL     
@<SCITEGIC>MOL_PROPERTY
VConf Rank
SciTegic.value.IntegerValue
379

@<SCITEGIC>MOL_PROPERTY
Conf_Id
SciTegic.value.IntegerValue
24

@<SCITEGIC>MOL_PROPERTY
Delta U+W
SciTegic.value.DoubleValue
0.356

@<SCITEGIC>MOL_PROPERTY
U+W
SciTegic.value.DoubleValue
-2.775

@<SCITEGIC>MOL_PROPERTY
Grad RMS
SciTegic.value.DoubleValue
0.000000

@<SCITEGIC>MOL_PROPERTY
U
SciTegic.value.DoubleValue
-0.184

@<SCITEGIC>MOL_PROPERTY
W
SciTegic.value.DoubleValue
-2.591

@<SCITEGIC>MOL_PROPERTY
W(PB)
SciTegic.value.DoubleValue
-4.184

@<SCITEGIC>MOL_PROPERTY
W(SA)
SciTegic.value.DoubleValue
1.593

@<SCITEGIC>MOL_PROPERTY
Valence
SciTegic.value.DoubleValue
6.840

@<SCITEGIC>MOL_PROPERTY
Coulomb
SciTegic.value.DoubleValue
-7.916

@<SCITEGIC>MOL_PROPERTY
VdW
SciTegic.value.DoubleValue
0.893

@<SCITEGIC>MOL_PROPERTY
VdW6
SciTegic.value.DoubleValue
-2.167

@<SCITEGIC>MOL_PROPERTY
VdW12
SciTegic.value.DoubleValue
3.060

@<SCITEGIC>MOL_PROPERTY
Bond
SciTegic.value.DoubleValue
0.059

@<SCITEGIC>MOL_PROPERTY
Angle
SciTegic.value.DoubleValue
0.918

@<SCITEGIC>MOL_PROPERTY
Pdih
SciTegic.value.DoubleValue
5.862

@<SCITEGIC>MOL_PROPERTY
Idih
SciTegic.value.DoubleValue
0.000

@<SCITEGIC>MOL_PROPERTY
Tether
SciTegic.value.DoubleValue
0.000

@<TRIPOS>MOLECULE
guest-s16_confgen4.mol2 : confsearch ligand conformer 380
          13          13           1
SMALL
USER_CHARGES
 
@<TRIPOS>ATOM
       1    C1      20.667984   19.235293   21.713455 C.3        1 MOL1        -0.1693
       2    H1      21.504205   18.872723   21.103823 H          1 MOL1         0.0829
       3    H2      20.839914   20.294651   21.942575 H          1 MOL1         0.0829
       4    C2      20.284660   18.348966   22.945374 C.3        1 MOL1        -0.1768
       5    H3      20.477079   17.277617   22.810465 H          1 MOL1         0.0829
       6    H4      20.699813   18.658316   23.911117 H          1 MOL1         0.0829
       7    C3      18.807345   18.769527   22.672129 C.3        1 MOL1         0.1211
       8    H5      18.061881   17.988878   22.870519 H          1 MOL1         0.0786
       9    C4      19.235587   18.901539   21.177747 C.3        1 MOL1        -0.1768
      10    H6      19.170790   17.965673   20.609442 H          1 MOL1         0.0829
      11    H7      18.737614   19.691855   20.604920 H          1 MOL1         0.0829
      12    O1      18.413756   19.978939   23.283797 O.3        1 MOL1        -0.5515
      13    H8      19.111229   20.633996   23.074646 H          1 MOL1         0.3773
@<TRIPOS>BOND
    1     1     2    1
    2     1     3    1
    3     1     4    1
    4     4     5    1
    5     4     6    1
    6     4     7    1
    7     7     8    1
    8     1     9    1
    9     7     9    1
   10     9    10    1
   11     9    11    1
   12     7    12    1
   13    12    13    1
@<TRIPOS>SUBSTRUCTURE
       1 MOL1            1 RESIDUE      1      MOL     
@<SCITEGIC>MOL_PROPERTY
VConf Rank
SciTegic.value.IntegerValue
380

@<SCITEGIC>MOL_PROPERTY
Conf_Id
SciTegic.value.IntegerValue
44

@<SCITEGIC>MOL_PROPERTY
Delta U+W
SciTegic.value.DoubleValue
0.823

@<SCITEGIC>MOL_PROPERTY
U+W
SciTegic.value.DoubleValue
-2.308

@<SCITEGIC>MOL_PROPERTY
Grad RMS
SciTegic.value.DoubleValue
0.000000

@<SCITEGIC>MOL_PROPERTY
U
SciTegic.value.DoubleValue
0.039

@<SCITEGIC>MOL_PROPERTY
W
SciTegic.value.DoubleValue
-2.348

@<SCITEGIC>MOL_PROPERTY
W(PB)
SciTegic.value.DoubleValue
-3.918

@<SCITEGIC>MOL_PROPERTY
W(SA)
SciTegic.value.DoubleValue
1.571

@<SCITEGIC>MOL_PROPERTY
Valence
SciTegic.value.DoubleValue
7.320

@<SCITEGIC>MOL_PROPERTY
Coulomb
SciTegic.value.DoubleValue
-8.530

@<SCITEGIC>MOL_PROPERTY
VdW
SciTegic.value.DoubleValue
1.249

@<SCITEGIC>MOL_PROPERTY
VdW6
SciTegic.value.DoubleValue
-2.615

@<SCITEGIC>MOL_PROPERTY
VdW12
SciTegic.value.DoubleValue
3.864

@<SCITEGIC>MOL_PROPERTY
Bond
SciTegic.value.DoubleValue
0.056

@<SCITEGIC>MOL_PROPERTY
Angle
SciTegic.value.DoubleValue
0.694

@<SCITEGIC>MOL_PROPERTY
Pdih
SciTegic.value.DoubleValue
6.570

@<SCITEGIC>MOL_PROPERTY
Idih
SciTegic.value.DoubleValue
0.000

@<SCITEGIC>MOL_PROPERTY
Tether
SciTegic.value.DoubleValue
0.000

@<TRIPOS>MOLECULE
guest-s16_confgen4.mol2 : confsearch ligand conformer 381
          13          13           1
SMALL
USER_CHARGES
 
@<TRIPOS>ATOM
       1    C1      19.378024   18.620211   21.032157 C.3        1 MOL1        -0.1693
       2    H1      20.155599   17.979196   20.596195 H          1 MOL1         0.0829
       3    H2      18.539894   18.682707   20.327906 H          1 MOL1         0.0829
       4    C2      19.896561   19.980313   21.605349 C.3        1 MOL1        -0.1768
       5    H3      20.752820   20.427769   21.089050 H          1 MOL1         0.0829
       6    H4      19.123954   20.747824   21.737979 H          1 MOL1         0.0829
       7    C3      20.230144   19.170602   22.894511 C.3        1 MOL1         0.1211
       8    H5      21.193597   18.644442   22.850067 H          1 MOL1         0.0786
       9    C4      19.006654   18.283206   22.513994 C.3        1 MOL1        -0.1768
      10    H6      19.074325   17.227853   22.800039 H          1 MOL1         0.0829
      11    H7      18.037440   18.677273   22.844341 H          1 MOL1         0.0829
      12    O1      20.104904   19.883761   24.102926 O.3        1 MOL1        -0.5515
      13    H8      20.178811   19.232751   24.833629 H          1 MOL1         0.3773
@<TRIPOS>BOND
    1     1     2    1
    2     1     3    1
    3     1     4    1
    4     4     5    1
    5     4     6    1
    6     4     7    1
    7     7     8    1
    8     1     9    1
    9     7     9    1
   10     9    10    1
   11     9    11    1
   12     7    12    1
   13    12    13    1
@<TRIPOS>SUBSTRUCTURE
       1 MOL1            1 RESIDUE      1      MOL     
@<SCITEGIC>MOL_PROPERTY
VConf Rank
SciTegic.value.IntegerValue
381

@<SCITEGIC>MOL_PROPERTY
Conf_Id
SciTegic.value.IntegerValue
22

@<SCITEGIC>MOL_PROPERTY
Delta U+W
SciTegic.value.DoubleValue
0.000

@<SCITEGIC>MOL_PROPERTY
U+W
SciTegic.value.DoubleValue
-3.131

@<SCITEGIC>MOL_PROPERTY
Grad RMS
SciTegic.value.DoubleValue
0.000000

@<SCITEGIC>MOL_PROPERTY
U
SciTegic.value.DoubleValue
-0.154

@<SCITEGIC>MOL_PROPERTY
W
SciTegic.value.DoubleValue
-2.978

@<SCITEGIC>MOL_PROPERTY
W(PB)
SciTegic.value.DoubleValue
-4.579

@<SCITEGIC>MOL_PROPERTY
W(SA)
SciTegic.value.DoubleValue
1.601

@<SCITEGIC>MOL_PROPERTY
Valence
SciTegic.value.DoubleValue
6.333

@<SCITEGIC>MOL_PROPERTY
Coulomb
SciTegic.value.DoubleValue
-7.439

@<SCITEGIC>MOL_PROPERTY
VdW
SciTegic.value.DoubleValue
0.952

@<SCITEGIC>MOL_PROPERTY
VdW6
SciTegic.value.DoubleValue
-2.120

@<SCITEGIC>MOL_PROPERTY
VdW12
SciTegic.value.DoubleValue
3.072

@<SCITEGIC>MOL_PROPERTY
Bond
SciTegic.value.DoubleValue
0.065

@<SCITEGIC>MOL_PROPERTY
Angle
SciTegic.value.DoubleValue
0.931

@<SCITEGIC>MOL_PROPERTY
Pdih
SciTegic.value.DoubleValue
5.338

@<SCITEGIC>MOL_PROPERTY
Idih
SciTegic.value.DoubleValue
0.000

@<SCITEGIC>MOL_PROPERTY
Tether
SciTegic.value.DoubleValue
0.000

@<TRIPOS>MOLECULE
guest-s16_confgen4.mol2 : confsearch ligand conformer 382
          13          13           1
SMALL
USER_CHARGES
 
@<TRIPOS>ATOM
       1    C1      18.456381   18.344875   22.413191 C.3        1 MOL1        -0.1693
       2    H1      17.810581   18.864174   23.133508 H          1 MOL1         0.0829
       3    H2      17.941719   17.439332   22.070478 H          1 MOL1         0.0829
       4    C2      19.938356   18.158537   22.878333 C.3        1 MOL1        -0.1768
       5    H3      20.492918   17.379671   22.340167 H          1 MOL1         0.0829
       6    H4      20.092486   18.021678   23.954292 H          1 MOL1         0.0829
       7    C3      20.161759   19.603220   22.337801 C.3        1 MOL1         0.1211
       8    H5      19.873091   20.393324   23.044532 H          1 MOL1         0.0786
       9    C4      19.056359   19.259105   21.294480 C.3        1 MOL1        -0.1768
      10    H6      19.418846   18.723558   20.408265 H          1 MOL1         0.0829
      11    H7      18.431587   20.097725   20.968384 H          1 MOL1         0.0829
      12    O1      21.439504   19.854926   21.800623 O.3        1 MOL1        -0.5515
      13    H8      22.068512   19.894255   22.552957 H          1 MOL1         0.3773
@<TRIPOS>BOND
    1     1     2    1
    2     1     3    1
    3     1     4    1
    4     4     5    1
    5     4     6    1
    6     4     7    1
    7     7     8    1
    8     1     9    1
    9     7     9    1
   10     9    10    1
   11     9    11    1
   12     7    12    1
   13    12    13    1
@<TRIPOS>SUBSTRUCTURE
       1 MOL1            1 RESIDUE      1      MOL     
@<SCITEGIC>MOL_PROPERTY
VConf Rank
SciTegic.value.IntegerValue
382

@<SCITEGIC>MOL_PROPERTY
Conf_Id
SciTegic.value.IntegerValue
19

@<SCITEGIC>MOL_PROPERTY
Delta U+W
SciTegic.value.DoubleValue
-0.011

@<SCITEGIC>MOL_PROPERTY
U+W
SciTegic.value.DoubleValue
-3.142

@<SCITEGIC>MOL_PROPERTY
Grad RMS
SciTegic.value.DoubleValue
0.000000

@<SCITEGIC>MOL_PROPERTY
U
SciTegic.value.DoubleValue
-0.154

@<SCITEGIC>MOL_PROPERTY
W
SciTegic.value.DoubleValue
-2.989

@<SCITEGIC>MOL_PROPERTY
W(PB)
SciTegic.value.DoubleValue
-4.588

@<SCITEGIC>MOL_PROPERTY
W(SA)
SciTegic.value.DoubleValue
1.599

@<SCITEGIC>MOL_PROPERTY
Valence
SciTegic.value.DoubleValue
6.334

@<SCITEGIC>MOL_PROPERTY
Coulomb
SciTegic.value.DoubleValue
-7.439

@<SCITEGIC>MOL_PROPERTY
VdW
SciTegic.value.DoubleValue
0.951

@<SCITEGIC>MOL_PROPERTY
VdW6
SciTegic.value.DoubleValue
-2.120

@<SCITEGIC>MOL_PROPERTY
VdW12
SciTegic.value.DoubleValue
3.072

@<SCITEGIC>MOL_PROPERTY
Bond
SciTegic.value.DoubleValue
0.065

@<SCITEGIC>MOL_PROPERTY
Angle
SciTegic.value.DoubleValue
0.930

@<SCITEGIC>MOL_PROPERTY
Pdih
SciTegic.value.DoubleValue
5.339

@<SCITEGIC>MOL_PROPERTY
Idih
SciTegic.value.DoubleValue
0.000

@<SCITEGIC>MOL_PROPERTY
Tether
SciTegic.value.DoubleValue
0.000

@<TRIPOS>MOLECULE
guest-s16_confgen4.mol2 : confsearch ligand conformer 383
          13          13           1
SMALL
USER_CHARGES
 
@<TRIPOS>ATOM
       1    C1      19.061857   19.749391   23.121861 C.3        1 MOL1        -0.1693
       2    H1      18.561230   20.706846   23.307954 H          1 MOL1         0.0829
       3    H2      18.982594   19.130386   24.025054 H          1 MOL1         0.0829
       4    C2      20.502112   19.831956   22.515380 C.3        1 MOL1        -0.1768
       5    H3      20.672979   20.698340   21.865035 H          1 MOL1         0.0829
       6    H4      21.329807   19.761319   23.229750 H          1 MOL1         0.0829
       7    C3      20.152660   18.517333   21.750475 C.3        1 MOL1         0.1211
       8    H5      20.583912   18.445885   20.743634 H          1 MOL1         0.0786
       9    C4      18.674411   19.016243   21.794804 C.3        1 MOL1        -0.1768
      10    H6      17.907781   18.238402   21.881943 H          1 MOL1         0.0829
      11    H7      18.401583   19.685306   20.969641 H          1 MOL1         0.0829
      12    O1      20.402877   17.326352   22.469572 O.3        1 MOL1        -0.5515
      13    H8      19.987885   16.591939   21.968997 H          1 MOL1         0.3773
@<TRIPOS>BOND
    1     1     2    1
    2     1     3    1
    3     1     4    1
    4     4     5    1
    5     4     6    1
    6     4     7    1
    7     7     8    1
    8     1     9    1
    9     7     9    1
   10     9    10    1
   11     9    11    1
   12     7    12    1
   13    12    13    1
@<TRIPOS>SUBSTRUCTURE
       1 MOL1            1 RESIDUE      1      MOL     
@<SCITEGIC>MOL_PROPERTY
VConf Rank
SciTegic.value.IntegerValue
383

@<SCITEGIC>MOL_PROPERTY
Conf_Id
SciTegic.value.IntegerValue
20

@<SCITEGIC>MOL_PROPERTY
Delta U+W
SciTegic.value.DoubleValue
1.030

@<SCITEGIC>MOL_PROPERTY
U+W
SciTegic.value.DoubleValue
-2.101

@<SCITEGIC>MOL_PROPERTY
Grad RMS
SciTegic.value.DoubleValue
0.000000

@<SCITEGIC>MOL_PROPERTY
U
SciTegic.value.DoubleValue
0.841

@<SCITEGIC>MOL_PROPERTY
W
SciTegic.value.DoubleValue
-2.942

@<SCITEGIC>MOL_PROPERTY
W(PB)
SciTegic.value.DoubleValue
-4.530

@<SCITEGIC>MOL_PROPERTY
W(SA)
SciTegic.value.DoubleValue
1.587

@<SCITEGIC>MOL_PROPERTY
Valence
SciTegic.value.DoubleValue
6.736

@<SCITEGIC>MOL_PROPERTY
Coulomb
SciTegic.value.DoubleValue
-7.246

@<SCITEGIC>MOL_PROPERTY
VdW
SciTegic.value.DoubleValue
1.352

@<SCITEGIC>MOL_PROPERTY
VdW6
SciTegic.value.DoubleValue
-2.500

@<SCITEGIC>MOL_PROPERTY
VdW12
SciTegic.value.DoubleValue
3.851

@<SCITEGIC>MOL_PROPERTY
Bond
SciTegic.value.DoubleValue
0.063

@<SCITEGIC>MOL_PROPERTY
Angle
SciTegic.value.DoubleValue
0.687

@<SCITEGIC>MOL_PROPERTY
Pdih
SciTegic.value.DoubleValue
5.986

@<SCITEGIC>MOL_PROPERTY
Idih
SciTegic.value.DoubleValue
0.000

@<SCITEGIC>MOL_PROPERTY
Tether
SciTegic.value.DoubleValue
0.000

@<TRIPOS>MOLECULE
guest-s16_confgen4.mol2 : confsearch ligand conformer 384
          13          13           1
SMALL
USER_CHARGES
 
@<TRIPOS>ATOM
       1    C1      19.465308   20.098691   21.710543 C.3        1 MOL1        -0.1693
       2    H1      18.821008   20.127823   20.821894 H          1 MOL1         0.0829
       3    H2      19.736269   21.126449   21.980199 H          1 MOL1         0.0829
       4    C2      20.645979   19.075590   21.629060 C.3        1 MOL1        -0.1768
       5    H3      21.070002   18.907002   20.633030 H          1 MOL1         0.0829
       6    H4      21.465608   19.265854   22.332903 H          1 MOL1         0.0829
       7    C3      19.603191   18.020908   22.108011 C.3        1 MOL1         0.1211
       8    H5      18.984762   17.608731   21.299092 H          1 MOL1         0.0786
       9    C4      18.932762   19.200297   22.875293 C.3        1 MOL1        -0.1768
      10    H6      19.369466   19.418434   23.857685 H          1 MOL1         0.0829
      11    H7      17.843755   19.141841   22.979878 H          1 MOL1         0.0829
      12    O1      20.115507   16.987932   22.915668 O.3        1 MOL1        -0.5515
      13    H8      20.654986   17.413286   23.614778 H          1 MOL1         0.3773
@<TRIPOS>BOND
    1     1     2    1
    2     1     3    1
    3     1     4    1
    4     4     5    1
    5     4     6    1
    6     4     7    1
    7     7     8    1
    8     1     9    1
    9     7     9    1
   10     9    10    1
   11     9    11    1
   12     7    12    1
   13    12    13    1
@<TRIPOS>SUBSTRUCTURE
       1 MOL1            1 RESIDUE      1      MOL     
@<SCITEGIC>MOL_PROPERTY
VConf Rank
SciTegic.value.IntegerValue
384

@<SCITEGIC>MOL_PROPERTY
Conf_Id
SciTegic.value.IntegerValue
24

@<SCITEGIC>MOL_PROPERTY
Delta U+W
SciTegic.value.DoubleValue
0.356

@<SCITEGIC>MOL_PROPERTY
U+W
SciTegic.value.DoubleValue
-2.775

@<SCITEGIC>MOL_PROPERTY
Grad RMS
SciTegic.value.DoubleValue
0.000000

@<SCITEGIC>MOL_PROPERTY
U
SciTegic.value.DoubleValue
-0.184

@<SCITEGIC>MOL_PROPERTY
W
SciTegic.value.DoubleValue
-2.591

@<SCITEGIC>MOL_PROPERTY
W(PB)
SciTegic.value.DoubleValue
-4.184

@<SCITEGIC>MOL_PROPERTY
W(SA)
SciTegic.value.DoubleValue
1.593

@<SCITEGIC>MOL_PROPERTY
Valence
SciTegic.value.DoubleValue
6.840

@<SCITEGIC>MOL_PROPERTY
Coulomb
SciTegic.value.DoubleValue
-7.916

@<SCITEGIC>MOL_PROPERTY
VdW
SciTegic.value.DoubleValue
0.893

@<SCITEGIC>MOL_PROPERTY
VdW6
SciTegic.value.DoubleValue
-2.167

@<SCITEGIC>MOL_PROPERTY
VdW12
SciTegic.value.DoubleValue
3.060

@<SCITEGIC>MOL_PROPERTY
Bond
SciTegic.value.DoubleValue
0.059

@<SCITEGIC>MOL_PROPERTY
Angle
SciTegic.value.DoubleValue
0.918

@<SCITEGIC>MOL_PROPERTY
Pdih
SciTegic.value.DoubleValue
5.862

@<SCITEGIC>MOL_PROPERTY
Idih
SciTegic.value.DoubleValue
0.000

@<SCITEGIC>MOL_PROPERTY
Tether
SciTegic.value.DoubleValue
0.000

@<TRIPOS>MOLECULE
guest-s16_confgen4.mol2 : confsearch ligand conformer 385
          13          13           1
SMALL
USER_CHARGES
 
@<TRIPOS>ATOM
       1    C1      20.021441   18.219886   21.438067 C.3        1 MOL1        -0.1693
       2    H1      19.697923   17.492260   20.684231 H          1 MOL1         0.0829
       3    H2      21.118558   18.231053   21.460532 H          1 MOL1         0.0829
       4    C2      19.335296   18.103428   22.840129 C.3        1 MOL1        -0.1768
       5    H3      18.307266   17.722181   22.811480 H          1 MOL1         0.0829
       6    H4      19.890706   17.549774   23.605437 H          1 MOL1         0.0829
       7    C3      19.435420   19.658476   22.916245 C.3        1 MOL1         0.1211
       8    H5      18.591016   20.150621   23.415506 H          1 MOL1         0.0786
       9    C4      19.350081   19.631662   21.358685 C.3        1 MOL1        -0.1768
      10    H6      18.325677   19.625115   20.966807 H          1 MOL1         0.0829
      11    H7      19.918360   20.408203   20.834520 H          1 MOL1         0.0829
      12    O1      20.653689   20.148231   23.433632 O.3        1 MOL1        -0.5515
      13    H8      21.366426   19.677083   22.954739 H          1 MOL1         0.3773
@<TRIPOS>BOND
    1     1     2    1
    2     1     3    1
    3     1     4    1
    4     4     5    1
    5     4     6    1
    6     4     7    1
    7     7     8    1
    8     1     9    1
    9     7     9    1
   10     9    10    1
   11     9    11    1
   12     7    12    1
   13    12    13    1
@<TRIPOS>SUBSTRUCTURE
       1 MOL1            1 RESIDUE      1      MOL     
@<SCITEGIC>MOL_PROPERTY
VConf Rank
SciTegic.value.IntegerValue
385

@<SCITEGIC>MOL_PROPERTY
Conf_Id
SciTegic.value.IntegerValue
44

@<SCITEGIC>MOL_PROPERTY
Delta U+W
SciTegic.value.DoubleValue
0.823

@<SCITEGIC>MOL_PROPERTY
U+W
SciTegic.value.DoubleValue
-2.308

@<SCITEGIC>MOL_PROPERTY
Grad RMS
SciTegic.value.DoubleValue
0.000000

@<SCITEGIC>MOL_PROPERTY
U
SciTegic.value.DoubleValue
0.039

@<SCITEGIC>MOL_PROPERTY
W
SciTegic.value.DoubleValue
-2.348

@<SCITEGIC>MOL_PROPERTY
W(PB)
SciTegic.value.DoubleValue
-3.918

@<SCITEGIC>MOL_PROPERTY
W(SA)
SciTegic.value.DoubleValue
1.571

@<SCITEGIC>MOL_PROPERTY
Valence
SciTegic.value.DoubleValue
7.320

@<SCITEGIC>MOL_PROPERTY
Coulomb
SciTegic.value.DoubleValue
-8.530

@<SCITEGIC>MOL_PROPERTY
VdW
SciTegic.value.DoubleValue
1.249

@<SCITEGIC>MOL_PROPERTY
VdW6
SciTegic.value.DoubleValue
-2.615

@<SCITEGIC>MOL_PROPERTY
VdW12
SciTegic.value.DoubleValue
3.864

@<SCITEGIC>MOL_PROPERTY
Bond
SciTegic.value.DoubleValue
0.056

@<SCITEGIC>MOL_PROPERTY
Angle
SciTegic.value.DoubleValue
0.694

@<SCITEGIC>MOL_PROPERTY
Pdih
SciTegic.value.DoubleValue
6.570

@<SCITEGIC>MOL_PROPERTY
Idih
SciTegic.value.DoubleValue
0.000

@<SCITEGIC>MOL_PROPERTY
Tether
SciTegic.value.DoubleValue
0.000

@<TRIPOS>MOLECULE
guest-s16_confgen4.mol2 : confsearch ligand conformer 386
          13          13           1
SMALL
USER_CHARGES
 
@<TRIPOS>ATOM
       1    C1      19.195398   19.213645   23.468822 C.3        1 MOL1        -0.1693
       2    H1      18.905961   18.275483   23.960415 H          1 MOL1         0.0829
       3    H2      19.050699   20.038987   24.176077 H          1 MOL1         0.0829
       4    C2      18.589677   19.418266   22.041048 C.3        1 MOL1        -0.1768
       5    H3      17.594288   18.993133   21.872455 H          1 MOL1         0.0829
       6    H4      18.595704   20.455375   21.683340 H          1 MOL1         0.0829
       7    C3      19.788152   18.556202   21.541697 C.3        1 MOL1         0.1211
       8    H5      19.620776   17.473697   21.626725 H          1 MOL1         0.0786
       9    C4      20.577501   19.170044   22.737238 C.3        1 MOL1        -0.1768
      10    H6      21.341039   18.525859   23.186914 H          1 MOL1         0.0829
      11    H7      21.019757   20.153465   22.534542 H          1 MOL1         0.0829
      12    O1      20.277045   18.887874   20.262821 O.3        1 MOL1        -0.5515
      13    H8      21.116731   18.395878   20.136048 H          1 MOL1         0.3773
@<TRIPOS>BOND
    1     1     2    1
    2     1     3    1
    3     1     4    1
    4     4     5    1
    5     4     6    1
    6     4     7    1
    7     7     8    1
    8     1     9    1
    9     7     9    1
   10     9    10    1
   11     9    11    1
   12     7    12    1
   13    12    13    1
@<TRIPOS>SUBSTRUCTURE
       1 MOL1            1 RESIDUE      1      MOL     
@<SCITEGIC>MOL_PROPERTY
VConf Rank
SciTegic.value.IntegerValue
386

@<SCITEGIC>MOL_PROPERTY
Conf_Id
SciTegic.value.IntegerValue
22

@<SCITEGIC>MOL_PROPERTY
Delta U+W
SciTegic.value.DoubleValue
0.000

@<SCITEGIC>MOL_PROPERTY
U+W
SciTegic.value.DoubleValue
-3.131

@<SCITEGIC>MOL_PROPERTY
Grad RMS
SciTegic.value.DoubleValue
0.000000

@<SCITEGIC>MOL_PROPERTY
U
SciTegic.value.DoubleValue
-0.154

@<SCITEGIC>MOL_PROPERTY
W
SciTegic.value.DoubleValue
-2.978

@<SCITEGIC>MOL_PROPERTY
W(PB)
SciTegic.value.DoubleValue
-4.579

@<SCITEGIC>MOL_PROPERTY
W(SA)
SciTegic.value.DoubleValue
1.601

@<SCITEGIC>MOL_PROPERTY
Valence
SciTegic.value.DoubleValue
6.333

@<SCITEGIC>MOL_PROPERTY
Coulomb
SciTegic.value.DoubleValue
-7.439

@<SCITEGIC>MOL_PROPERTY
VdW
SciTegic.value.DoubleValue
0.952

@<SCITEGIC>MOL_PROPERTY
VdW6
SciTegic.value.DoubleValue
-2.120

@<SCITEGIC>MOL_PROPERTY
VdW12
SciTegic.value.DoubleValue
3.072

@<SCITEGIC>MOL_PROPERTY
Bond
SciTegic.value.DoubleValue
0.065

@<SCITEGIC>MOL_PROPERTY
Angle
SciTegic.value.DoubleValue
0.931

@<SCITEGIC>MOL_PROPERTY
Pdih
SciTegic.value.DoubleValue
5.338

@<SCITEGIC>MOL_PROPERTY
Idih
SciTegic.value.DoubleValue
0.000

@<SCITEGIC>MOL_PROPERTY
Tether
SciTegic.value.DoubleValue
0.000

@<TRIPOS>MOLECULE
guest-s16_confgen4.mol2 : confsearch ligand conformer 387
          13          13           1
SMALL
USER_CHARGES
 
@<TRIPOS>ATOM
       1    C1      20.017247   19.745350   21.287230 C.3        1 MOL1        -0.1693
       2    H1      19.617849   20.762530   21.394062 H          1 MOL1         0.0829
       3    H2      20.598729   19.692909   20.359078 H          1 MOL1         0.0829
       4    C2      18.969846   18.604348   21.507216 C.3        1 MOL1        -0.1768
       5    H3      19.259161   17.630694   21.092381 H          1 MOL1         0.0829
       6    H4      17.942183   18.827313   21.200022 H          1 MOL1         0.0829
       7    C3      19.278984   18.779280   23.024788 C.3        1 MOL1         0.1211
       8    H5      18.722591   19.597838   23.501707 H          1 MOL1         0.0786
       9    C4      20.714503   19.178249   22.567673 C.3        1 MOL1        -0.1768
      10    H6      21.386369   18.329824   22.387800 H          1 MOL1         0.0829
      11    H7      21.230370   19.908169   23.200966 H          1 MOL1         0.0829
      12    O1      19.197593   17.603194   23.795985 O.3        1 MOL1        -0.5515
      13    H8      18.246676   17.374683   23.878101 H          1 MOL1         0.3773
@<TRIPOS>BOND
    1     1     2    1
    2     1     3    1
    3     1     4    1
    4     4     5    1
    5     4     6    1
    6     4     7    1
    7     7     8    1
    8     1     9    1
    9     7     9    1
   10     9    10    1
   11     9    11    1
   12     7    12    1
   13    12    13    1
@<TRIPOS>SUBSTRUCTURE
       1 MOL1            1 RESIDUE      1      MOL     
@<SCITEGIC>MOL_PROPERTY
VConf Rank
SciTegic.value.IntegerValue
387

@<SCITEGIC>MOL_PROPERTY
Conf_Id
SciTegic.value.IntegerValue
19

@<SCITEGIC>MOL_PROPERTY
Delta U+W
SciTegic.value.DoubleValue
-0.011

@<SCITEGIC>MOL_PROPERTY
U+W
SciTegic.value.DoubleValue
-3.142

@<SCITEGIC>MOL_PROPERTY
Grad RMS
SciTegic.value.DoubleValue
0.000000

@<SCITEGIC>MOL_PROPERTY
U
SciTegic.value.DoubleValue
-0.154

@<SCITEGIC>MOL_PROPERTY
W
SciTegic.value.DoubleValue
-2.989

@<SCITEGIC>MOL_PROPERTY
W(PB)
SciTegic.value.DoubleValue
-4.588

@<SCITEGIC>MOL_PROPERTY
W(SA)
SciTegic.value.DoubleValue
1.599

@<SCITEGIC>MOL_PROPERTY
Valence
SciTegic.value.DoubleValue
6.334

@<SCITEGIC>MOL_PROPERTY
Coulomb
SciTegic.value.DoubleValue
-7.439

@<SCITEGIC>MOL_PROPERTY
VdW
SciTegic.value.DoubleValue
0.951

@<SCITEGIC>MOL_PROPERTY
VdW6
SciTegic.value.DoubleValue
-2.120

@<SCITEGIC>MOL_PROPERTY
VdW12
SciTegic.value.DoubleValue
3.072

@<SCITEGIC>MOL_PROPERTY
Bond
SciTegic.value.DoubleValue
0.065

@<SCITEGIC>MOL_PROPERTY
Angle
SciTegic.value.DoubleValue
0.930

@<SCITEGIC>MOL_PROPERTY
Pdih
SciTegic.value.DoubleValue
5.339

@<SCITEGIC>MOL_PROPERTY
Idih
SciTegic.value.DoubleValue
0.000

@<SCITEGIC>MOL_PROPERTY
Tether
SciTegic.value.DoubleValue
0.000

@<TRIPOS>MOLECULE
guest-s16_confgen4.mol2 : confsearch ligand conformer 388
          13          13           1
SMALL
USER_CHARGES
 
@<TRIPOS>ATOM
       1    C1      20.574965   18.512503   21.700494 C.3        1 MOL1        -0.1693
       2    H1      21.579016   18.088059   21.817561 H          1 MOL1         0.0829
       3    H2      20.241917   18.346642   20.667646 H          1 MOL1         0.0829
       4    C2      20.381787   19.976684   22.218017 C.3        1 MOL1        -0.1768
       5    H3      21.016181   20.245056   23.071414 H          1 MOL1         0.0829
       6    H4      20.456432   20.767528   21.463439 H          1 MOL1         0.0829
       7    C3      18.933313   19.546575   22.608346 C.3        1 MOL1         0.1211
       8    H5      18.551529   20.008361   23.528024 H          1 MOL1         0.0786
       9    C4      19.527739   18.115302   22.793312 C.3        1 MOL1        -0.1768
      10    H6      18.861927   17.282758   22.540495 H          1 MOL1         0.0829
      11    H7      19.955505   17.931857   23.786457 H          1 MOL1         0.0829
      12    O1      17.977810   19.667336   21.573659 O.3        1 MOL1        -0.5515
      13    H8      17.163566   19.211034   21.875236 H          1 MOL1         0.3773
@<TRIPOS>BOND
    1     1     2    1
    2     1     3    1
    3     1     4    1
    4     4     5    1
    5     4     6    1
    6     4     7    1
    7     7     8    1
    8     1     9    1
    9     7     9    1
   10     9    10    1
   11     9    11    1
   12     7    12    1
   13    12    13    1
@<TRIPOS>SUBSTRUCTURE
       1 MOL1            1 RESIDUE      1      MOL     
@<SCITEGIC>MOL_PROPERTY
VConf Rank
SciTegic.value.IntegerValue
388

@<SCITEGIC>MOL_PROPERTY
Conf_Id
SciTegic.value.IntegerValue
20

@<SCITEGIC>MOL_PROPERTY
Delta U+W
SciTegic.value.DoubleValue
1.030

@<SCITEGIC>MOL_PROPERTY
U+W
SciTegic.value.DoubleValue
-2.101

@<SCITEGIC>MOL_PROPERTY
Grad RMS
SciTegic.value.DoubleValue
0.000000

@<SCITEGIC>MOL_PROPERTY
U
SciTegic.value.DoubleValue
0.841

@<SCITEGIC>MOL_PROPERTY
W
SciTegic.value.DoubleValue
-2.942

@<SCITEGIC>MOL_PROPERTY
W(PB)
SciTegic.value.DoubleValue
-4.530

@<SCITEGIC>MOL_PROPERTY
W(SA)
SciTegic.value.DoubleValue
1.587

@<SCITEGIC>MOL_PROPERTY
Valence
SciTegic.value.DoubleValue
6.736

@<SCITEGIC>MOL_PROPERTY
Coulomb
SciTegic.value.DoubleValue
-7.246

@<SCITEGIC>MOL_PROPERTY
VdW
SciTegic.value.DoubleValue
1.352

@<SCITEGIC>MOL_PROPERTY
VdW6
SciTegic.value.DoubleValue
-2.500

@<SCITEGIC>MOL_PROPERTY
VdW12
SciTegic.value.DoubleValue
3.851

@<SCITEGIC>MOL_PROPERTY
Bond
SciTegic.value.DoubleValue
0.063

@<SCITEGIC>MOL_PROPERTY
Angle
SciTegic.value.DoubleValue
0.687

@<SCITEGIC>MOL_PROPERTY
Pdih
SciTegic.value.DoubleValue
5.986

@<SCITEGIC>MOL_PROPERTY
Idih
SciTegic.value.DoubleValue
0.000

@<SCITEGIC>MOL_PROPERTY
Tether
SciTegic.value.DoubleValue
0.000

@<TRIPOS>MOLECULE
guest-s16_confgen4.mol2 : confsearch ligand conformer 389
          13          13           1
SMALL
USER_CHARGES
 
@<TRIPOS>ATOM
       1    C1      18.775441   18.161835   22.481999 C.3        1 MOL1        -0.1693
       2    H1      17.947868   18.550343   23.090155 H          1 MOL1         0.0829
       3    H2      18.563572   17.115871   22.230025 H          1 MOL1         0.0829
       4    C2      20.201520   18.455578   23.054162 C.3        1 MOL1        -0.1768
       5    H3      20.285670   18.488093   24.146020 H          1 MOL1         0.0829
       6    H4      20.995010   17.809284   22.659110 H          1 MOL1         0.0829
       7    C3      20.067798   19.836657   22.344306 C.3        1 MOL1         0.1211
       8    H5      19.510413   20.583077   22.926434 H          1 MOL1         0.0786
       9    C4      19.200538   19.083034   21.291183 C.3        1 MOL1        -0.1768
      10    H6      19.770296   18.576984   20.502084 H          1 MOL1         0.0829
      11    H7      18.400670   19.669689   20.826062 H          1 MOL1         0.0829
      12    O1      21.269493   20.384684   21.857054 O.3        1 MOL1        -0.5515
      13    H8      21.720314   19.677712   21.349441 H          1 MOL1         0.3773
@<TRIPOS>BOND
    1     1     2    1
    2     1     3    1
    3     1     4    1
    4     4     5    1
    5     4     6    1
    6     4     7    1
    7     7     8    1
    8     1     9    1
    9     7     9    1
   10     9    10    1
   11     9    11    1
   12     7    12    1
   13    12    13    1
@<TRIPOS>SUBSTRUCTURE
       1 MOL1            1 RESIDUE      1      MOL     
@<SCITEGIC>MOL_PROPERTY
VConf Rank
SciTegic.value.IntegerValue
389

@<SCITEGIC>MOL_PROPERTY
Conf_Id
SciTegic.value.IntegerValue
24

@<SCITEGIC>MOL_PROPERTY
Delta U+W
SciTegic.value.DoubleValue
0.356

@<SCITEGIC>MOL_PROPERTY
U+W
SciTegic.value.DoubleValue
-2.775

@<SCITEGIC>MOL_PROPERTY
Grad RMS
SciTegic.value.DoubleValue
0.000000

@<SCITEGIC>MOL_PROPERTY
U
SciTegic.value.DoubleValue
-0.184

@<SCITEGIC>MOL_PROPERTY
W
SciTegic.value.DoubleValue
-2.591

@<SCITEGIC>MOL_PROPERTY
W(PB)
SciTegic.value.DoubleValue
-4.184

@<SCITEGIC>MOL_PROPERTY
W(SA)
SciTegic.value.DoubleValue
1.593

@<SCITEGIC>MOL_PROPERTY
Valence
SciTegic.value.DoubleValue
6.840

@<SCITEGIC>MOL_PROPERTY
Coulomb
SciTegic.value.DoubleValue
-7.916

@<SCITEGIC>MOL_PROPERTY
VdW
SciTegic.value.DoubleValue
0.893

@<SCITEGIC>MOL_PROPERTY
VdW6
SciTegic.value.DoubleValue
-2.167

@<SCITEGIC>MOL_PROPERTY
VdW12
SciTegic.value.DoubleValue
3.060

@<SCITEGIC>MOL_PROPERTY
Bond
SciTegic.value.DoubleValue
0.059

@<SCITEGIC>MOL_PROPERTY
Angle
SciTegic.value.DoubleValue
0.918

@<SCITEGIC>MOL_PROPERTY
Pdih
SciTegic.value.DoubleValue
5.862

@<SCITEGIC>MOL_PROPERTY
Idih
SciTegic.value.DoubleValue
0.000

@<SCITEGIC>MOL_PROPERTY
Tether
SciTegic.value.DoubleValue
0.000

@<TRIPOS>MOLECULE
guest-s16_confgen4.mol2 : confsearch ligand conformer 390
          13          13           1
SMALL
USER_CHARGES
 
@<TRIPOS>ATOM
       1    C1      20.605592   18.468793   22.635575 C.3        1 MOL1        -0.1693
       2    H1      21.362543   17.688390   22.492855 H          1 MOL1         0.0829
       3    H2      20.810735   18.981239   23.584054 H          1 MOL1         0.0829
       4    C2      19.118201   18.023945   22.435784 C.3        1 MOL1        -0.1768
       5    H3      18.980904   17.214466   21.708524 H          1 MOL1         0.0829
       6    H4      18.562741   17.771988   23.346109 H          1 MOL1         0.0829
       7    C3      18.865773   19.450087   21.855790 C.3        1 MOL1         0.1211
       8    H5      18.142780   19.490718   21.031098 H          1 MOL1         0.0786
       9    C4      20.361739   19.416936   21.414225 C.3        1 MOL1        -0.1768
      10    H6      20.529341   18.948997   20.436494 H          1 MOL1         0.0829
      11    H7      20.888676   20.377456   21.435368 H          1 MOL1         0.0829
      12    O1      18.554843   20.433841   22.818744 O.3        1 MOL1        -0.5515
      13    H8      19.227988   20.351116   23.525388 H          1 MOL1         0.3773
@<TRIPOS>BOND
    1     1     2    1
    2     1     3    1
    3     1     4    1
    4     4     5    1
    5     4     6    1
    6     4     7    1
    7     7     8    1
    8     1     9    1
    9     7     9    1
   10     9    10    1
   11     9    11    1
   12     7    12    1
   13    12    13    1
@<TRIPOS>SUBSTRUCTURE
       1 MOL1            1 RESIDUE      1      MOL     
@<SCITEGIC>MOL_PROPERTY
VConf Rank
SciTegic.value.IntegerValue
390

@<SCITEGIC>MOL_PROPERTY
Conf_Id
SciTegic.value.IntegerValue
44

@<SCITEGIC>MOL_PROPERTY
Delta U+W
SciTegic.value.DoubleValue
0.823

@<SCITEGIC>MOL_PROPERTY
U+W
SciTegic.value.DoubleValue
-2.308

@<SCITEGIC>MOL_PROPERTY
Grad RMS
SciTegic.value.DoubleValue
0.000000

@<SCITEGIC>MOL_PROPERTY
U
SciTegic.value.DoubleValue
0.039

@<SCITEGIC>MOL_PROPERTY
W
SciTegic.value.DoubleValue
-2.348

@<SCITEGIC>MOL_PROPERTY
W(PB)
SciTegic.value.DoubleValue
-3.918

@<SCITEGIC>MOL_PROPERTY
W(SA)
SciTegic.value.DoubleValue
1.571

@<SCITEGIC>MOL_PROPERTY
Valence
SciTegic.value.DoubleValue
7.320

@<SCITEGIC>MOL_PROPERTY
Coulomb
SciTegic.value.DoubleValue
-8.530

@<SCITEGIC>MOL_PROPERTY
VdW
SciTegic.value.DoubleValue
1.249

@<SCITEGIC>MOL_PROPERTY
VdW6
SciTegic.value.DoubleValue
-2.615

@<SCITEGIC>MOL_PROPERTY
VdW12
SciTegic.value.DoubleValue
3.864

@<SCITEGIC>MOL_PROPERTY
Bond
SciTegic.value.DoubleValue
0.056

@<SCITEGIC>MOL_PROPERTY
Angle
SciTegic.value.DoubleValue
0.694

@<SCITEGIC>MOL_PROPERTY
Pdih
SciTegic.value.DoubleValue
6.570

@<SCITEGIC>MOL_PROPERTY
Idih
SciTegic.value.DoubleValue
0.000

@<SCITEGIC>MOL_PROPERTY
Tether
SciTegic.value.DoubleValue
0.000

@<TRIPOS>MOLECULE
guest-s16_confgen4.mol2 : confsearch ligand conformer 391
          13          13           1
SMALL
USER_CHARGES
 
@<TRIPOS>ATOM
       1    C1      20.985724   19.063547   22.201380 C.3        1 MOL1        -0.1693
       2    H1      21.383064   19.517123   21.283787 H          1 MOL1         0.0829
       3    H2      21.826365   18.797790   22.853327 H          1 MOL1         0.0829
       4    C2      19.916569   17.945461   21.968792 C.3        1 MOL1        -0.1768
       5    H3      20.038849   17.339986   21.064133 H          1 MOL1         0.0829
       6    H4      19.758490   17.275582   22.823110 H          1 MOL1         0.0829
       7    C3      18.892076   19.115523   21.867706 C.3        1 MOL1         0.1211
       8    H5      18.847824   19.580698   20.873364 H          1 MOL1         0.0786
       9    C4      19.819927   19.860912   22.874027 C.3        1 MOL1        -0.1768
      10    H6      19.858861   20.950883   22.770978 H          1 MOL1         0.0829
      11    H7      19.642828   19.611831   23.927777 H          1 MOL1         0.0829
      12    O1      17.597807   18.825473   22.342348 O.3        1 MOL1        -0.5515
      13    H8      17.104344   19.673097   22.377412 H          1 MOL1         0.3773
@<TRIPOS>BOND
    1     1     2    1
    2     1     3    1
    3     1     4    1
    4     4     5    1
    5     4     6    1
    6     4     7    1
    7     7     8    1
    8     1     9    1
    9     7     9    1
   10     9    10    1
   11     9    11    1
   12     7    12    1
   13    12    13    1
@<TRIPOS>SUBSTRUCTURE
       1 MOL1            1 RESIDUE      1      MOL     
@<SCITEGIC>MOL_PROPERTY
VConf Rank
SciTegic.value.IntegerValue
391

@<SCITEGIC>MOL_PROPERTY
Conf_Id
SciTegic.value.IntegerValue
22

@<SCITEGIC>MOL_PROPERTY
Delta U+W
SciTegic.value.DoubleValue
0.000

@<SCITEGIC>MOL_PROPERTY
U+W
SciTegic.value.DoubleValue
-3.131

@<SCITEGIC>MOL_PROPERTY
Grad RMS
SciTegic.value.DoubleValue
0.000000

@<SCITEGIC>MOL_PROPERTY
U
SciTegic.value.DoubleValue
-0.154

@<SCITEGIC>MOL_PROPERTY
W
SciTegic.value.DoubleValue
-2.978

@<SCITEGIC>MOL_PROPERTY
W(PB)
SciTegic.value.DoubleValue
-4.579

@<SCITEGIC>MOL_PROPERTY
W(SA)
SciTegic.value.DoubleValue
1.601

@<SCITEGIC>MOL_PROPERTY
Valence
SciTegic.value.DoubleValue
6.333

@<SCITEGIC>MOL_PROPERTY
Coulomb
SciTegic.value.DoubleValue
-7.439

@<SCITEGIC>MOL_PROPERTY
VdW
SciTegic.value.DoubleValue
0.952

@<SCITEGIC>MOL_PROPERTY
VdW6
SciTegic.value.DoubleValue
-2.120

@<SCITEGIC>MOL_PROPERTY
VdW12
SciTegic.value.DoubleValue
3.072

@<SCITEGIC>MOL_PROPERTY
Bond
SciTegic.value.DoubleValue
0.065

@<SCITEGIC>MOL_PROPERTY
Angle
SciTegic.value.DoubleValue
0.931

@<SCITEGIC>MOL_PROPERTY
Pdih
SciTegic.value.DoubleValue
5.338

@<SCITEGIC>MOL_PROPERTY
Idih
SciTegic.value.DoubleValue
0.000

@<SCITEGIC>MOL_PROPERTY
Tether
SciTegic.value.DoubleValue
0.000

@<TRIPOS>MOLECULE
guest-s16_confgen4.mol2 : confsearch ligand conformer 392
          13          13           1
SMALL
USER_CHARGES
 
@<TRIPOS>ATOM
       1    C1      19.504681   18.843310   20.934828 C.3        1 MOL1        -0.1693
       2    H1      19.509877   17.811445   20.559575 H          1 MOL1         0.0829
       3    H2      19.446340   19.526932   20.079495 H          1 MOL1         0.0829
       4    C2      20.611842   19.160431   21.993581 C.3        1 MOL1        -0.1768
       5    H3      20.826896   20.228172   22.125768 H          1 MOL1         0.0829
       6    H4      21.558645   18.621697   21.877382 H          1 MOL1         0.0829
       7    C3      19.615176   18.566942   23.034553 C.3        1 MOL1         0.1211
       8    H5      19.641694   17.470705   23.102542 H          1 MOL1         0.0786
       9    C4      18.494222   19.111332   22.098633 C.3        1 MOL1        -0.1768
      10    H6      18.244015   20.167823   22.256135 H          1 MOL1         0.0829
      11    H7      17.566718   18.528876   22.077628 H          1 MOL1         0.0829
      12    O1      19.664865   19.149010   24.316456 O.3        1 MOL1        -0.5515
      13    H8      20.497129   18.847706   24.740433 H          1 MOL1         0.3773
@<TRIPOS>BOND
    1     1     2    1
    2     1     3    1
    3     1     4    1
    4     4     5    1
    5     4     6    1
    6     4     7    1
    7     7     8    1
    8     1     9    1
    9     7     9    1
   10     9    10    1
   11     9    11    1
   12     7    12    1
   13    12    13    1
@<TRIPOS>SUBSTRUCTURE
       1 MOL1            1 RESIDUE      1      MOL     
@<SCITEGIC>MOL_PROPERTY
VConf Rank
SciTegic.value.IntegerValue
392

@<SCITEGIC>MOL_PROPERTY
Conf_Id
SciTegic.value.IntegerValue
19

@<SCITEGIC>MOL_PROPERTY
Delta U+W
SciTegic.value.DoubleValue
-0.011

@<SCITEGIC>MOL_PROPERTY
U+W
SciTegic.value.DoubleValue
-3.142

@<SCITEGIC>MOL_PROPERTY
Grad RMS
SciTegic.value.DoubleValue
0.000000

@<SCITEGIC>MOL_PROPERTY
U
SciTegic.value.DoubleValue
-0.154

@<SCITEGIC>MOL_PROPERTY
W
SciTegic.value.DoubleValue
-2.989

@<SCITEGIC>MOL_PROPERTY
W(PB)
SciTegic.value.DoubleValue
-4.588

@<SCITEGIC>MOL_PROPERTY
W(SA)
SciTegic.value.DoubleValue
1.599

@<SCITEGIC>MOL_PROPERTY
Valence
SciTegic.value.DoubleValue
6.334

@<SCITEGIC>MOL_PROPERTY
Coulomb
SciTegic.value.DoubleValue
-7.439

@<SCITEGIC>MOL_PROPERTY
VdW
SciTegic.value.DoubleValue
0.951

@<SCITEGIC>MOL_PROPERTY
VdW6
SciTegic.value.DoubleValue
-2.120

@<SCITEGIC>MOL_PROPERTY
VdW12
SciTegic.value.DoubleValue
3.072

@<SCITEGIC>MOL_PROPERTY
Bond
SciTegic.value.DoubleValue
0.065

@<SCITEGIC>MOL_PROPERTY
Angle
SciTegic.value.DoubleValue
0.930

@<SCITEGIC>MOL_PROPERTY
Pdih
SciTegic.value.DoubleValue
5.339

@<SCITEGIC>MOL_PROPERTY
Idih
SciTegic.value.DoubleValue
0.000

@<SCITEGIC>MOL_PROPERTY
Tether
SciTegic.value.DoubleValue
0.000

@<TRIPOS>MOLECULE
guest-s16_confgen4.mol2 : confsearch ligand conformer 393
          13          13           1
SMALL
USER_CHARGES
 
@<TRIPOS>ATOM
       1    C1      20.375626   18.077478   22.389858 C.3        1 MOL1        -0.1693
       2    H1      20.758705   17.178274   21.893210 H          1 MOL1         0.0829
       3    H2      20.895176   18.196809   23.349564 H          1 MOL1         0.0829
       4    C2      18.818348   18.207127   22.473817 C.3        1 MOL1        -0.1768
       5    H3      18.277634   17.745056   21.639021 H          1 MOL1         0.0829
       6    H4      18.358255   17.880573   23.413004 H          1 MOL1         0.0829
       7    C3      19.033294   19.745473   22.323097 C.3        1 MOL1         0.1211
       8    H5      18.257673   20.260619   21.741849 H          1 MOL1         0.0786
       9    C4      20.316890   19.374486   21.516347 C.3        1 MOL1        -0.1768
      10    H6      21.163862   20.061778   21.619395 H          1 MOL1         0.0829
      11    H7      20.139902   19.195137   20.448881 H          1 MOL1         0.0829
      12    O1      19.267787   20.434800   23.534702 O.3        1 MOL1        -0.5515
      13    H8      19.558537   21.342086   23.301355 H          1 MOL1         0.3773
@<TRIPOS>BOND
    1     1     2    1
    2     1     3    1
    3     1     4    1
    4     4     5    1
    5     4     6    1
    6     4     7    1
    7     7     8    1
    8     1     9    1
    9     7     9    1
   10     9    10    1
   11     9    11    1
   12     7    12    1
   13    12    13    1
@<TRIPOS>SUBSTRUCTURE
       1 MOL1            1 RESIDUE      1      MOL     
@<SCITEGIC>MOL_PROPERTY
VConf Rank
SciTegic.value.IntegerValue
393

@<SCITEGIC>MOL_PROPERTY
Conf_Id
SciTegic.value.IntegerValue
20

@<SCITEGIC>MOL_PROPERTY
Delta U+W
SciTegic.value.DoubleValue
1.030

@<SCITEGIC>MOL_PROPERTY
U+W
SciTegic.value.DoubleValue
-2.101

@<SCITEGIC>MOL_PROPERTY
Grad RMS
SciTegic.value.DoubleValue
0.000000

@<SCITEGIC>MOL_PROPERTY
U
SciTegic.value.DoubleValue
0.841

@<SCITEGIC>MOL_PROPERTY
W
SciTegic.value.DoubleValue
-2.942

@<SCITEGIC>MOL_PROPERTY
W(PB)
SciTegic.value.DoubleValue
-4.530

@<SCITEGIC>MOL_PROPERTY
W(SA)
SciTegic.value.DoubleValue
1.587

@<SCITEGIC>MOL_PROPERTY
Valence
SciTegic.value.DoubleValue
6.736

@<SCITEGIC>MOL_PROPERTY
Coulomb
SciTegic.value.DoubleValue
-7.246

@<SCITEGIC>MOL_PROPERTY
VdW
SciTegic.value.DoubleValue
1.352

@<SCITEGIC>MOL_PROPERTY
VdW6
SciTegic.value.DoubleValue
-2.500

@<SCITEGIC>MOL_PROPERTY
VdW12
SciTegic.value.DoubleValue
3.851

@<SCITEGIC>MOL_PROPERTY
Bond
SciTegic.value.DoubleValue
0.063

@<SCITEGIC>MOL_PROPERTY
Angle
SciTegic.value.DoubleValue
0.687

@<SCITEGIC>MOL_PROPERTY
Pdih
SciTegic.value.DoubleValue
5.986

@<SCITEGIC>MOL_PROPERTY
Idih
SciTegic.value.DoubleValue
0.000

@<SCITEGIC>MOL_PROPERTY
Tether
SciTegic.value.DoubleValue
0.000

@<TRIPOS>MOLECULE
guest-s16_confgen4.mol2 : confsearch ligand conformer 394
          13          13           1
SMALL
USER_CHARGES
 
@<TRIPOS>ATOM
       1    C1      20.402627   17.876274   22.441785 C.3        1 MOL1        -0.1693
       2    H1      20.331433   17.063080   21.707404 H          1 MOL1         0.0829
       3    H2      21.063295   17.555587   23.256094 H          1 MOL1         0.0829
       4    C2      19.029883   18.490853   22.872162 C.3        1 MOL1        -0.1768
       5    H3      18.177942   17.802270   22.890671 H          1 MOL1         0.0829
       6    H4      19.053774   19.046675   23.817613 H          1 MOL1         0.0829
       7    C3      19.161549   19.370261   21.592138 C.3        1 MOL1         0.1211
       8    H5      18.826288   18.870175   20.673331 H          1 MOL1         0.0786
       9    C4      20.699446   19.285388   21.830513 C.3        1 MOL1        -0.1768
      10    H6      21.096505   20.018798   22.543143 H          1 MOL1         0.0829
      11    H7      21.321982   19.298503   20.929087 H          1 MOL1         0.0829
      12    O1      18.605747   20.660309   21.685296 O.3        1 MOL1        -0.5515
      13    H8      18.938132   21.054665   22.518797 H          1 MOL1         0.3773
@<TRIPOS>BOND
    1     1     2    1
    2     1     3    1
    3     1     4    1
    4     4     5    1
    5     4     6    1
    6     4     7    1
    7     7     8    1
    8     1     9    1
    9     7     9    1
   10     9    10    1
   11     9    11    1
   12     7    12    1
   13    12    13    1
@<TRIPOS>SUBSTRUCTURE
       1 MOL1            1 RESIDUE      1      MOL     
@<SCITEGIC>MOL_PROPERTY
VConf Rank
SciTegic.value.IntegerValue
394

@<SCITEGIC>MOL_PROPERTY
Conf_Id
SciTegic.value.IntegerValue
24

@<SCITEGIC>MOL_PROPERTY
Delta U+W
SciTegic.value.DoubleValue
0.356

@<SCITEGIC>MOL_PROPERTY
U+W
SciTegic.value.DoubleValue
-2.775

@<SCITEGIC>MOL_PROPERTY
Grad RMS
SciTegic.value.DoubleValue
0.000000

@<SCITEGIC>MOL_PROPERTY
U
SciTegic.value.DoubleValue
-0.184

@<SCITEGIC>MOL_PROPERTY
W
SciTegic.value.DoubleValue
-2.591

@<SCITEGIC>MOL_PROPERTY
W(PB)
SciTegic.value.DoubleValue
-4.184

@<SCITEGIC>MOL_PROPERTY
W(SA)
SciTegic.value.DoubleValue
1.593

@<SCITEGIC>MOL_PROPERTY
Valence
SciTegic.value.DoubleValue
6.840

@<SCITEGIC>MOL_PROPERTY
Coulomb
SciTegic.value.DoubleValue
-7.916

@<SCITEGIC>MOL_PROPERTY
VdW
SciTegic.value.DoubleValue
0.893

@<SCITEGIC>MOL_PROPERTY
VdW6
SciTegic.value.DoubleValue
-2.167

@<SCITEGIC>MOL_PROPERTY
VdW12
SciTegic.value.DoubleValue
3.060

@<SCITEGIC>MOL_PROPERTY
Bond
SciTegic.value.DoubleValue
0.059

@<SCITEGIC>MOL_PROPERTY
Angle
SciTegic.value.DoubleValue
0.918

@<SCITEGIC>MOL_PROPERTY
Pdih
SciTegic.value.DoubleValue
5.862

@<SCITEGIC>MOL_PROPERTY
Idih
SciTegic.value.DoubleValue
0.000

@<SCITEGIC>MOL_PROPERTY
Tether
SciTegic.value.DoubleValue
0.000

@<TRIPOS>MOLECULE
guest-s16_confgen4.mol2 : confsearch ligand conformer 395
          13          13           1
SMALL
USER_CHARGES
 
@<TRIPOS>ATOM
       1    C1      20.133491   18.288577   21.430127 C.3        1 MOL1        -0.1693
       2    H1      20.514565   17.283247   21.214562 H          1 MOL1         0.0829
       3    H2      20.205345   18.890015   20.515029 H          1 MOL1         0.0829
       4    C2      20.703876   18.975316   22.715891 C.3        1 MOL1        -0.1768
       5    H3      20.978423   18.279196   23.517799 H          1 MOL1         0.0829
       6    H4      21.533535   19.674529   22.562669 H          1 MOL1         0.0829
       7    C3      19.292870   19.618573   22.886987 C.3        1 MOL1         0.1211
       8    H5      18.959477   19.728058   23.926866 H          1 MOL1         0.0786
       9    C4      18.747162   18.354108   22.153961 C.3        1 MOL1        -0.1768
      10    H6      18.541953   17.505677   22.818090 H          1 MOL1         0.0829
      11    H7      17.873669   18.512609   21.511626 H          1 MOL1         0.0829
      12    O1      19.107560   20.832091   22.190740 O.3        1 MOL1        -0.5515
      13    H8      19.419932   20.675976   21.275663 H          1 MOL1         0.3773
@<TRIPOS>BOND
    1     1     2    1
    2     1     3    1
    3     1     4    1
    4     4     5    1
    5     4     6    1
    6     4     7    1
    7     7     8    1
    8     1     9    1
    9     7     9    1
   10     9    10    1
   11     9    11    1
   12     7    12    1
   13    12    13    1
@<TRIPOS>SUBSTRUCTURE
       1 MOL1            1 RESIDUE      1      MOL     
@<SCITEGIC>MOL_PROPERTY
VConf Rank
SciTegic.value.IntegerValue
395

@<SCITEGIC>MOL_PROPERTY
Conf_Id
SciTegic.value.IntegerValue
44

@<SCITEGIC>MOL_PROPERTY
Delta U+W
SciTegic.value.DoubleValue
0.823

@<SCITEGIC>MOL_PROPERTY
U+W
SciTegic.value.DoubleValue
-2.308

@<SCITEGIC>MOL_PROPERTY
Grad RMS
SciTegic.value.DoubleValue
0.000000

@<SCITEGIC>MOL_PROPERTY
U
SciTegic.value.DoubleValue
0.039

@<SCITEGIC>MOL_PROPERTY
W
SciTegic.value.DoubleValue
-2.348

@<SCITEGIC>MOL_PROPERTY
W(PB)
SciTegic.value.DoubleValue
-3.918

@<SCITEGIC>MOL_PROPERTY
W(SA)
SciTegic.value.DoubleValue
1.571

@<SCITEGIC>MOL_PROPERTY
Valence
SciTegic.value.DoubleValue
7.320

@<SCITEGIC>MOL_PROPERTY
Coulomb
SciTegic.value.DoubleValue
-8.530

@<SCITEGIC>MOL_PROPERTY
VdW
SciTegic.value.DoubleValue
1.249

@<SCITEGIC>MOL_PROPERTY
VdW6
SciTegic.value.DoubleValue
-2.615

@<SCITEGIC>MOL_PROPERTY
VdW12
SciTegic.value.DoubleValue
3.864

@<SCITEGIC>MOL_PROPERTY
Bond
SciTegic.value.DoubleValue
0.056

@<SCITEGIC>MOL_PROPERTY
Angle
SciTegic.value.DoubleValue
0.694

@<SCITEGIC>MOL_PROPERTY
Pdih
SciTegic.value.DoubleValue
6.570

@<SCITEGIC>MOL_PROPERTY
Idih
SciTegic.value.DoubleValue
0.000

@<SCITEGIC>MOL_PROPERTY
Tether
SciTegic.value.DoubleValue
0.000

@<TRIPOS>MOLECULE
guest-s16_confgen4.mol2 : confsearch ligand conformer 396
          13          13           1
SMALL
USER_CHARGES
 
@<TRIPOS>ATOM
       1    C1      20.440506   18.598464   23.220773 C.3        1 MOL1        -0.1693
       2    H1      19.896179   18.030577   23.986801 H          1 MOL1         0.0829
       3    H2      21.508502   18.587038   23.468948 H          1 MOL1         0.0829
       4    C2      19.828096   19.998395   22.885430 C.3        1 MOL1        -0.1768
       5    H3      19.336184   20.521810   23.712485 H          1 MOL1         0.0829
       6    H4      20.515164   20.693327   22.386839 H          1 MOL1         0.0829
       7    C3      18.884836   19.219228   21.920026 C.3        1 MOL1         0.1211
       8    H5      18.007410   18.781595   22.415669 H          1 MOL1         0.0786
       9    C4      20.073766   18.226550   21.746152 C.3        1 MOL1        -0.1768
      10    H6      19.800926   17.180929   21.566134 H          1 MOL1         0.0829
      11    H7      20.816597   18.531527   20.998499 H          1 MOL1         0.0829
      12    O1      18.506031   19.915856   20.755654 O.3        1 MOL1        -0.5515
      13    H8      18.058532   19.272612   20.164734 H          1 MOL1         0.3773
@<TRIPOS>BOND
    1     1     2    1
    2     1     3    1
    3     1     4    1
    4     4     5    1
    5     4     6    1
    6     4     7    1
    7     7     8    1
    8     1     9    1
    9     7     9    1
   10     9    10    1
   11     9    11    1
   12     7    12    1
   13    12    13    1
@<TRIPOS>SUBSTRUCTURE
       1 MOL1            1 RESIDUE      1      MOL     
@<SCITEGIC>MOL_PROPERTY
VConf Rank
SciTegic.value.IntegerValue
396

@<SCITEGIC>MOL_PROPERTY
Conf_Id
SciTegic.value.IntegerValue
22

@<SCITEGIC>MOL_PROPERTY
Delta U+W
SciTegic.value.DoubleValue
0.000

@<SCITEGIC>MOL_PROPERTY
U+W
SciTegic.value.DoubleValue
-3.131

@<SCITEGIC>MOL_PROPERTY
Grad RMS
SciTegic.value.DoubleValue
0.000000

@<SCITEGIC>MOL_PROPERTY
U
SciTegic.value.DoubleValue
-0.154

@<SCITEGIC>MOL_PROPERTY
W
SciTegic.value.DoubleValue
-2.978

@<SCITEGIC>MOL_PROPERTY
W(PB)
SciTegic.value.DoubleValue
-4.579

@<SCITEGIC>MOL_PROPERTY
W(SA)
SciTegic.value.DoubleValue
1.601

@<SCITEGIC>MOL_PROPERTY
Valence
SciTegic.value.DoubleValue
6.333

@<SCITEGIC>MOL_PROPERTY
Coulomb
SciTegic.value.DoubleValue
-7.439

@<SCITEGIC>MOL_PROPERTY
VdW
SciTegic.value.DoubleValue
0.952

@<SCITEGIC>MOL_PROPERTY
VdW6
SciTegic.value.DoubleValue
-2.120

@<SCITEGIC>MOL_PROPERTY
VdW12
SciTegic.value.DoubleValue
3.072

@<SCITEGIC>MOL_PROPERTY
Bond
SciTegic.value.DoubleValue
0.065

@<SCITEGIC>MOL_PROPERTY
Angle
SciTegic.value.DoubleValue
0.931

@<SCITEGIC>MOL_PROPERTY
Pdih
SciTegic.value.DoubleValue
5.338

@<SCITEGIC>MOL_PROPERTY
Idih
SciTegic.value.DoubleValue
0.000

@<SCITEGIC>MOL_PROPERTY
Tether
SciTegic.value.DoubleValue
0.000

@<TRIPOS>MOLECULE
guest-s16_confgen4.mol2 : confsearch ligand conformer 397
          13          13           1
SMALL
USER_CHARGES
 
@<TRIPOS>ATOM
       1    C1      18.436157   19.236081   21.775623 C.3        1 MOL1        -0.1693
       2    H1      18.402491   20.216525   21.282489 H          1 MOL1         0.0829
       3    H2      17.425771   18.810106   21.777880 H          1 MOL1         0.0829
       4    C2      19.192645   19.217614   23.144825 C.3        1 MOL1        -0.1768
       5    H3      18.957949   18.359019   23.786327 H          1 MOL1         0.0829
       6    H4      19.128885   20.132956   23.743371 H          1 MOL1         0.0829
       7    C3      20.485397   19.052925   22.289919 C.3        1 MOL1         0.1211
       8    H5      20.886448   19.999038   21.901215 H          1 MOL1         0.0786
       9    C4      19.578839   18.291395   21.276475 C.3        1 MOL1        -0.1768
      10    H6      19.431242   17.229199   21.507860 H          1 MOL1         0.0829
      11    H7      19.859067   18.386671   20.221792 H          1 MOL1         0.0829
      12    O1      21.505613   18.282842   22.882101 O.3        1 MOL1        -0.5515
      13    H8      21.891595   18.820010   23.607133 H          1 MOL1         0.3773
@<TRIPOS>BOND
    1     1     2    1
    2     1     3    1
    3     1     4    1
    4     4     5    1
    5     4     6    1
    6     4     7    1
    7     7     8    1
    8     1     9    1
    9     7     9    1
   10     9    10    1
   11     9    11    1
   12     7    12    1
   13    12    13    1
@<TRIPOS>SUBSTRUCTURE
       1 MOL1            1 RESIDUE      1      MOL     
@<SCITEGIC>MOL_PROPERTY
VConf Rank
SciTegic.value.IntegerValue
397

@<SCITEGIC>MOL_PROPERTY
Conf_Id
SciTegic.value.IntegerValue
19

@<SCITEGIC>MOL_PROPERTY
Delta U+W
SciTegic.value.DoubleValue
-0.011

@<SCITEGIC>MOL_PROPERTY
U+W
SciTegic.value.DoubleValue
-3.142

@<SCITEGIC>MOL_PROPERTY
Grad RMS
SciTegic.value.DoubleValue
0.000000

@<SCITEGIC>MOL_PROPERTY
U
SciTegic.value.DoubleValue
-0.154

@<SCITEGIC>MOL_PROPERTY
W
SciTegic.value.DoubleValue
-2.989

@<SCITEGIC>MOL_PROPERTY
W(PB)
SciTegic.value.DoubleValue
-4.588

@<SCITEGIC>MOL_PROPERTY
W(SA)
SciTegic.value.DoubleValue
1.599

@<SCITEGIC>MOL_PROPERTY
Valence
SciTegic.value.DoubleValue
6.334

@<SCITEGIC>MOL_PROPERTY
Coulomb
SciTegic.value.DoubleValue
-7.439

@<SCITEGIC>MOL_PROPERTY
VdW
SciTegic.value.DoubleValue
0.951

@<SCITEGIC>MOL_PROPERTY
VdW6
SciTegic.value.DoubleValue
-2.120

@<SCITEGIC>MOL_PROPERTY
VdW12
SciTegic.value.DoubleValue
3.072

@<SCITEGIC>MOL_PROPERTY
Bond
SciTegic.value.DoubleValue
0.065

@<SCITEGIC>MOL_PROPERTY
Angle
SciTegic.value.DoubleValue
0.930

@<SCITEGIC>MOL_PROPERTY
Pdih
SciTegic.value.DoubleValue
5.339

@<SCITEGIC>MOL_PROPERTY
Idih
SciTegic.value.DoubleValue
0.000

@<SCITEGIC>MOL_PROPERTY
Tether
SciTegic.value.DoubleValue
0.000

@<TRIPOS>MOLECULE
guest-s16_confgen4.mol2 : confsearch ligand conformer 398
          13          13           1
SMALL
USER_CHARGES
 
@<TRIPOS>ATOM
       1    C1      20.727735   19.320188   21.783374 C.3        1 MOL1        -0.1693
       2    H1      21.649941   18.902891   21.362213 H          1 MOL1         0.0829
       3    H2      20.755599   20.412400   21.676122 H          1 MOL1         0.0829
       4    C2      20.334410   18.817700   23.212281 C.3        1 MOL1        -0.1768
       5    H3      20.646964   17.790420   23.435379 H          1 MOL1         0.0829
       6    H4      20.629189   19.462882   24.047289 H          1 MOL1         0.0829
       7    C3      18.850774   18.947652   22.746056 C.3        1 MOL1         0.1211
       8    H5      18.176279   18.180996   23.148681 H          1 MOL1         0.0786
       9    C4      19.392465   18.654192   21.311989 C.3        1 MOL1        -0.1768
      10    H6      18.869878   19.155309   20.489714 H          1 MOL1         0.0829
      11    H7      19.476983   17.586902   21.073825 H          1 MOL1         0.0829
      12    O1      18.283124   20.230602   22.919140 O.3        1 MOL1        -0.5515
      13    H8      17.428346   20.237561   22.438037 H          1 MOL1         0.3773
@<TRIPOS>BOND
    1     1     2    1
    2     1     3    1
    3     1     4    1
    4     4     5    1
    5     4     6    1
    6     4     7    1
    7     7     8    1
    8     1     9    1
    9     7     9    1
   10     9    10    1
   11     9    11    1
   12     7    12    1
   13    12    13    1
@<TRIPOS>SUBSTRUCTURE
       1 MOL1            1 RESIDUE      1      MOL     
@<SCITEGIC>MOL_PROPERTY
VConf Rank
SciTegic.value.IntegerValue
398

@<SCITEGIC>MOL_PROPERTY
Conf_Id
SciTegic.value.IntegerValue
20

@<SCITEGIC>MOL_PROPERTY
Delta U+W
SciTegic.value.DoubleValue
1.030

@<SCITEGIC>MOL_PROPERTY
U+W
SciTegic.value.DoubleValue
-2.101

@<SCITEGIC>MOL_PROPERTY
Grad RMS
SciTegic.value.DoubleValue
0.000000

@<SCITEGIC>MOL_PROPERTY
U
SciTegic.value.DoubleValue
0.841

@<SCITEGIC>MOL_PROPERTY
W
SciTegic.value.DoubleValue
-2.942

@<SCITEGIC>MOL_PROPERTY
W(PB)
SciTegic.value.DoubleValue
-4.530

@<SCITEGIC>MOL_PROPERTY
W(SA)
SciTegic.value.DoubleValue
1.587

@<SCITEGIC>MOL_PROPERTY
Valence
SciTegic.value.DoubleValue
6.736

@<SCITEGIC>MOL_PROPERTY
Coulomb
SciTegic.value.DoubleValue
-7.246

@<SCITEGIC>MOL_PROPERTY
VdW
SciTegic.value.DoubleValue
1.352

@<SCITEGIC>MOL_PROPERTY
VdW6
SciTegic.value.DoubleValue
-2.500

@<SCITEGIC>MOL_PROPERTY
VdW12
SciTegic.value.DoubleValue
3.851

@<SCITEGIC>MOL_PROPERTY
Bond
SciTegic.value.DoubleValue
0.063

@<SCITEGIC>MOL_PROPERTY
Angle
SciTegic.value.DoubleValue
0.687

@<SCITEGIC>MOL_PROPERTY
Pdih
SciTegic.value.DoubleValue
5.986

@<SCITEGIC>MOL_PROPERTY
Idih
SciTegic.value.DoubleValue
0.000

@<SCITEGIC>MOL_PROPERTY
Tether
SciTegic.value.DoubleValue
0.000

@<TRIPOS>MOLECULE
guest-s16_confgen4.mol2 : confsearch ligand conformer 399
          13          13           1
SMALL
USER_CHARGES
 
@<TRIPOS>ATOM
       1    C1      19.412710   18.172278   23.171937 C.3        1 MOL1        -0.1693
       2    H1      20.090917   17.346387   23.424141 H          1 MOL1         0.0829
       3    H2      18.548630   18.133815   23.845961 H          1 MOL1         0.0829
       4    C2      19.089547   18.310888   21.647565 C.3        1 MOL1        -0.1768
       5    H3      19.061890   17.377985   21.073789 H          1 MOL1         0.0829
       6    H4      18.185172   18.889503   21.422397 H          1 MOL1         0.0829
       7    C3      20.420570   19.117470   21.564142 C.3        1 MOL1         0.1211
       8    H5      21.316521   18.488017   21.476081 H          1 MOL1         0.0786
       9    C4      20.106809   19.566371   23.023319 C.3        1 MOL1        -0.1768
      10    H6      19.429805   20.425601   23.105650 H          1 MOL1         0.0829
      11    H7      20.977550   19.742252   23.664542 H          1 MOL1         0.0829
      12    O1      20.443342   20.148770   20.606165 O.3        1 MOL1        -0.5515
      13    H8      19.625138   20.673499   20.732344 H          1 MOL1         0.3773
@<TRIPOS>BOND
    1     1     2    1
    2     1     3    1
    3     1     4    1
    4     4     5    1
    5     4     6    1
    6     4     7    1
    7     7     8    1
    8     1     9    1
    9     7     9    1
   10     9    10    1
   11     9    11    1
   12     7    12    1
   13    12    13    1
@<TRIPOS>SUBSTRUCTURE
       1 MOL1            1 RESIDUE      1      MOL     
@<SCITEGIC>MOL_PROPERTY
VConf Rank
SciTegic.value.IntegerValue
399

@<SCITEGIC>MOL_PROPERTY
Conf_Id
SciTegic.value.IntegerValue
24

@<SCITEGIC>MOL_PROPERTY
Delta U+W
SciTegic.value.DoubleValue
0.356

@<SCITEGIC>MOL_PROPERTY
U+W
SciTegic.value.DoubleValue
-2.775

@<SCITEGIC>MOL_PROPERTY
Grad RMS
SciTegic.value.DoubleValue
0.000000

@<SCITEGIC>MOL_PROPERTY
U
SciTegic.value.DoubleValue
-0.184

@<SCITEGIC>MOL_PROPERTY
W
SciTegic.value.DoubleValue
-2.591

@<SCITEGIC>MOL_PROPERTY
W(PB)
SciTegic.value.DoubleValue
-4.184

@<SCITEGIC>MOL_PROPERTY
W(SA)
SciTegic.value.DoubleValue
1.593

@<SCITEGIC>MOL_PROPERTY
Valence
SciTegic.value.DoubleValue
6.840

@<SCITEGIC>MOL_PROPERTY
Coulomb
SciTegic.value.DoubleValue
-7.916

@<SCITEGIC>MOL_PROPERTY
VdW
SciTegic.value.DoubleValue
0.893

@<SCITEGIC>MOL_PROPERTY
VdW6
SciTegic.value.DoubleValue
-2.167

@<SCITEGIC>MOL_PROPERTY
VdW12
SciTegic.value.DoubleValue
3.060

@<SCITEGIC>MOL_PROPERTY
Bond
SciTegic.value.DoubleValue
0.059

@<SCITEGIC>MOL_PROPERTY
Angle
SciTegic.value.DoubleValue
0.918

@<SCITEGIC>MOL_PROPERTY
Pdih
SciTegic.value.DoubleValue
5.862

@<SCITEGIC>MOL_PROPERTY
Idih
SciTegic.value.DoubleValue
0.000

@<SCITEGIC>MOL_PROPERTY
Tether
SciTegic.value.DoubleValue
0.000

@<TRIPOS>MOLECULE
guest-s16_confgen4.mol2 : confsearch ligand conformer 400
          13          13           1
SMALL
USER_CHARGES
 
@<TRIPOS>ATOM
       1    C1      18.595102   18.978195   21.964090 C.3        1 MOL1        -0.1693
       2    H1      17.735026   18.384646   21.631912 H          1 MOL1         0.0829
       3    H2      18.260638   20.010109   22.130175 H          1 MOL1         0.0829
       4    C2      19.896004   18.837880   21.104961 C.3        1 MOL1        -0.1768
       5    H3      20.021849   17.857427   20.629683 H          1 MOL1         0.0829
       6    H4      20.062783   19.614585   20.350227 H          1 MOL1         0.0829
       7    C3      20.685713   19.003875   22.440176 C.3        1 MOL1         0.1211
       8    H5      21.605892   18.409621   22.508131 H          1 MOL1         0.0786
       9    C4      19.440763   18.364476   23.129569 C.3        1 MOL1        -0.1768
      10    H6      19.454988   17.267951   23.150695 H          1 MOL1         0.0829
      11    H7      19.211291   18.729121   24.137083 H          1 MOL1         0.0829
      12    O1      20.946133   20.340372   22.811235 O.3        1 MOL1        -0.5515
      13    H8      20.095675   20.819712   22.732072 H          1 MOL1         0.3773
@<TRIPOS>BOND
    1     1     2    1
    2     1     3    1
    3     1     4    1
    4     4     5    1
    5     4     6    1
    6     4     7    1
    7     7     8    1
    8     1     9    1
    9     7     9    1
   10     9    10    1
   11     9    11    1
   12     7    12    1
   13    12    13    1
@<TRIPOS>SUBSTRUCTURE
       1 MOL1            1 RESIDUE      1      MOL     
@<SCITEGIC>MOL_PROPERTY
VConf Rank
SciTegic.value.IntegerValue
400

@<SCITEGIC>MOL_PROPERTY
Conf_Id
SciTegic.value.IntegerValue
44

@<SCITEGIC>MOL_PROPERTY
Delta U+W
SciTegic.value.DoubleValue
0.823

@<SCITEGIC>MOL_PROPERTY
U+W
SciTegic.value.DoubleValue
-2.308

@<SCITEGIC>MOL_PROPERTY
Grad RMS
SciTegic.value.DoubleValue
0.000000

@<SCITEGIC>MOL_PROPERTY
U
SciTegic.value.DoubleValue
0.039

@<SCITEGIC>MOL_PROPERTY
W
SciTegic.value.DoubleValue
-2.348

@<SCITEGIC>MOL_PROPERTY
W(PB)
SciTegic.value.DoubleValue
-3.918

@<SCITEGIC>MOL_PROPERTY
W(SA)
SciTegic.value.DoubleValue
1.571

@<SCITEGIC>MOL_PROPERTY
Valence
SciTegic.value.DoubleValue
7.320

@<SCITEGIC>MOL_PROPERTY
Coulomb
SciTegic.value.DoubleValue
-8.530

@<SCITEGIC>MOL_PROPERTY
VdW
SciTegic.value.DoubleValue
1.249

@<SCITEGIC>MOL_PROPERTY
VdW6
SciTegic.value.DoubleValue
-2.615

@<SCITEGIC>MOL_PROPERTY
VdW12
SciTegic.value.DoubleValue
3.864

@<SCITEGIC>MOL_PROPERTY
Bond
SciTegic.value.DoubleValue
0.056

@<SCITEGIC>MOL_PROPERTY
Angle
SciTegic.value.DoubleValue
0.694

@<SCITEGIC>MOL_PROPERTY
Pdih
SciTegic.value.DoubleValue
6.570

@<SCITEGIC>MOL_PROPERTY
Idih
SciTegic.value.DoubleValue
0.000

@<SCITEGIC>MOL_PROPERTY
Tether
SciTegic.value.DoubleValue
0.000

@<TRIPOS>MOLECULE
guest-s16_confgen4.mol2 : confsearch ligand conformer 401
          13          13           1
SMALL
USER_CHARGES
 
@<TRIPOS>ATOM
       1    C1      18.464393   19.309421   22.721291 C.3        1 MOL1        -0.1693
       2    H1      18.444708   20.167112   23.406539 H          1 MOL1         0.0829
       3    H2      17.439042   18.944945   22.586570 H          1 MOL1         0.0829
       4    C2      19.539850   18.225206   23.060667 C.3        1 MOL1        -0.1768
       5    H3      19.767787   18.085961   24.123030 H          1 MOL1         0.0829
       6    H4      19.361580   17.242711   22.606232 H          1 MOL1         0.0829
       7    C3      20.528723   19.132883   22.268771 C.3        1 MOL1         0.1211
       8    H5      20.946860   19.956576   22.863543 H          1 MOL1         0.0786
       9    C4      19.290549   19.536146   21.412326 C.3        1 MOL1        -0.1768
      10    H6      19.295656   20.557503   21.016124 H          1 MOL1         0.0829
      11    H7      19.055251   18.841794   20.596052 H          1 MOL1         0.0829
      12    O1      21.546576   18.451204   21.573188 O.3        1 MOL1        -0.5515
      13    H8      21.991752   19.106447   20.993811 H          1 MOL1         0.3773
@<TRIPOS>BOND
    1     1     2    1
    2     1     3    1
    3     1     4    1
    4     4     5    1
    5     4     6    1
    6     4     7    1
    7     7     8    1
    8     1     9    1
    9     7     9    1
   10     9    10    1
   11     9    11    1
   12     7    12    1
   13    12    13    1
@<TRIPOS>SUBSTRUCTURE
       1 MOL1            1 RESIDUE      1      MOL     
@<SCITEGIC>MOL_PROPERTY
VConf Rank
SciTegic.value.IntegerValue
401

@<SCITEGIC>MOL_PROPERTY
Conf_Id
SciTegic.value.IntegerValue
22

@<SCITEGIC>MOL_PROPERTY
Delta U+W
SciTegic.value.DoubleValue
0.000

@<SCITEGIC>MOL_PROPERTY
U+W
SciTegic.value.DoubleValue
-3.131

@<SCITEGIC>MOL_PROPERTY
Grad RMS
SciTegic.value.DoubleValue
0.000000

@<SCITEGIC>MOL_PROPERTY
U
SciTegic.value.DoubleValue
-0.154

@<SCITEGIC>MOL_PROPERTY
W
SciTegic.value.DoubleValue
-2.978

@<SCITEGIC>MOL_PROPERTY
W(PB)
SciTegic.value.DoubleValue
-4.579

@<SCITEGIC>MOL_PROPERTY
W(SA)
SciTegic.value.DoubleValue
1.601

@<SCITEGIC>MOL_PROPERTY
Valence
SciTegic.value.DoubleValue
6.333

@<SCITEGIC>MOL_PROPERTY
Coulomb
SciTegic.value.DoubleValue
-7.439

@<SCITEGIC>MOL_PROPERTY
VdW
SciTegic.value.DoubleValue
0.952

@<SCITEGIC>MOL_PROPERTY
VdW6
SciTegic.value.DoubleValue
-2.120

@<SCITEGIC>MOL_PROPERTY
VdW12
SciTegic.value.DoubleValue
3.072

@<SCITEGIC>MOL_PROPERTY
Bond
SciTegic.value.DoubleValue
0.065

@<SCITEGIC>MOL_PROPERTY
Angle
SciTegic.value.DoubleValue
0.931

@<SCITEGIC>MOL_PROPERTY
Pdih
SciTegic.value.DoubleValue
5.338

@<SCITEGIC>MOL_PROPERTY
Idih
SciTegic.value.DoubleValue
0.000

@<SCITEGIC>MOL_PROPERTY
Tether
SciTegic.value.DoubleValue
0.000

@<TRIPOS>MOLECULE
guest-s16_confgen4.mol2 : confsearch ligand conformer 402
          13          13           1
SMALL
USER_CHARGES
 
@<TRIPOS>ATOM
       1    C1      18.573683   18.478085   22.898928 C.3        1 MOL1        -0.1693
       2    H1      17.684728   18.362174   22.264964 H          1 MOL1         0.0829
       3    H2      18.302563   18.228382   23.931634 H          1 MOL1         0.0829
       4    C2      19.350387   19.821107   22.698046 C.3        1 MOL1        -0.1768
       5    H3      20.019880   20.091120   23.524281 H          1 MOL1         0.0829
       6    H4      18.743406   20.694663   22.436042 H          1 MOL1         0.0829
       7    C3      20.049819   19.097464   21.507949 C.3        1 MOL1         0.1211
       8    H5      19.469449   19.110198   20.575173 H          1 MOL1         0.0786
       9    C4      19.866915   17.794903   22.343846 C.3        1 MOL1        -0.1768
      10    H6      20.651395   17.620280   23.090628 H          1 MOL1         0.0829
      11    H7      19.718711   16.875605   21.766881 H          1 MOL1         0.0829
      12    O1      21.385197   19.478790   21.271508 O.3        1 MOL1        -0.5515
      13    H8      21.365967   20.381611   20.887129 H          1 MOL1         0.3773
@<TRIPOS>BOND
    1     1     2    1
    2     1     3    1
    3     1     4    1
    4     4     5    1
    5     4     6    1
    6     4     7    1
    7     7     8    1
    8     1     9    1
    9     7     9    1
   10     9    10    1
   11     9    11    1
   12     7    12    1
   13    12    13    1
@<TRIPOS>SUBSTRUCTURE
       1 MOL1            1 RESIDUE      1      MOL     
@<SCITEGIC>MOL_PROPERTY
VConf Rank
SciTegic.value.IntegerValue
402

@<SCITEGIC>MOL_PROPERTY
Conf_Id
SciTegic.value.IntegerValue
19

@<SCITEGIC>MOL_PROPERTY
Delta U+W
SciTegic.value.DoubleValue
-0.011

@<SCITEGIC>MOL_PROPERTY
U+W
SciTegic.value.DoubleValue
-3.142

@<SCITEGIC>MOL_PROPERTY
Grad RMS
SciTegic.value.DoubleValue
0.000000

@<SCITEGIC>MOL_PROPERTY
U
SciTegic.value.DoubleValue
-0.154

@<SCITEGIC>MOL_PROPERTY
W
SciTegic.value.DoubleValue
-2.989

@<SCITEGIC>MOL_PROPERTY
W(PB)
SciTegic.value.DoubleValue
-4.588

@<SCITEGIC>MOL_PROPERTY
W(SA)
SciTegic.value.DoubleValue
1.599

@<SCITEGIC>MOL_PROPERTY
Valence
SciTegic.value.DoubleValue
6.334

@<SCITEGIC>MOL_PROPERTY
Coulomb
SciTegic.value.DoubleValue
-7.439

@<SCITEGIC>MOL_PROPERTY
VdW
SciTegic.value.DoubleValue
0.951

@<SCITEGIC>MOL_PROPERTY
VdW6
SciTegic.value.DoubleValue
-2.120

@<SCITEGIC>MOL_PROPERTY
VdW12
SciTegic.value.DoubleValue
3.072

@<SCITEGIC>MOL_PROPERTY
Bond
SciTegic.value.DoubleValue
0.065

@<SCITEGIC>MOL_PROPERTY
Angle
SciTegic.value.DoubleValue
0.930

@<SCITEGIC>MOL_PROPERTY
Pdih
SciTegic.value.DoubleValue
5.339

@<SCITEGIC>MOL_PROPERTY
Idih
SciTegic.value.DoubleValue
0.000

@<SCITEGIC>MOL_PROPERTY
Tether
SciTegic.value.DoubleValue
0.000

@<TRIPOS>MOLECULE
guest-s16_confgen4.mol2 : confsearch ligand conformer 403
          13          13           1
SMALL
USER_CHARGES
 
@<TRIPOS>ATOM
       1    C1      18.982107   18.484648   21.402428 C.3        1 MOL1        -0.1693
       2    H1      18.355891   17.616060   21.167087 H          1 MOL1         0.0829
       3    H2      19.001696   19.150170   20.529557 H          1 MOL1         0.0829
       4    C2      20.388678   18.173916   22.013963 C.3        1 MOL1        -0.1768
       5    H3      20.428827   17.262746   22.622998 H          1 MOL1         0.0829
       6    H4      21.227659   18.161803   21.309437 H          1 MOL1         0.0829
       7    C3      20.214984   19.487228   22.838869 C.3        1 MOL1         0.1211
       8    H5      20.638449   19.450759   23.850877 H          1 MOL1         0.0786
       9    C4      18.682497   19.201834   22.760580 C.3        1 MOL1        -0.1768
      10    H6      18.032569   20.082143   22.705793 H          1 MOL1         0.0829
      11    H7      18.308354   18.539514   23.550721 H          1 MOL1         0.0829
      12    O1      20.637805   20.663994   22.179635 O.3        1 MOL1        -0.5515
      13    H8      20.322168   21.424881   22.712155 H          1 MOL1         0.3773
@<TRIPOS>BOND
    1     1     2    1
    2     1     3    1
    3     1     4    1
    4     4     5    1
    5     4     6    1
    6     4     7    1
    7     7     8    1
    8     1     9    1
    9     7     9    1
   10     9    10    1
   11     9    11    1
   12     7    12    1
   13    12    13    1
@<TRIPOS>SUBSTRUCTURE
       1 MOL1            1 RESIDUE      1      MOL     
@<SCITEGIC>MOL_PROPERTY
VConf Rank
SciTegic.value.IntegerValue
403

@<SCITEGIC>MOL_PROPERTY
Conf_Id
SciTegic.value.IntegerValue
20

@<SCITEGIC>MOL_PROPERTY
Delta U+W
SciTegic.value.DoubleValue
1.030

@<SCITEGIC>MOL_PROPERTY
U+W
SciTegic.value.DoubleValue
-2.101

@<SCITEGIC>MOL_PROPERTY
Grad RMS
SciTegic.value.DoubleValue
0.000000

@<SCITEGIC>MOL_PROPERTY
U
SciTegic.value.DoubleValue
0.841

@<SCITEGIC>MOL_PROPERTY
W
SciTegic.value.DoubleValue
-2.942

@<SCITEGIC>MOL_PROPERTY
W(PB)
SciTegic.value.DoubleValue
-4.530

@<SCITEGIC>MOL_PROPERTY
W(SA)
SciTegic.value.DoubleValue
1.587

@<SCITEGIC>MOL_PROPERTY
Valence
SciTegic.value.DoubleValue
6.736

@<SCITEGIC>MOL_PROPERTY
Coulomb
SciTegic.value.DoubleValue
-7.246

@<SCITEGIC>MOL_PROPERTY
VdW
SciTegic.value.DoubleValue
1.352

@<SCITEGIC>MOL_PROPERTY
VdW6
SciTegic.value.DoubleValue
-2.500

@<SCITEGIC>MOL_PROPERTY
VdW12
SciTegic.value.DoubleValue
3.851

@<SCITEGIC>MOL_PROPERTY
Bond
SciTegic.value.DoubleValue
0.063

@<SCITEGIC>MOL_PROPERTY
Angle
SciTegic.value.DoubleValue
0.687

@<SCITEGIC>MOL_PROPERTY
Pdih
SciTegic.value.DoubleValue
5.986

@<SCITEGIC>MOL_PROPERTY
Idih
SciTegic.value.DoubleValue
0.000

@<SCITEGIC>MOL_PROPERTY
Tether
SciTegic.value.DoubleValue
0.000

@<TRIPOS>MOLECULE
guest-s16_confgen4.mol2 : confsearch ligand conformer 404
          13          13           1
SMALL
USER_CHARGES
 
@<TRIPOS>ATOM
       1    C1      20.883735   18.435285   21.926021 C.3        1 MOL1        -0.1693
       2    H1      21.739789   18.685208   22.566628 H          1 MOL1         0.0829
       3    H2      21.224200   17.754280   21.136885 H          1 MOL1         0.0829
       4    C2      20.038224   19.664494   21.455368 C.3        1 MOL1        -0.1768
       5    H3      20.589714   20.598566   21.301547 H          1 MOL1         0.0829
       6    H4      19.409958   19.477773   20.575706 H          1 MOL1         0.0829
       7    C3      19.305276   19.528908   22.824148 C.3        1 MOL1         0.1211
       8    H5      19.830504   20.012516   23.658985 H          1 MOL1         0.0786
       9    C4      19.593658   18.002461   22.697852 C.3        1 MOL1        -0.1768
      10    H6      18.866026   17.444254   22.095900 H          1 MOL1         0.0829
      11    H7      19.752526   17.468705   23.641333 H          1 MOL1         0.0829
      12    O1      17.944442   19.889360   22.819404 O.3        1 MOL1        -0.5515
      13    H8      17.530549   19.431028   22.058258 H          1 MOL1         0.3773
@<TRIPOS>BOND
    1     1     2    1
    2     1     3    1
    3     1     4    1
    4     4     5    1
    5     4     6    1
    6     4     7    1
    7     7     8    1
    8     1     9    1
    9     7     9    1
   10     9    10    1
   11     9    11    1
   12     7    12    1
   13    12    13    1
@<TRIPOS>SUBSTRUCTURE
       1 MOL1            1 RESIDUE      1      MOL     
@<SCITEGIC>MOL_PROPERTY
VConf Rank
SciTegic.value.IntegerValue
404

@<SCITEGIC>MOL_PROPERTY
Conf_Id
SciTegic.value.IntegerValue
24

@<SCITEGIC>MOL_PROPERTY
Delta U+W
SciTegic.value.DoubleValue
0.356

@<SCITEGIC>MOL_PROPERTY
U+W
SciTegic.value.DoubleValue
-2.775

@<SCITEGIC>MOL_PROPERTY
Grad RMS
SciTegic.value.DoubleValue
0.000000

@<SCITEGIC>MOL_PROPERTY
U
SciTegic.value.DoubleValue
-0.184

@<SCITEGIC>MOL_PROPERTY
W
SciTegic.value.DoubleValue
-2.591

@<SCITEGIC>MOL_PROPERTY
W(PB)
SciTegic.value.DoubleValue
-4.184

@<SCITEGIC>MOL_PROPERTY
W(SA)
SciTegic.value.DoubleValue
1.593

@<SCITEGIC>MOL_PROPERTY
Valence
SciTegic.value.DoubleValue
6.840

@<SCITEGIC>MOL_PROPERTY
Coulomb
SciTegic.value.DoubleValue
-7.916

@<SCITEGIC>MOL_PROPERTY
VdW
SciTegic.value.DoubleValue
0.893

@<SCITEGIC>MOL_PROPERTY
VdW6
SciTegic.value.DoubleValue
-2.167

@<SCITEGIC>MOL_PROPERTY
VdW12
SciTegic.value.DoubleValue
3.060

@<SCITEGIC>MOL_PROPERTY
Bond
SciTegic.value.DoubleValue
0.059

@<SCITEGIC>MOL_PROPERTY
Angle
SciTegic.value.DoubleValue
0.918

@<SCITEGIC>MOL_PROPERTY
Pdih
SciTegic.value.DoubleValue
5.862

@<SCITEGIC>MOL_PROPERTY
Idih
SciTegic.value.DoubleValue
0.000

@<SCITEGIC>MOL_PROPERTY
Tether
SciTegic.value.DoubleValue
0.000

@<TRIPOS>MOLECULE
guest-s16_confgen4.mol2 : confsearch ligand conformer 405
          13          13           1
SMALL
USER_CHARGES
 
@<TRIPOS>ATOM
       1    C1      18.867532   18.431860   22.751449 C.3        1 MOL1        -0.1693
       2    H1      18.600949   17.565327   23.368237 H          1 MOL1         0.0829
       3    H2      17.963203   19.031299   22.586655 H          1 MOL1         0.0829
       4    C2      19.697386   18.123481   21.460564 C.3        1 MOL1        -0.1768
       5    H3      20.356356   17.250569   21.543009 H          1 MOL1         0.0829
       6    H4      19.127997   18.042964   20.527814 H          1 MOL1         0.0829
       7    C3      20.414051   19.487295   21.706315 C.3        1 MOL1         0.1211
       8    H5      21.478717   19.502778   21.440356 H          1 MOL1         0.0786
       9    C4      20.120419   19.245195   23.219313 C.3        1 MOL1        -0.1768
      10    H6      20.883109   18.647309   23.732977 H          1 MOL1         0.0829
      11    H7      19.919245   20.141031   23.817405 H          1 MOL1         0.0829
      12    O1      19.761289   20.607506   21.148860 O.3        1 MOL1        -0.5515
      13    H8      18.821603   20.541358   21.417054 H          1 MOL1         0.3773
@<TRIPOS>BOND
    1     1     2    1
    2     1     3    1
    3     1     4    1
    4     4     5    1
    5     4     6    1
    6     4     7    1
    7     7     8    1
    8     1     9    1
    9     7     9    1
   10     9    10    1
   11     9    11    1
   12     7    12    1
   13    12    13    1
@<TRIPOS>SUBSTRUCTURE
       1 MOL1            1 RESIDUE      1      MOL     
@<SCITEGIC>MOL_PROPERTY
VConf Rank
SciTegic.value.IntegerValue
405

@<SCITEGIC>MOL_PROPERTY
Conf_Id
SciTegic.value.IntegerValue
44

@<SCITEGIC>MOL_PROPERTY
Delta U+W
SciTegic.value.DoubleValue
0.823

@<SCITEGIC>MOL_PROPERTY
U+W
SciTegic.value.DoubleValue
-2.308

@<SCITEGIC>MOL_PROPERTY
Grad RMS
SciTegic.value.DoubleValue
0.000000

@<SCITEGIC>MOL_PROPERTY
U
SciTegic.value.DoubleValue
0.039

@<SCITEGIC>MOL_PROPERTY
W
SciTegic.value.DoubleValue
-2.348

@<SCITEGIC>MOL_PROPERTY
W(PB)
SciTegic.value.DoubleValue
-3.918

@<SCITEGIC>MOL_PROPERTY
W(SA)
SciTegic.value.DoubleValue
1.571

@<SCITEGIC>MOL_PROPERTY
Valence
SciTegic.value.DoubleValue
7.320

@<SCITEGIC>MOL_PROPERTY
Coulomb
SciTegic.value.DoubleValue
-8.530

@<SCITEGIC>MOL_PROPERTY
VdW
SciTegic.value.DoubleValue
1.249

@<SCITEGIC>MOL_PROPERTY
VdW6
SciTegic.value.DoubleValue
-2.615

@<SCITEGIC>MOL_PROPERTY
VdW12
SciTegic.value.DoubleValue
3.864

@<SCITEGIC>MOL_PROPERTY
Bond
SciTegic.value.DoubleValue
0.056

@<SCITEGIC>MOL_PROPERTY
Angle
SciTegic.value.DoubleValue
0.694

@<SCITEGIC>MOL_PROPERTY
Pdih
SciTegic.value.DoubleValue
6.570

@<SCITEGIC>MOL_PROPERTY
Idih
SciTegic.value.DoubleValue
0.000

@<SCITEGIC>MOL_PROPERTY
Tether
SciTegic.value.DoubleValue
0.000

@<TRIPOS>MOLECULE
guest-s16_confgen4.mol2 : confsearch ligand conformer 406
          13          13           1
SMALL
USER_CHARGES
 
@<TRIPOS>ATOM
       1    C1      20.438586   17.974677   22.177343 C.3        1 MOL1        -0.1693
       2    H1      21.167410   18.015968   21.357162 H          1 MOL1         0.0829
       3    H2      20.603372   17.051997   22.746418 H          1 MOL1         0.0829
       4    C2      18.960863   18.266664   21.754986 C.3        1 MOL1        -0.1768
       5    H3      18.673740   17.947272   20.747261 H          1 MOL1         0.0829
       6    H4      18.201855   17.916909   22.465735 H          1 MOL1         0.0829
       7    C3      19.342833   19.770015   21.906256 C.3        1 MOL1         0.1211
       8    H5      19.842002   20.191148   21.022774 H          1 MOL1         0.0786
       9    C4      20.323782   19.289094   23.017853 C.3        1 MOL1        -0.1768
      10    H6      21.244229   19.872844   23.128239 H          1 MOL1         0.0829
      11    H7      19.865359   19.162059   24.006541 H          1 MOL1         0.0829
      12    O1      18.303498   20.614426   22.343630 O.3        1 MOL1        -0.5515
      13    H8      18.705200   21.484833   22.553943 H          1 MOL1         0.3773
@<TRIPOS>BOND
    1     1     2    1
    2     1     3    1
    3     1     4    1
    4     4     5    1
    5     4     6    1
    6     4     7    1
    7     7     8    1
    8     1     9    1
    9     7     9    1
   10     9    10    1
   11     9    11    1
   12     7    12    1
   13    12    13    1
@<TRIPOS>SUBSTRUCTURE
       1 MOL1            1 RESIDUE      1      MOL     
@<SCITEGIC>MOL_PROPERTY
VConf Rank
SciTegic.value.IntegerValue
406

@<SCITEGIC>MOL_PROPERTY
Conf_Id
SciTegic.value.IntegerValue
22

@<SCITEGIC>MOL_PROPERTY
Delta U+W
SciTegic.value.DoubleValue
0.000

@<SCITEGIC>MOL_PROPERTY
U+W
SciTegic.value.DoubleValue
-3.131

@<SCITEGIC>MOL_PROPERTY
Grad RMS
SciTegic.value.DoubleValue
0.000000

@<SCITEGIC>MOL_PROPERTY
U
SciTegic.value.DoubleValue
-0.154

@<SCITEGIC>MOL_PROPERTY
W
SciTegic.value.DoubleValue
-2.978

@<SCITEGIC>MOL_PROPERTY
W(PB)
SciTegic.value.DoubleValue
-4.579

@<SCITEGIC>MOL_PROPERTY
W(SA)
SciTegic.value.DoubleValue
1.601

@<SCITEGIC>MOL_PROPERTY
Valence
SciTegic.value.DoubleValue
6.333

@<SCITEGIC>MOL_PROPERTY
Coulomb
SciTegic.value.DoubleValue
-7.439

@<SCITEGIC>MOL_PROPERTY
VdW
SciTegic.value.DoubleValue
0.952

@<SCITEGIC>MOL_PROPERTY
VdW6
SciTegic.value.DoubleValue
-2.120

@<SCITEGIC>MOL_PROPERTY
VdW12
SciTegic.value.DoubleValue
3.072

@<SCITEGIC>MOL_PROPERTY
Bond
SciTegic.value.DoubleValue
0.065

@<SCITEGIC>MOL_PROPERTY
Angle
SciTegic.value.DoubleValue
0.931

@<SCITEGIC>MOL_PROPERTY
Pdih
SciTegic.value.DoubleValue
5.338

@<SCITEGIC>MOL_PROPERTY
Idih
SciTegic.value.DoubleValue
0.000

@<SCITEGIC>MOL_PROPERTY
Tether
SciTegic.value.DoubleValue
0.000

@<TRIPOS>MOLECULE
guest-s16_confgen4.mol2 : confsearch ligand conformer 407
          13          13           1
SMALL
USER_CHARGES
 
@<TRIPOS>ATOM
       1    C1      20.507836   19.610117   21.537929 C.3        1 MOL1        -0.1693
       2    H1      21.309039   18.988458   21.116979 H          1 MOL1         0.0829
       3    H2      20.705582   20.657666   21.281267 H          1 MOL1         0.0829
       4    C2      20.175475   19.321472   23.039112 C.3        1 MOL1        -0.1768
       5    H3      19.633245   20.126183   23.551185 H          1 MOL1         0.0829
       6    H4      21.016165   19.007277   23.667360 H          1 MOL1         0.0829
       7    C3      19.270215   18.176619   22.492293 C.3        1 MOL1         0.1211
       8    H5      19.812316   17.247329   22.269564 H          1 MOL1         0.0786
       9    C4      19.059354   19.093972   21.250180 C.3        1 MOL1        -0.1768
      10    H6      18.270613   19.847029   21.370080 H          1 MOL1         0.0829
      11    H7      18.910787   18.576920   20.295954 H          1 MOL1         0.0829
      12    O1      18.111657   17.910979   23.248420 O.3        1 MOL1        -0.5515
      13    H8      18.399815   17.470358   24.076685 H          1 MOL1         0.3773
@<TRIPOS>BOND
    1     1     2    1
    2     1     3    1
    3     1     4    1
    4     4     5    1
    5     4     6    1
    6     4     7    1
    7     7     8    1
    8     1     9    1
    9     7     9    1
   10     9    10    1
   11     9    11    1
   12     7    12    1
   13    12    13    1
@<TRIPOS>SUBSTRUCTURE
       1 MOL1            1 RESIDUE      1      MOL     
@<SCITEGIC>MOL_PROPERTY
VConf Rank
SciTegic.value.IntegerValue
407

@<SCITEGIC>MOL_PROPERTY
Conf_Id
SciTegic.value.IntegerValue
19

@<SCITEGIC>MOL_PROPERTY
Delta U+W
SciTegic.value.DoubleValue
-0.011

@<SCITEGIC>MOL_PROPERTY
U+W
SciTegic.value.DoubleValue
-3.142

@<SCITEGIC>MOL_PROPERTY
Grad RMS
SciTegic.value.DoubleValue
0.000000

@<SCITEGIC>MOL_PROPERTY
U
SciTegic.value.DoubleValue
-0.154

@<SCITEGIC>MOL_PROPERTY
W
SciTegic.value.DoubleValue
-2.989

@<SCITEGIC>MOL_PROPERTY
W(PB)
SciTegic.value.DoubleValue
-4.588

@<SCITEGIC>MOL_PROPERTY
W(SA)
SciTegic.value.DoubleValue
1.599

@<SCITEGIC>MOL_PROPERTY
Valence
SciTegic.value.DoubleValue
6.334

@<SCITEGIC>MOL_PROPERTY
Coulomb
SciTegic.value.DoubleValue
-7.439

@<SCITEGIC>MOL_PROPERTY
VdW
SciTegic.value.DoubleValue
0.951

@<SCITEGIC>MOL_PROPERTY
VdW6
SciTegic.value.DoubleValue
-2.120

@<SCITEGIC>MOL_PROPERTY
VdW12
SciTegic.value.DoubleValue
3.072

@<SCITEGIC>MOL_PROPERTY
Bond
SciTegic.value.DoubleValue
0.065

@<SCITEGIC>MOL_PROPERTY
Angle
SciTegic.value.DoubleValue
0.930

@<SCITEGIC>MOL_PROPERTY
Pdih
SciTegic.value.DoubleValue
5.339

@<SCITEGIC>MOL_PROPERTY
Idih
SciTegic.value.DoubleValue
0.000

@<SCITEGIC>MOL_PROPERTY
Tether
SciTegic.value.DoubleValue
0.000

@<TRIPOS>MOLECULE
guest-s16_confgen4.mol2 : confsearch ligand conformer 408
          13          13           1
SMALL
USER_CHARGES
 
@<TRIPOS>ATOM
       1    C1      18.887558   19.868724   22.826820 C.3        1 MOL1        -0.1693
       2    H1      17.882611   20.306943   22.831501 H          1 MOL1         0.0829
       3    H2      19.449169   20.269164   23.680897 H          1 MOL1         0.0829
       4    C2      19.654559   19.919697   21.463706 C.3        1 MOL1        -0.1768
       5    H3      19.010507   19.873761   20.577223 H          1 MOL1         0.0829
       6    H4      20.362112   20.747071   21.340356 H          1 MOL1         0.0829
       7    C3      20.278800   18.548981   21.872229 C.3        1 MOL1         0.1211
       8    H5      20.441196   17.853973   21.038320 H          1 MOL1         0.0786
       9    C4      18.959757   18.313182   22.672616 C.3        1 MOL1        -0.1768
      10    H6      19.058209   17.742348   23.602566 H          1 MOL1         0.0829
      11    H7      18.146528   17.877673   22.079349 H          1 MOL1         0.0829
      12    O1      21.448134   18.639504   22.661283 O.3        1 MOL1        -0.5515
      13    H8      21.642547   17.738673   22.997234 H          1 MOL1         0.3773
@<TRIPOS>BOND
    1     1     2    1
    2     1     3    1
    3     1     4    1
    4     4     5    1
    5     4     6    1
    6     4     7    1
    7     7     8    1
    8     1     9    1
    9     7     9    1
   10     9    10    1
   11     9    11    1
   12     7    12    1
   13    12    13    1
@<TRIPOS>SUBSTRUCTURE
       1 MOL1            1 RESIDUE      1      MOL     
@<SCITEGIC>MOL_PROPERTY
VConf Rank
SciTegic.value.IntegerValue
408

@<SCITEGIC>MOL_PROPERTY
Conf_Id
SciTegic.value.IntegerValue
20

@<SCITEGIC>MOL_PROPERTY
Delta U+W
SciTegic.value.DoubleValue
1.030

@<SCITEGIC>MOL_PROPERTY
U+W
SciTegic.value.DoubleValue
-2.101

@<SCITEGIC>MOL_PROPERTY
Grad RMS
SciTegic.value.DoubleValue
0.000000

@<SCITEGIC>MOL_PROPERTY
U
SciTegic.value.DoubleValue
0.841

@<SCITEGIC>MOL_PROPERTY
W
SciTegic.value.DoubleValue
-2.942

@<SCITEGIC>MOL_PROPERTY
W(PB)
SciTegic.value.DoubleValue
-4.530

@<SCITEGIC>MOL_PROPERTY
W(SA)
SciTegic.value.DoubleValue
1.587

@<SCITEGIC>MOL_PROPERTY
Valence
SciTegic.value.DoubleValue
6.736

@<SCITEGIC>MOL_PROPERTY
Coulomb
SciTegic.value.DoubleValue
-7.246

@<SCITEGIC>MOL_PROPERTY
VdW
SciTegic.value.DoubleValue
1.352

@<SCITEGIC>MOL_PROPERTY
VdW6
SciTegic.value.DoubleValue
-2.500

@<SCITEGIC>MOL_PROPERTY
VdW12
SciTegic.value.DoubleValue
3.851

@<SCITEGIC>MOL_PROPERTY
Bond
SciTegic.value.DoubleValue
0.063

@<SCITEGIC>MOL_PROPERTY
Angle
SciTegic.value.DoubleValue
0.687

@<SCITEGIC>MOL_PROPERTY
Pdih
SciTegic.value.DoubleValue
5.986

@<SCITEGIC>MOL_PROPERTY
Idih
SciTegic.value.DoubleValue
0.000

@<SCITEGIC>MOL_PROPERTY
Tether
SciTegic.value.DoubleValue
0.000

@<TRIPOS>MOLECULE
guest-s16_confgen4.mol2 : confsearch ligand conformer 409
          13          13           1
SMALL
USER_CHARGES
 
@<TRIPOS>ATOM
       1    C1      19.181251   18.922668   23.361935 C.3        1 MOL1        -0.1693
       2    H1      19.605997   19.543459   24.161860 H          1 MOL1         0.0829
       3    H2      18.312923   18.384423   23.760333 H          1 MOL1         0.0829
       4    C2      20.225405   18.059301   22.579824 C.3        1 MOL1        -0.1768
       5    H3      21.086558   17.704514   23.156741 H          1 MOL1         0.0829
       6    H4      19.797938   17.212524   22.028799 H          1 MOL1         0.0829
       7    C3      20.464133   19.341898   21.727116 C.3        1 MOL1         0.1211
       8    H5      21.163706   20.055062   22.183941 H          1 MOL1         0.0786
       9    C4      18.964668   19.665840   22.002471 C.3        1 MOL1        -0.1768
      10    H6      18.255411   19.178143   21.322401 H          1 MOL1         0.0829
      11    H7      18.712399   20.729870   22.069494 H          1 MOL1         0.0829
      12    O1      20.796070   19.117397   20.377585 O.3        1 MOL1        -0.5515
      13    H8      20.142144   18.477740   20.025535 H          1 MOL1         0.3773
@<TRIPOS>BOND
    1     1     2    1
    2     1     3    1
    3     1     4    1
    4     4     5    1
    5     4     6    1
    6     4     7    1
    7     7     8    1
    8     1     9    1
    9     7     9    1
   10     9    10    1
   11     9    11    1
   12     7    12    1
   13    12    13    1
@<TRIPOS>SUBSTRUCTURE
       1 MOL1            1 RESIDUE      1      MOL     
@<SCITEGIC>MOL_PROPERTY
VConf Rank
SciTegic.value.IntegerValue
409

@<SCITEGIC>MOL_PROPERTY
Conf_Id
SciTegic.value.IntegerValue
24

@<SCITEGIC>MOL_PROPERTY
Delta U+W
SciTegic.value.DoubleValue
0.356

@<SCITEGIC>MOL_PROPERTY
U+W
SciTegic.value.DoubleValue
-2.775

@<SCITEGIC>MOL_PROPERTY
Grad RMS
SciTegic.value.DoubleValue
0.000000

@<SCITEGIC>MOL_PROPERTY
U
SciTegic.value.DoubleValue
-0.184

@<SCITEGIC>MOL_PROPERTY
W
SciTegic.value.DoubleValue
-2.591

@<SCITEGIC>MOL_PROPERTY
W(PB)
SciTegic.value.DoubleValue
-4.184

@<SCITEGIC>MOL_PROPERTY
W(SA)
SciTegic.value.DoubleValue
1.593

@<SCITEGIC>MOL_PROPERTY
Valence
SciTegic.value.DoubleValue
6.840

@<SCITEGIC>MOL_PROPERTY
Coulomb
SciTegic.value.DoubleValue
-7.916

@<SCITEGIC>MOL_PROPERTY
VdW
SciTegic.value.DoubleValue
0.893

@<SCITEGIC>MOL_PROPERTY
VdW6
SciTegic.value.DoubleValue
-2.167

@<SCITEGIC>MOL_PROPERTY
VdW12
SciTegic.value.DoubleValue
3.060

@<SCITEGIC>MOL_PROPERTY
Bond
SciTegic.value.DoubleValue
0.059

@<SCITEGIC>MOL_PROPERTY
Angle
SciTegic.value.DoubleValue
0.918

@<SCITEGIC>MOL_PROPERTY
Pdih
SciTegic.value.DoubleValue
5.862

@<SCITEGIC>MOL_PROPERTY
Idih
SciTegic.value.DoubleValue
0.000

@<SCITEGIC>MOL_PROPERTY
Tether
SciTegic.value.DoubleValue
0.000

@<TRIPOS>MOLECULE
guest-s16_confgen4.mol2 : confsearch ligand conformer 410
          13          13           1
SMALL
USER_CHARGES
 
@<TRIPOS>ATOM
       1    C1      19.572549   19.348276   21.156224 C.3        1 MOL1        -0.1693
       2    H1      19.895816   19.248009   20.113239 H          1 MOL1         0.0829
       3    H2      18.818272   20.143533   21.210325 H          1 MOL1         0.0829
       4    C2      20.716135   19.451947   22.219993 C.3        1 MOL1        -0.1768
       5    H3      21.635526   18.917872   21.950737 H          1 MOL1         0.0829
       6    H4      20.983681   20.463684   22.544823 H          1 MOL1         0.0829
       7    C3      19.774325   18.655778   23.175557 C.3        1 MOL1         0.1211
       8    H5      20.285143   17.950900   23.843912 H          1 MOL1         0.0786
       9    C4      19.179995   18.017984   21.881731 C.3        1 MOL1        -0.1768
      10    H6      19.722748   17.132324   21.529537 H          1 MOL1         0.0829
      11    H7      18.110464   17.781579   21.912130 H          1 MOL1         0.0829
      12    O1      18.870300   19.450390   23.912480 O.3        1 MOL1        -0.5515
      13    H8      18.446903   20.055695   23.269321 H          1 MOL1         0.3773
@<TRIPOS>BOND
    1     1     2    1
    2     1     3    1
    3     1     4    1
    4     4     5    1
    5     4     6    1
    6     4     7    1
    7     7     8    1
    8     1     9    1
    9     7     9    1
   10     9    10    1
   11     9    11    1
   12     7    12    1
   13    12    13    1
@<TRIPOS>SUBSTRUCTURE
       1 MOL1            1 RESIDUE      1      MOL     
@<SCITEGIC>MOL_PROPERTY
VConf Rank
SciTegic.value.IntegerValue
410

@<SCITEGIC>MOL_PROPERTY
Conf_Id
SciTegic.value.IntegerValue
44

@<SCITEGIC>MOL_PROPERTY
Delta U+W
SciTegic.value.DoubleValue
0.823

@<SCITEGIC>MOL_PROPERTY
U+W
SciTegic.value.DoubleValue
-2.308

@<SCITEGIC>MOL_PROPERTY
Grad RMS
SciTegic.value.DoubleValue
0.000000

@<SCITEGIC>MOL_PROPERTY
U
SciTegic.value.DoubleValue
0.039

@<SCITEGIC>MOL_PROPERTY
W
SciTegic.value.DoubleValue
-2.348

@<SCITEGIC>MOL_PROPERTY
W(PB)
SciTegic.value.DoubleValue
-3.918

@<SCITEGIC>MOL_PROPERTY
W(SA)
SciTegic.value.DoubleValue
1.571

@<SCITEGIC>MOL_PROPERTY
Valence
SciTegic.value.DoubleValue
7.320

@<SCITEGIC>MOL_PROPERTY
Coulomb
SciTegic.value.DoubleValue
-8.530

@<SCITEGIC>MOL_PROPERTY
VdW
SciTegic.value.DoubleValue
1.249

@<SCITEGIC>MOL_PROPERTY
VdW6
SciTegic.value.DoubleValue
-2.615

@<SCITEGIC>MOL_PROPERTY
VdW12
SciTegic.value.DoubleValue
3.864

@<SCITEGIC>MOL_PROPERTY
Bond
SciTegic.value.DoubleValue
0.056

@<SCITEGIC>MOL_PROPERTY
Angle
SciTegic.value.DoubleValue
0.694

@<SCITEGIC>MOL_PROPERTY
Pdih
SciTegic.value.DoubleValue
6.570

@<SCITEGIC>MOL_PROPERTY
Idih
SciTegic.value.DoubleValue
0.000

@<SCITEGIC>MOL_PROPERTY
Tether
SciTegic.value.DoubleValue
0.000

@<TRIPOS>MOLECULE
guest-s16_confgen4.mol2 : confsearch ligand conformer 411
          13          13           1
SMALL
USER_CHARGES
 
@<TRIPOS>ATOM
       1    C1      19.575266   17.900661   22.902632 C.3        1 MOL1        -0.1693
       2    H1      20.465102   17.265663   22.799889 H          1 MOL1         0.0829
       3    H2      18.869034   17.407157   23.580885 H          1 MOL1         0.0829
       4    C2      18.981734   18.419139   21.551260 C.3        1 MOL1        -0.1768
       5    H3      19.083708   17.750120   20.689879 H          1 MOL1         0.0829
       6    H4      17.942197   18.765108   21.608303 H          1 MOL1         0.0829
       7    C3      20.046091   19.552470   21.658746 C.3        1 MOL1         0.1211
       8    H5      21.039781   19.263168   21.290037 H          1 MOL1         0.0786
       9    C4      19.876541   19.406458   23.201188 C.3        1 MOL1        -0.1768
      10    H6      20.770094   19.609639   23.801564 H          1 MOL1         0.0829
      11    H7      19.032990   19.967693   23.622176 H          1 MOL1         0.0829
      12    O1      19.657068   20.796656   21.124697 O.3        1 MOL1        -0.5515
      13    H8      20.333122   21.453974   21.396886 H          1 MOL1         0.3773
@<TRIPOS>BOND
    1     1     2    1
    2     1     3    1
    3     1     4    1
    4     4     5    1
    5     4     6    1
    6     4     7    1
    7     7     8    1
    8     1     9    1
    9     7     9    1
   10     9    10    1
   11     9    11    1
   12     7    12    1
   13    12    13    1
@<TRIPOS>SUBSTRUCTURE
       1 MOL1            1 RESIDUE      1      MOL     
@<SCITEGIC>MOL_PROPERTY
VConf Rank
SciTegic.value.IntegerValue
411

@<SCITEGIC>MOL_PROPERTY
Conf_Id
SciTegic.value.IntegerValue
22

@<SCITEGIC>MOL_PROPERTY
Delta U+W
SciTegic.value.DoubleValue
0.000

@<SCITEGIC>MOL_PROPERTY
U+W
SciTegic.value.DoubleValue
-3.131

@<SCITEGIC>MOL_PROPERTY
Grad RMS
SciTegic.value.DoubleValue
0.000000

@<SCITEGIC>MOL_PROPERTY
U
SciTegic.value.DoubleValue
-0.154

@<SCITEGIC>MOL_PROPERTY
W
SciTegic.value.DoubleValue
-2.978

@<SCITEGIC>MOL_PROPERTY
W(PB)
SciTegic.value.DoubleValue
-4.579

@<SCITEGIC>MOL_PROPERTY
W(SA)
SciTegic.value.DoubleValue
1.601

@<SCITEGIC>MOL_PROPERTY
Valence
SciTegic.value.DoubleValue
6.333

@<SCITEGIC>MOL_PROPERTY
Coulomb
SciTegic.value.DoubleValue
-7.439

@<SCITEGIC>MOL_PROPERTY
VdW
SciTegic.value.DoubleValue
0.952

@<SCITEGIC>MOL_PROPERTY
VdW6
SciTegic.value.DoubleValue
-2.120

@<SCITEGIC>MOL_PROPERTY
VdW12
SciTegic.value.DoubleValue
3.072

@<SCITEGIC>MOL_PROPERTY
Bond
SciTegic.value.DoubleValue
0.065

@<SCITEGIC>MOL_PROPERTY
Angle
SciTegic.value.DoubleValue
0.931

@<SCITEGIC>MOL_PROPERTY
Pdih
SciTegic.value.DoubleValue
5.338

@<SCITEGIC>MOL_PROPERTY
Idih
SciTegic.value.DoubleValue
0.000

@<SCITEGIC>MOL_PROPERTY
Tether
SciTegic.value.DoubleValue
0.000

@<TRIPOS>MOLECULE
guest-s16_confgen4.mol2 : confsearch ligand conformer 412
          13          13           1
SMALL
USER_CHARGES
 
@<TRIPOS>ATOM
       1    C1      18.393272   18.484752   22.383289 C.3        1 MOL1        -0.1693
       2    H1      17.704773   19.235383   22.793297 H          1 MOL1         0.0829
       3    H2      17.846881   17.543331   22.250923 H          1 MOL1         0.0829
       4    C2      19.767575   18.383272   23.123778 C.3        1 MOL1        -0.1768
       5    H3      20.314609   17.448537   22.948230 H          1 MOL1         0.0829
       6    H4      19.751385   18.585610   24.200332 H          1 MOL1         0.0829
       7    C3      20.206886   19.571028   22.215241 C.3        1 MOL1         0.1211
       8    H5      19.898583   20.556743   22.589908 H          1 MOL1         0.0786
       9    C4      19.234450   18.969169   21.156479 C.3        1 MOL1        -0.1768
      10    H6      19.666191   18.164492   20.548465 H          1 MOL1         0.0829
      11    H7      18.748278   19.691233   20.491481 H          1 MOL1         0.0829
      12    O1      21.567001   19.578297   21.848385 O.3        1 MOL1        -0.5515
      13    H8      22.082214   19.822534   22.647202 H          1 MOL1         0.3773
@<TRIPOS>BOND
    1     1     2    1
    2     1     3    1
    3     1     4    1
    4     4     5    1
    5     4     6    1
    6     4     7    1
    7     7     8    1
    8     1     9    1
    9     7     9    1
   10     9    10    1
   11     9    11    1
   12     7    12    1
   13    12    13    1
@<TRIPOS>SUBSTRUCTURE
       1 MOL1            1 RESIDUE      1      MOL     
@<SCITEGIC>MOL_PROPERTY
VConf Rank
SciTegic.value.IntegerValue
412

@<SCITEGIC>MOL_PROPERTY
Conf_Id
SciTegic.value.IntegerValue
19

@<SCITEGIC>MOL_PROPERTY
Delta U+W
SciTegic.value.DoubleValue
-0.011

@<SCITEGIC>MOL_PROPERTY
U+W
SciTegic.value.DoubleValue
-3.142

@<SCITEGIC>MOL_PROPERTY
Grad RMS
SciTegic.value.DoubleValue
0.000000

@<SCITEGIC>MOL_PROPERTY
U
SciTegic.value.DoubleValue
-0.154

@<SCITEGIC>MOL_PROPERTY
W
SciTegic.value.DoubleValue
-2.989

@<SCITEGIC>MOL_PROPERTY
W(PB)
SciTegic.value.DoubleValue
-4.588

@<SCITEGIC>MOL_PROPERTY
W(SA)
SciTegic.value.DoubleValue
1.599

@<SCITEGIC>MOL_PROPERTY
Valence
SciTegic.value.DoubleValue
6.334

@<SCITEGIC>MOL_PROPERTY
Coulomb
SciTegic.value.DoubleValue
-7.439

@<SCITEGIC>MOL_PROPERTY
VdW
SciTegic.value.DoubleValue
0.951

@<SCITEGIC>MOL_PROPERTY
VdW6
SciTegic.value.DoubleValue
-2.120

@<SCITEGIC>MOL_PROPERTY
VdW12
SciTegic.value.DoubleValue
3.072

@<SCITEGIC>MOL_PROPERTY
Bond
SciTegic.value.DoubleValue
0.065

@<SCITEGIC>MOL_PROPERTY
Angle
SciTegic.value.DoubleValue
0.930

@<SCITEGIC>MOL_PROPERTY
Pdih
SciTegic.value.DoubleValue
5.339

@<SCITEGIC>MOL_PROPERTY
Idih
SciTegic.value.DoubleValue
0.000

@<SCITEGIC>MOL_PROPERTY
Tether
SciTegic.value.DoubleValue
0.000

@<TRIPOS>MOLECULE
guest-s16_confgen4.mol2 : confsearch ligand conformer 413
          13          13           1
SMALL
USER_CHARGES
 
@<TRIPOS>ATOM
       1    C1      20.195935   18.287848   23.063469 C.3        1 MOL1        -0.1693
       2    H1      20.052696   17.571371   23.880856 H          1 MOL1         0.0829
       3    H2      21.257839   18.295156   22.785060 H          1 MOL1         0.0829
       4    C2      19.569857   19.706559   23.273843 C.3        1 MOL1        -0.1768
       5    H3      18.658982   19.715925   23.884568 H          1 MOL1         0.0829
       6    H4      20.248940   20.481906   23.645431 H          1 MOL1         0.0829
       7    C3      19.308261   19.714973   21.735362 C.3        1 MOL1         0.1211
       8    H5      18.378523   20.213644   21.432498 H          1 MOL1         0.0786
       9    C4      19.207930   18.162120   21.856515 C.3        1 MOL1        -0.1768
      10    H6      19.571064   17.589157   20.996166 H          1 MOL1         0.0829
      11    H7      18.209056   17.796388   22.123843 H          1 MOL1         0.0829
      12    O1      20.386638   20.184435   20.951237 O.3        1 MOL1        -0.5515
      13    H8      20.175967   19.980213   20.015253 H          1 MOL1         0.3773
@<TRIPOS>BOND
    1     1     2    1
    2     1     3    1
    3     1     4    1
    4     4     5    1
    5     4     6    1
    6     4     7    1
    7     7     8    1
    8     1     9    1
    9     7     9    1
   10     9    10    1
   11     9    11    1
   12     7    12    1
   13    12    13    1
@<TRIPOS>SUBSTRUCTURE
       1 MOL1            1 RESIDUE      1      MOL     
@<SCITEGIC>MOL_PROPERTY
VConf Rank
SciTegic.value.IntegerValue
413

@<SCITEGIC>MOL_PROPERTY
Conf_Id
SciTegic.value.IntegerValue
20

@<SCITEGIC>MOL_PROPERTY
Delta U+W
SciTegic.value.DoubleValue
1.030

@<SCITEGIC>MOL_PROPERTY
U+W
SciTegic.value.DoubleValue
-2.101

@<SCITEGIC>MOL_PROPERTY
Grad RMS
SciTegic.value.DoubleValue
0.000000

@<SCITEGIC>MOL_PROPERTY
U
SciTegic.value.DoubleValue
0.841

@<SCITEGIC>MOL_PROPERTY
W
SciTegic.value.DoubleValue
-2.942

@<SCITEGIC>MOL_PROPERTY
W(PB)
SciTegic.value.DoubleValue
-4.530

@<SCITEGIC>MOL_PROPERTY
W(SA)
SciTegic.value.DoubleValue
1.587

@<SCITEGIC>MOL_PROPERTY
Valence
SciTegic.value.DoubleValue
6.736

@<SCITEGIC>MOL_PROPERTY
Coulomb
SciTegic.value.DoubleValue
-7.246

@<SCITEGIC>MOL_PROPERTY
VdW
SciTegic.value.DoubleValue
1.352

@<SCITEGIC>MOL_PROPERTY
VdW6
SciTegic.value.DoubleValue
-2.500

@<SCITEGIC>MOL_PROPERTY
VdW12
SciTegic.value.DoubleValue
3.851

@<SCITEGIC>MOL_PROPERTY
Bond
SciTegic.value.DoubleValue
0.063

@<SCITEGIC>MOL_PROPERTY
Angle
SciTegic.value.DoubleValue
0.687

@<SCITEGIC>MOL_PROPERTY
Pdih
SciTegic.value.DoubleValue
5.986

@<SCITEGIC>MOL_PROPERTY
Idih
SciTegic.value.DoubleValue
0.000

@<SCITEGIC>MOL_PROPERTY
Tether
SciTegic.value.DoubleValue
0.000

@<TRIPOS>MOLECULE
guest-s16_confgen4.mol2 : confsearch ligand conformer 414
          13          13           1
SMALL
USER_CHARGES
 
@<TRIPOS>ATOM
       1    C1      20.856122   18.383028   21.917152 C.3        1 MOL1        -0.1693
       2    H1      20.889532   17.755630   21.016639 H          1 MOL1         0.0829
       3    H2      21.847229   18.374966   22.386261 H          1 MOL1         0.0829
       4    C2      19.644486   18.101421   22.865832 C.3        1 MOL1        -0.1768
       5    H3      19.289808   17.065419   22.900395 H          1 MOL1         0.0829
       6    H4      19.774039   18.463527   23.893199 H          1 MOL1         0.0829
       7    C3      18.846845   19.058913   21.929812 C.3        1 MOL1         0.1211
       8    H5      18.453524   18.571789   21.027202 H          1 MOL1         0.0786
       9    C4      20.205371   19.790477   21.709865 C.3        1 MOL1        -0.1768
      10    H6      20.460288   20.530107   22.478860 H          1 MOL1         0.0829
      11    H7      20.346037   20.246169   20.723534 H          1 MOL1         0.0829
      12    O1      17.844308   19.821809   22.558085 O.3        1 MOL1        -0.5515
      13    H8      18.251013   20.229582   23.351199 H          1 MOL1         0.3773
@<TRIPOS>BOND
    1     1     2    1
    2     1     3    1
    3     1     4    1
    4     4     5    1
    5     4     6    1
    6     4     7    1
    7     7     8    1
    8     1     9    1
    9     7     9    1
   10     9    10    1
   11     9    11    1
   12     7    12    1
   13    12    13    1
@<TRIPOS>SUBSTRUCTURE
       1 MOL1            1 RESIDUE      1      MOL     
@<SCITEGIC>MOL_PROPERTY
VConf Rank
SciTegic.value.IntegerValue
414

@<SCITEGIC>MOL_PROPERTY
Conf_Id
SciTegic.value.IntegerValue
24

@<SCITEGIC>MOL_PROPERTY
Delta U+W
SciTegic.value.DoubleValue
0.356

@<SCITEGIC>MOL_PROPERTY
U+W
SciTegic.value.DoubleValue
-2.775

@<SCITEGIC>MOL_PROPERTY
Grad RMS
SciTegic.value.DoubleValue
0.000000

@<SCITEGIC>MOL_PROPERTY
U
SciTegic.value.DoubleValue
-0.184

@<SCITEGIC>MOL_PROPERTY
W
SciTegic.value.DoubleValue
-2.591

@<SCITEGIC>MOL_PROPERTY
W(PB)
SciTegic.value.DoubleValue
-4.184

@<SCITEGIC>MOL_PROPERTY
W(SA)
SciTegic.value.DoubleValue
1.593

@<SCITEGIC>MOL_PROPERTY
Valence
SciTegic.value.DoubleValue
6.840

@<SCITEGIC>MOL_PROPERTY
Coulomb
SciTegic.value.DoubleValue
-7.916

@<SCITEGIC>MOL_PROPERTY
VdW
SciTegic.value.DoubleValue
0.893

@<SCITEGIC>MOL_PROPERTY
VdW6
SciTegic.value.DoubleValue
-2.167

@<SCITEGIC>MOL_PROPERTY
VdW12
SciTegic.value.DoubleValue
3.060

@<SCITEGIC>MOL_PROPERTY
Bond
SciTegic.value.DoubleValue
0.059

@<SCITEGIC>MOL_PROPERTY
Angle
SciTegic.value.DoubleValue
0.918

@<SCITEGIC>MOL_PROPERTY
Pdih
SciTegic.value.DoubleValue
5.862

@<SCITEGIC>MOL_PROPERTY
Idih
SciTegic.value.DoubleValue
0.000

@<SCITEGIC>MOL_PROPERTY
Tether
SciTegic.value.DoubleValue
0.000

@<TRIPOS>MOLECULE
guest-s16_confgen4.mol2 : confsearch ligand conformer 415
          13          13           1
SMALL
USER_CHARGES
 
@<TRIPOS>ATOM
       1    C1      19.729511   20.081457   22.384511 C.3        1 MOL1        -0.1693
       2    H1      19.163522   21.020592   22.377111 H          1 MOL1         0.0829
       3    H2      20.761455   20.301134   22.686389 H          1 MOL1         0.0829
       4    C2      19.593329   19.190473   21.104770 C.3        1 MOL1        -0.1768
       5    H3      18.626956   19.276558   20.593177 H          1 MOL1         0.0829
       6    H4      20.391323   19.288860   20.360301 H          1 MOL1         0.0829
       7    C3      19.700194   17.961994   22.060495 C.3        1 MOL1         0.1211
       8    H5      19.086858   17.098905   21.771733 H          1 MOL1         0.0786
       9    C4      19.061795   18.886195   23.143220 C.3        1 MOL1        -0.1768
      10    H6      17.965099   18.897677   23.131426 H          1 MOL1         0.0829
      11    H7      19.397134   18.719736   24.173049 H          1 MOL1         0.0829
      12    O1      21.018556   17.544318   22.341912 O.3        1 MOL1        -0.5515
      13    H8      21.516124   18.350071   22.591913 H          1 MOL1         0.3773
@<TRIPOS>BOND
    1     1     2    1
    2     1     3    1
    3     1     4    1
    4     4     5    1
    5     4     6    1
    6     4     7    1
    7     7     8    1
    8     1     9    1
    9     7     9    1
   10     9    10    1
   11     9    11    1
   12     7    12    1
   13    12    13    1
@<TRIPOS>SUBSTRUCTURE
       1 MOL1            1 RESIDUE      1      MOL     
@<SCITEGIC>MOL_PROPERTY
VConf Rank
SciTegic.value.IntegerValue
415

@<SCITEGIC>MOL_PROPERTY
Conf_Id
SciTegic.value.IntegerValue
44

@<SCITEGIC>MOL_PROPERTY
Delta U+W
SciTegic.value.DoubleValue
0.823

@<SCITEGIC>MOL_PROPERTY
U+W
SciTegic.value.DoubleValue
-2.308

@<SCITEGIC>MOL_PROPERTY
Grad RMS
SciTegic.value.DoubleValue
0.000000

@<SCITEGIC>MOL_PROPERTY
U
SciTegic.value.DoubleValue
0.039

@<SCITEGIC>MOL_PROPERTY
W
SciTegic.value.DoubleValue
-2.348

@<SCITEGIC>MOL_PROPERTY
W(PB)
SciTegic.value.DoubleValue
-3.918

@<SCITEGIC>MOL_PROPERTY
W(SA)
SciTegic.value.DoubleValue
1.571

@<SCITEGIC>MOL_PROPERTY
Valence
SciTegic.value.DoubleValue
7.320

@<SCITEGIC>MOL_PROPERTY
Coulomb
SciTegic.value.DoubleValue
-8.530

@<SCITEGIC>MOL_PROPERTY
VdW
SciTegic.value.DoubleValue
1.249

@<SCITEGIC>MOL_PROPERTY
VdW6
SciTegic.value.DoubleValue
-2.615

@<SCITEGIC>MOL_PROPERTY
VdW12
SciTegic.value.DoubleValue
3.864

@<SCITEGIC>MOL_PROPERTY
Bond
SciTegic.value.DoubleValue
0.056

@<SCITEGIC>MOL_PROPERTY
Angle
SciTegic.value.DoubleValue
0.694

@<SCITEGIC>MOL_PROPERTY
Pdih
SciTegic.value.DoubleValue
6.570

@<SCITEGIC>MOL_PROPERTY
Idih
SciTegic.value.DoubleValue
0.000

@<SCITEGIC>MOL_PROPERTY
Tether
SciTegic.value.DoubleValue
0.000

@<TRIPOS>MOLECULE
guest-s16_confgen4.mol2 : confsearch ligand conformer 416
          13          13           1
SMALL
USER_CHARGES
 
@<TRIPOS>ATOM
       1    C1      18.761366   19.133573   23.203661 C.3        1 MOL1        -0.1693
       2    H1      18.639750   20.152227   23.594991 H          1 MOL1         0.0829
       3    H2      18.036552   18.478223   23.701153 H          1 MOL1         0.0829
       4    C2      20.238394   18.619613   23.164417 C.3        1 MOL1        -0.1768
       5    H3      20.899639   18.987231   23.956612 H          1 MOL1         0.0829
       6    H4      20.344331   17.529956   23.093633 H          1 MOL1         0.0829
       7    C3      20.334168   19.367465   21.800455 C.3        1 MOL1         0.1211
       8    H5      20.546777   20.440940   21.897986 H          1 MOL1         0.0786
       9    C4      18.819720   19.034286   21.643512 C.3        1 MOL1        -0.1768
      10    H6      18.223558   19.768736   21.090930 H          1 MOL1         0.0829
      11    H7      18.612207   18.035343   21.239972 H          1 MOL1         0.0829
      12    O1      21.183946   18.773846   20.846495 O.3        1 MOL1        -0.5515
      13    H8      21.032320   19.236470   19.994327 H          1 MOL1         0.3773
@<TRIPOS>BOND
    1     1     2    1
    2     1     3    1
    3     1     4    1
    4     4     5    1
    5     4     6    1
    6     4     7    1
    7     7     8    1
    8     1     9    1
    9     7     9    1
   10     9    10    1
   11     9    11    1
   12     7    12    1
   13    12    13    1
@<TRIPOS>SUBSTRUCTURE
       1 MOL1            1 RESIDUE      1      MOL     
@<SCITEGIC>MOL_PROPERTY
VConf Rank
SciTegic.value.IntegerValue
416

@<SCITEGIC>MOL_PROPERTY
Conf_Id
SciTegic.value.IntegerValue
22

@<SCITEGIC>MOL_PROPERTY
Delta U+W
SciTegic.value.DoubleValue
0.000

@<SCITEGIC>MOL_PROPERTY
U+W
SciTegic.value.DoubleValue
-3.131

@<SCITEGIC>MOL_PROPERTY
Grad RMS
SciTegic.value.DoubleValue
0.000000

@<SCITEGIC>MOL_PROPERTY
U
SciTegic.value.DoubleValue
-0.154

@<SCITEGIC>MOL_PROPERTY
W
SciTegic.value.DoubleValue
-2.978

@<SCITEGIC>MOL_PROPERTY
W(PB)
SciTegic.value.DoubleValue
-4.579

@<SCITEGIC>MOL_PROPERTY
W(SA)
SciTegic.value.DoubleValue
1.601

@<SCITEGIC>MOL_PROPERTY
Valence
SciTegic.value.DoubleValue
6.333

@<SCITEGIC>MOL_PROPERTY
Coulomb
SciTegic.value.DoubleValue
-7.439

@<SCITEGIC>MOL_PROPERTY
VdW
SciTegic.value.DoubleValue
0.952

@<SCITEGIC>MOL_PROPERTY
VdW6
SciTegic.value.DoubleValue
-2.120

@<SCITEGIC>MOL_PROPERTY
VdW12
SciTegic.value.DoubleValue
3.072

@<SCITEGIC>MOL_PROPERTY
Bond
SciTegic.value.DoubleValue
0.065

@<SCITEGIC>MOL_PROPERTY
Angle
SciTegic.value.DoubleValue
0.931

@<SCITEGIC>MOL_PROPERTY
Pdih
SciTegic.value.DoubleValue
5.338

@<SCITEGIC>MOL_PROPERTY
Idih
SciTegic.value.DoubleValue
0.000

@<SCITEGIC>MOL_PROPERTY
Tether
SciTegic.value.DoubleValue
0.000

@<TRIPOS>MOLECULE
guest-s16_confgen4.mol2 : confsearch ligand conformer 417
          13          13           1
SMALL
USER_CHARGES
 
@<TRIPOS>ATOM
       1    C1      19.961490   18.219667   21.181728 C.3        1 MOL1        -0.1693
       2    H1      19.907396   17.134920   21.342923 H          1 MOL1         0.0829
       3    H2      20.335771   18.405025   20.167876 H          1 MOL1         0.0829
       4    C2      20.663050   19.017899   22.329755 C.3        1 MOL1        -0.1768
       5    H3      21.011459   20.018636   22.045271 H          1 MOL1         0.0829
       6    H4      21.472870   18.498127   22.853397 H          1 MOL1         0.0829
       7    C3      19.272175   18.992031   23.032600 C.3        1 MOL1         0.1211
       8    H5      19.069615   18.065027   23.586400 H          1 MOL1         0.0786
       9    C4      18.674187   19.007449   21.593497 C.3        1 MOL1        -0.1768
      10    H6      18.584751   20.006564   21.149249 H          1 MOL1         0.0829
      11    H7      17.722834   18.479264   21.467369 H          1 MOL1         0.0829
      12    O1      18.974031   20.120936   23.820784 O.3        1 MOL1        -0.5515
      13    H8      19.532473   20.068836   24.626160 H          1 MOL1         0.3773
@<TRIPOS>BOND
    1     1     2    1
    2     1     3    1
    3     1     4    1
    4     4     5    1
    5     4     6    1
    6     4     7    1
    7     7     8    1
    8     1     9    1
    9     7     9    1
   10     9    10    1
   11     9    11    1
   12     7    12    1
   13    12    13    1
@<TRIPOS>SUBSTRUCTURE
       1 MOL1            1 RESIDUE      1      MOL     
@<SCITEGIC>MOL_PROPERTY
VConf Rank
SciTegic.value.IntegerValue
417

@<SCITEGIC>MOL_PROPERTY
Conf_Id
SciTegic.value.IntegerValue
19

@<SCITEGIC>MOL_PROPERTY
Delta U+W
SciTegic.value.DoubleValue
-0.011

@<SCITEGIC>MOL_PROPERTY
U+W
SciTegic.value.DoubleValue
-3.142

@<SCITEGIC>MOL_PROPERTY
Grad RMS
SciTegic.value.DoubleValue
0.000000

@<SCITEGIC>MOL_PROPERTY
U
SciTegic.value.DoubleValue
-0.154

@<SCITEGIC>MOL_PROPERTY
W
SciTegic.value.DoubleValue
-2.989

@<SCITEGIC>MOL_PROPERTY
W(PB)
SciTegic.value.DoubleValue
-4.588

@<SCITEGIC>MOL_PROPERTY
W(SA)
SciTegic.value.DoubleValue
1.599

@<SCITEGIC>MOL_PROPERTY
Valence
SciTegic.value.DoubleValue
6.334

@<SCITEGIC>MOL_PROPERTY
Coulomb
SciTegic.value.DoubleValue
-7.439

@<SCITEGIC>MOL_PROPERTY
VdW
SciTegic.value.DoubleValue
0.951

@<SCITEGIC>MOL_PROPERTY
VdW6
SciTegic.value.DoubleValue
-2.120

@<SCITEGIC>MOL_PROPERTY
VdW12
SciTegic.value.DoubleValue
3.072

@<SCITEGIC>MOL_PROPERTY
Bond
SciTegic.value.DoubleValue
0.065

@<SCITEGIC>MOL_PROPERTY
Angle
SciTegic.value.DoubleValue
0.930

@<SCITEGIC>MOL_PROPERTY
Pdih
SciTegic.value.DoubleValue
5.339

@<SCITEGIC>MOL_PROPERTY
Idih
SciTegic.value.DoubleValue
0.000

@<SCITEGIC>MOL_PROPERTY
Tether
SciTegic.value.DoubleValue
0.000

@<TRIPOS>MOLECULE
guest-s16_confgen4.mol2 : confsearch ligand conformer 418
          13          13           1
SMALL
USER_CHARGES
 
@<TRIPOS>ATOM
       1    C1      19.183658   18.892367   21.144487 C.3        1 MOL1        -0.1693
       2    H1      18.386867   19.169388   20.444230 H          1 MOL1         0.0829
       3    H2      19.909583   18.259311   20.617723 H          1 MOL1         0.0829
       4    C2      18.718779   18.332740   22.530011 C.3        1 MOL1        -0.1768
       5    H3      17.763904   18.737214   22.886915 H          1 MOL1         0.0829
       6    H4      18.694386   17.241474   22.624535 H          1 MOL1         0.0829
       7    C3      19.975640   19.037252   23.129504 C.3        1 MOL1         0.1211
       8    H5      19.829951   19.454909   24.134068 H          1 MOL1         0.0786
       9    C4      19.817512   20.064405   21.965009 C.3        1 MOL1        -0.1768
      10    H6      20.747502   20.483019   21.564718 H          1 MOL1         0.0829
      11    H7      19.128701   20.889228   22.184509 H          1 MOL1         0.0829
      12    O1      21.162175   18.269871   23.092025 O.3        1 MOL1        -0.5515
      13    H8      21.903027   18.868518   23.326365 H          1 MOL1         0.3773
@<TRIPOS>BOND
    1     1     2    1
    2     1     3    1
    3     1     4    1
    4     4     5    1
    5     4     6    1
    6     4     7    1
    7     7     8    1
    8     1     9    1
    9     7     9    1
   10     9    10    1
   11     9    11    1
   12     7    12    1
   13    12    13    1
@<TRIPOS>SUBSTRUCTURE
       1 MOL1            1 RESIDUE      1      MOL     
@<SCITEGIC>MOL_PROPERTY
VConf Rank
SciTegic.value.IntegerValue
418

@<SCITEGIC>MOL_PROPERTY
Conf_Id
SciTegic.value.IntegerValue
20

@<SCITEGIC>MOL_PROPERTY
Delta U+W
SciTegic.value.DoubleValue
1.030

@<SCITEGIC>MOL_PROPERTY
U+W
SciTegic.value.DoubleValue
-2.101

@<SCITEGIC>MOL_PROPERTY
Grad RMS
SciTegic.value.DoubleValue
0.000000

@<SCITEGIC>MOL_PROPERTY
U
SciTegic.value.DoubleValue
0.841

@<SCITEGIC>MOL_PROPERTY
W
SciTegic.value.DoubleValue
-2.942

@<SCITEGIC>MOL_PROPERTY
W(PB)
SciTegic.value.DoubleValue
-4.530

@<SCITEGIC>MOL_PROPERTY
W(SA)
SciTegic.value.DoubleValue
1.587

@<SCITEGIC>MOL_PROPERTY
Valence
SciTegic.value.DoubleValue
6.736

@<SCITEGIC>MOL_PROPERTY
Coulomb
SciTegic.value.DoubleValue
-7.246

@<SCITEGIC>MOL_PROPERTY
VdW
SciTegic.value.DoubleValue
1.352

@<SCITEGIC>MOL_PROPERTY
VdW6
SciTegic.value.DoubleValue
-2.500

@<SCITEGIC>MOL_PROPERTY
VdW12
SciTegic.value.DoubleValue
3.851

@<SCITEGIC>MOL_PROPERTY
Bond
SciTegic.value.DoubleValue
0.063

@<SCITEGIC>MOL_PROPERTY
Angle
SciTegic.value.DoubleValue
0.687

@<SCITEGIC>MOL_PROPERTY
Pdih
SciTegic.value.DoubleValue
5.986

@<SCITEGIC>MOL_PROPERTY
Idih
SciTegic.value.DoubleValue
0.000

@<SCITEGIC>MOL_PROPERTY
Tether
SciTegic.value.DoubleValue
0.000

@<TRIPOS>MOLECULE
guest-s16_confgen4.mol2 : confsearch ligand conformer 419
          13          13           1
SMALL
USER_CHARGES
 
@<TRIPOS>ATOM
       1    C1      19.420194   19.821171   23.096975 C.3        1 MOL1        -0.1693
       2    H1      19.800577   19.684519   24.117908 H          1 MOL1         0.0829
       3    H2      18.807719   20.730343   23.070476 H          1 MOL1         0.0829
       4    C2      18.780735   18.543011   22.460769 C.3        1 MOL1        -0.1768
       5    H3      18.273652   17.861965   23.153108 H          1 MOL1         0.0829
       6    H4      18.116500   18.738856   21.609990 H          1 MOL1         0.0829
       7    C3      20.240112   18.153948   22.076055 C.3        1 MOL1         0.1211
       8    H5      20.796726   17.662339   22.885497 H          1 MOL1         0.0786
       9    C4      20.500293   19.687209   21.973232 C.3        1 MOL1        -0.1768
      10    H6      20.220400   20.138796   21.013484 H          1 MOL1         0.0829
      11    H7      21.511841   20.016661   22.235001 H          1 MOL1         0.0829
      12    O1      20.377014   17.435635   20.873100 O.3        1 MOL1        -0.5515
      13    H8      19.862839   17.918385   20.192441 H          1 MOL1         0.3773
@<TRIPOS>BOND
    1     1     2    1
    2     1     3    1
    3     1     4    1
    4     4     5    1
    5     4     6    1
    6     4     7    1
    7     7     8    1
    8     1     9    1
    9     7     9    1
   10     9    10    1
   11     9    11    1
   12     7    12    1
   13    12    13    1
@<TRIPOS>SUBSTRUCTURE
       1 MOL1            1 RESIDUE      1      MOL     
@<SCITEGIC>MOL_PROPERTY
VConf Rank
SciTegic.value.IntegerValue
419

@<SCITEGIC>MOL_PROPERTY
Conf_Id
SciTegic.value.IntegerValue
24

@<SCITEGIC>MOL_PROPERTY
Delta U+W
SciTegic.value.DoubleValue
0.356

@<SCITEGIC>MOL_PROPERTY
U+W
SciTegic.value.DoubleValue
-2.775

@<SCITEGIC>MOL_PROPERTY
Grad RMS
SciTegic.value.DoubleValue
0.000000

@<SCITEGIC>MOL_PROPERTY
U
SciTegic.value.DoubleValue
-0.184

@<SCITEGIC>MOL_PROPERTY
W
SciTegic.value.DoubleValue
-2.591

@<SCITEGIC>MOL_PROPERTY
W(PB)
SciTegic.value.DoubleValue
-4.184

@<SCITEGIC>MOL_PROPERTY
W(SA)
SciTegic.value.DoubleValue
1.593

@<SCITEGIC>MOL_PROPERTY
Valence
SciTegic.value.DoubleValue
6.840

@<SCITEGIC>MOL_PROPERTY
Coulomb
SciTegic.value.DoubleValue
-7.916

@<SCITEGIC>MOL_PROPERTY
VdW
SciTegic.value.DoubleValue
0.893

@<SCITEGIC>MOL_PROPERTY
VdW6
SciTegic.value.DoubleValue
-2.167

@<SCITEGIC>MOL_PROPERTY
VdW12
SciTegic.value.DoubleValue
3.060

@<SCITEGIC>MOL_PROPERTY
Bond
SciTegic.value.DoubleValue
0.059

@<SCITEGIC>MOL_PROPERTY
Angle
SciTegic.value.DoubleValue
0.918

@<SCITEGIC>MOL_PROPERTY
Pdih
SciTegic.value.DoubleValue
5.862

@<SCITEGIC>MOL_PROPERTY
Idih
SciTegic.value.DoubleValue
0.000

@<SCITEGIC>MOL_PROPERTY
Tether
SciTegic.value.DoubleValue
0.000

@<TRIPOS>MOLECULE
guest-s16_confgen4.mol2 : confsearch ligand conformer 420
          13          13           1
SMALL
USER_CHARGES
 
@<TRIPOS>ATOM
       1    C1      19.174102   18.179844   22.818506 C.3        1 MOL1        -0.1693
       2    H1      19.160029   17.123333   23.111697 H          1 MOL1         0.0829
       3    H2      18.341857   18.689802   23.320111 H          1 MOL1         0.0829
       4    C2      19.290152   18.462345   21.283298 C.3        1 MOL1        -0.1768
       5    H3      19.847613   17.701694   20.723243 H          1 MOL1         0.0829
       6    H4      18.350567   18.663523   20.756595 H          1 MOL1         0.0829
       7    C3      20.136141   19.714574   21.670876 C.3        1 MOL1         0.1211
       8    H5      20.956071   19.948500   20.979876 H          1 MOL1         0.0786
       9    C4      20.556808   18.904064   22.935830 C.3        1 MOL1        -0.1768
      10    H6      21.424834   18.251716   22.780952 H          1 MOL1         0.0829
      11    H7      20.719740   19.489719   23.847515 H          1 MOL1         0.0829
      12    O1      19.382999   20.878015   21.937164 O.3        1 MOL1        -0.5515
      13    H8      18.670946   20.610842   22.554345 H          1 MOL1         0.3773
@<TRIPOS>BOND
    1     1     2    1
    2     1     3    1
    3     1     4    1
    4     4     5    1
    5     4     6    1
    6     4     7    1
    7     7     8    1
    8     1     9    1
    9     7     9    1
   10     9    10    1
   11     9    11    1
   12     7    12    1
   13    12    13    1
@<TRIPOS>SUBSTRUCTURE
       1 MOL1            1 RESIDUE      1      MOL     
@<SCITEGIC>MOL_PROPERTY
VConf Rank
SciTegic.value.IntegerValue
420

@<SCITEGIC>MOL_PROPERTY
Conf_Id
SciTegic.value.IntegerValue
44

@<SCITEGIC>MOL_PROPERTY
Delta U+W
SciTegic.value.DoubleValue
0.823

@<SCITEGIC>MOL_PROPERTY
U+W
SciTegic.value.DoubleValue
-2.308

@<SCITEGIC>MOL_PROPERTY
Grad RMS
SciTegic.value.DoubleValue
0.000000

@<SCITEGIC>MOL_PROPERTY
U
SciTegic.value.DoubleValue
0.039

@<SCITEGIC>MOL_PROPERTY
W
SciTegic.value.DoubleValue
-2.348

@<SCITEGIC>MOL_PROPERTY
W(PB)
SciTegic.value.DoubleValue
-3.918

@<SCITEGIC>MOL_PROPERTY
W(SA)
SciTegic.value.DoubleValue
1.571

@<SCITEGIC>MOL_PROPERTY
Valence
SciTegic.value.DoubleValue
7.320

@<SCITEGIC>MOL_PROPERTY
Coulomb
SciTegic.value.DoubleValue
-8.530

@<SCITEGIC>MOL_PROPERTY
VdW
SciTegic.value.DoubleValue
1.249

@<SCITEGIC>MOL_PROPERTY
VdW6
SciTegic.value.DoubleValue
-2.615

@<SCITEGIC>MOL_PROPERTY
VdW12
SciTegic.value.DoubleValue
3.864

@<SCITEGIC>MOL_PROPERTY
Bond
SciTegic.value.DoubleValue
0.056

@<SCITEGIC>MOL_PROPERTY
Angle
SciTegic.value.DoubleValue
0.694

@<SCITEGIC>MOL_PROPERTY
Pdih
SciTegic.value.DoubleValue
6.570

@<SCITEGIC>MOL_PROPERTY
Idih
SciTegic.value.DoubleValue
0.000

@<SCITEGIC>MOL_PROPERTY
Tether
SciTegic.value.DoubleValue
0.000

@<TRIPOS>MOLECULE
guest-s16_confgen4.mol2 : confsearch ligand conformer 421
          13          13           1
SMALL
USER_CHARGES
 
@<TRIPOS>ATOM
       1    C1      19.217707   20.178737   21.749080 C.3        1 MOL1        -0.1693
       2    H1      19.970207   20.728894   21.168858 H          1 MOL1         0.0829
       3    H2      18.268799   20.726045   21.700469 H          1 MOL1         0.0829
       4    C2      19.684658   19.738726   23.175843 C.3        1 MOL1        -0.1768
       5    H3      20.388470   20.408155   23.682276 H          1 MOL1         0.0829
       6    H4      18.871724   19.491029   23.869652 H          1 MOL1         0.0829
       7    C3      20.316959   18.509007   22.456930 C.3        1 MOL1         0.1211
       8    H5      21.307240   18.709305   22.025323 H          1 MOL1         0.0786
       9    C4      19.144015   18.646973   21.439893 C.3        1 MOL1        -0.1768
      10    H6      19.368137   18.351778   20.408971 H          1 MOL1         0.0829
      11    H7      18.210961   18.161093   21.751542 H          1 MOL1         0.0829
      12    O1      20.329268   17.315035   23.204476 O.3        1 MOL1        -0.5515
      13    H8      20.594581   16.593130   22.594832 H          1 MOL1         0.3773
@<TRIPOS>BOND
    1     1     2    1
    2     1     3    1
    3     1     4    1
    4     4     5    1
    5     4     6    1
    6     4     7    1
    7     7     8    1
    8     1     9    1
    9     7     9    1
   10     9    10    1
   11     9    11    1
   12     7    12    1
   13    12    13    1
@<TRIPOS>SUBSTRUCTURE
       1 MOL1            1 RESIDUE      1      MOL     
@<SCITEGIC>MOL_PROPERTY
VConf Rank
SciTegic.value.IntegerValue
421

@<SCITEGIC>MOL_PROPERTY
Conf_Id
SciTegic.value.IntegerValue
22

@<SCITEGIC>MOL_PROPERTY
Delta U+W
SciTegic.value.DoubleValue
0.000

@<SCITEGIC>MOL_PROPERTY
U+W
SciTegic.value.DoubleValue
-3.131

@<SCITEGIC>MOL_PROPERTY
Grad RMS
SciTegic.value.DoubleValue
0.000000

@<SCITEGIC>MOL_PROPERTY
U
SciTegic.value.DoubleValue
-0.154

@<SCITEGIC>MOL_PROPERTY
W
SciTegic.value.DoubleValue
-2.978

@<SCITEGIC>MOL_PROPERTY
W(PB)
SciTegic.value.DoubleValue
-4.579

@<SCITEGIC>MOL_PROPERTY
W(SA)
SciTegic.value.DoubleValue
1.601

@<SCITEGIC>MOL_PROPERTY
Valence
SciTegic.value.DoubleValue
6.333

@<SCITEGIC>MOL_PROPERTY
Coulomb
SciTegic.value.DoubleValue
-7.439

@<SCITEGIC>MOL_PROPERTY
VdW
SciTegic.value.DoubleValue
0.952

@<SCITEGIC>MOL_PROPERTY
VdW6
SciTegic.value.DoubleValue
-2.120

@<SCITEGIC>MOL_PROPERTY
VdW12
SciTegic.value.DoubleValue
3.072

@<SCITEGIC>MOL_PROPERTY
Bond
SciTegic.value.DoubleValue
0.065

@<SCITEGIC>MOL_PROPERTY
Angle
SciTegic.value.DoubleValue
0.931

@<SCITEGIC>MOL_PROPERTY
Pdih
SciTegic.value.DoubleValue
5.338

@<SCITEGIC>MOL_PROPERTY
Idih
SciTegic.value.DoubleValue
0.000

@<SCITEGIC>MOL_PROPERTY
Tether
SciTegic.value.DoubleValue
0.000

@<TRIPOS>MOLECULE
guest-s16_confgen4.mol2 : confsearch ligand conformer 422
          13          13           1
SMALL
USER_CHARGES
 
@<TRIPOS>ATOM
       1    C1      20.843083   18.981263   22.760885 C.3        1 MOL1        -0.1693
       2    H1      21.615596   18.558550   22.105047 H          1 MOL1         0.0829
       3    H2      21.313077   19.289723   23.702318 H          1 MOL1         0.0829
       4    C2      19.548382   18.112920   22.891497 C.3        1 MOL1        -0.1768
       5    H3      18.928860   18.343048   23.767297 H          1 MOL1         0.0829
       6    H4      19.687579   17.027839   22.833228 H          1 MOL1         0.0829
       7    C3      19.093277   18.811714   21.574773 C.3        1 MOL1         0.1211
       8    H5      19.499418   18.352647   20.662979 H          1 MOL1         0.0786
       9    C4      19.912391   20.037869   22.079195 C.3        1 MOL1        -0.1768
      10    H6      19.371079   20.690786   22.775086 H          1 MOL1         0.0829
      11    H7      20.371941   20.656499   21.300689 H          1 MOL1         0.0829
      12    O1      17.705825   19.023175   21.453073 O.3        1 MOL1        -0.5515
      13    H8      17.291589   18.148346   21.290942 H          1 MOL1         0.3773
@<TRIPOS>BOND
    1     1     2    1
    2     1     3    1
    3     1     4    1
    4     4     5    1
    5     4     6    1
    6     4     7    1
    7     7     8    1
    8     1     9    1
    9     7     9    1
   10     9    10    1
   11     9    11    1
   12     7    12    1
   13    12    13    1
@<TRIPOS>SUBSTRUCTURE
       1 MOL1            1 RESIDUE      1      MOL     
@<SCITEGIC>MOL_PROPERTY
VConf Rank
SciTegic.value.IntegerValue
422

@<SCITEGIC>MOL_PROPERTY
Conf_Id
SciTegic.value.IntegerValue
19

@<SCITEGIC>MOL_PROPERTY
Delta U+W
SciTegic.value.DoubleValue
-0.011

@<SCITEGIC>MOL_PROPERTY
U+W
SciTegic.value.DoubleValue
-3.142

@<SCITEGIC>MOL_PROPERTY
Grad RMS
SciTegic.value.DoubleValue
0.000000

@<SCITEGIC>MOL_PROPERTY
U
SciTegic.value.DoubleValue
-0.154

@<SCITEGIC>MOL_PROPERTY
W
SciTegic.value.DoubleValue
-2.989

@<SCITEGIC>MOL_PROPERTY
W(PB)
SciTegic.value.DoubleValue
-4.588

@<SCITEGIC>MOL_PROPERTY
W(SA)
SciTegic.value.DoubleValue
1.599

@<SCITEGIC>MOL_PROPERTY
Valence
SciTegic.value.DoubleValue
6.334

@<SCITEGIC>MOL_PROPERTY
Coulomb
SciTegic.value.DoubleValue
-7.439

@<SCITEGIC>MOL_PROPERTY
VdW
SciTegic.value.DoubleValue
0.951

@<SCITEGIC>MOL_PROPERTY
VdW6
SciTegic.value.DoubleValue
-2.120

@<SCITEGIC>MOL_PROPERTY
VdW12
SciTegic.value.DoubleValue
3.072

@<SCITEGIC>MOL_PROPERTY
Bond
SciTegic.value.DoubleValue
0.065

@<SCITEGIC>MOL_PROPERTY
Angle
SciTegic.value.DoubleValue
0.930

@<SCITEGIC>MOL_PROPERTY
Pdih
SciTegic.value.DoubleValue
5.339

@<SCITEGIC>MOL_PROPERTY
Idih
SciTegic.value.DoubleValue
0.000

@<SCITEGIC>MOL_PROPERTY
Tether
SciTegic.value.DoubleValue
0.000

@<TRIPOS>MOLECULE
guest-s16_confgen4.mol2 : confsearch ligand conformer 423
          13          13           1
SMALL
USER_CHARGES
 
@<TRIPOS>ATOM
       1    C1      18.619407   19.276909   21.615801 C.3        1 MOL1        -0.1693
       2    H1      17.911654   20.046208   21.285285 H          1 MOL1         0.0829
       3    H2      18.366755   18.330872   21.119427 H          1 MOL1         0.0829
       4    C2      18.838719   19.161322   23.160959 C.3        1 MOL1        -0.1768
       5    H3      18.729490   20.105601   23.707925 H          1 MOL1         0.0829
       6    H4      18.253770   18.389679   23.673594 H          1 MOL1         0.0829
       7    C3      20.315481   18.782811   22.827296 C.3        1 MOL1         0.1211
       8    H5      21.056952   19.159588   23.543586 H          1 MOL1         0.0786
       9    C4      20.134820   19.661489   21.550040 C.3        1 MOL1        -0.1768
      10    H6      20.676615   19.328522   20.657884 H          1 MOL1         0.0829
      11    H7      20.339690   20.727634   21.706041 H          1 MOL1         0.0829
      12    O1      20.536032   17.408544   22.580530 O.3        1 MOL1        -0.5515
      13    H8      21.442303   17.320517   22.215730 H          1 MOL1         0.3773
@<TRIPOS>BOND
    1     1     2    1
    2     1     3    1
    3     1     4    1
    4     4     5    1
    5     4     6    1
    6     4     7    1
    7     7     8    1
    8     1     9    1
    9     7     9    1
   10     9    10    1
   11     9    11    1
   12     7    12    1
   13    12    13    1
@<TRIPOS>SUBSTRUCTURE
       1 MOL1            1 RESIDUE      1      MOL     
@<SCITEGIC>MOL_PROPERTY
VConf Rank
SciTegic.value.IntegerValue
423

@<SCITEGIC>MOL_PROPERTY
Conf_Id
SciTegic.value.IntegerValue
20

@<SCITEGIC>MOL_PROPERTY
Delta U+W
SciTegic.value.DoubleValue
1.030

@<SCITEGIC>MOL_PROPERTY
U+W
SciTegic.value.DoubleValue
-2.101

@<SCITEGIC>MOL_PROPERTY
Grad RMS
SciTegic.value.DoubleValue
0.000000

@<SCITEGIC>MOL_PROPERTY
U
SciTegic.value.DoubleValue
0.841

@<SCITEGIC>MOL_PROPERTY
W
SciTegic.value.DoubleValue
-2.942

@<SCITEGIC>MOL_PROPERTY
W(PB)
SciTegic.value.DoubleValue
-4.530

@<SCITEGIC>MOL_PROPERTY
W(SA)
SciTegic.value.DoubleValue
1.587

@<SCITEGIC>MOL_PROPERTY
Valence
SciTegic.value.DoubleValue
6.736

@<SCITEGIC>MOL_PROPERTY
Coulomb
SciTegic.value.DoubleValue
-7.246

@<SCITEGIC>MOL_PROPERTY
VdW
SciTegic.value.DoubleValue
1.352

@<SCITEGIC>MOL_PROPERTY
VdW6
SciTegic.value.DoubleValue
-2.500

@<SCITEGIC>MOL_PROPERTY
VdW12
SciTegic.value.DoubleValue
3.851

@<SCITEGIC>MOL_PROPERTY
Bond
SciTegic.value.DoubleValue
0.063

@<SCITEGIC>MOL_PROPERTY
Angle
SciTegic.value.DoubleValue
0.687

@<SCITEGIC>MOL_PROPERTY
Pdih
SciTegic.value.DoubleValue
5.986

@<SCITEGIC>MOL_PROPERTY
Idih
SciTegic.value.DoubleValue
0.000

@<SCITEGIC>MOL_PROPERTY
Tether
SciTegic.value.DoubleValue
0.000

@<TRIPOS>MOLECULE
guest-s16_confgen4.mol2 : confsearch ligand conformer 424
          13          13           1
SMALL
USER_CHARGES
 
@<TRIPOS>ATOM
       1    C1      21.019156   19.030898   22.078291 C.3        1 MOL1        -0.1693
       2    H1      21.512091   18.310749   21.411906 H          1 MOL1         0.0829
       3    H2      21.782353   19.693924   22.502965 H          1 MOL1         0.0829
       4    C2      20.014833   18.397862   23.097093 C.3        1 MOL1        -0.1768
       5    H3      20.260941   17.392113   23.455133 H          1 MOL1         0.0829
       6    H4      19.779568   19.031310   23.961259 H          1 MOL1         0.0829
       7    C3      18.980567   18.467618   21.933228 C.3        1 MOL1         0.1211
       8    H5      19.042983   17.623966   21.232479 H          1 MOL1         0.0786
       9    C4      19.761893   19.733073   21.467064 C.3        1 MOL1        -0.1768
      10    H6      19.470094   20.664956   21.966899 H          1 MOL1         0.0829
      11    H7      19.784615   19.906519   20.385542 H          1 MOL1         0.0829
      12    O1      17.646288   18.690538   22.322873 O.3        1 MOL1        -0.5515
      13    H8      17.653220   19.449312   22.943303 H          1 MOL1         0.3773
@<TRIPOS>BOND
    1     1     2    1
    2     1     3    1
    3     1     4    1
    4     4     5    1
    5     4     6    1
    6     4     7    1
    7     7     8    1
    8     1     9    1
    9     7     9    1
   10     9    10    1
   11     9    11    1
   12     7    12    1
   13    12    13    1
@<TRIPOS>SUBSTRUCTURE
       1 MOL1            1 RESIDUE      1      MOL     
@<SCITEGIC>MOL_PROPERTY
VConf Rank
SciTegic.value.IntegerValue
424

@<SCITEGIC>MOL_PROPERTY
Conf_Id
SciTegic.value.IntegerValue
24

@<SCITEGIC>MOL_PROPERTY
Delta U+W
SciTegic.value.DoubleValue
0.356

@<SCITEGIC>MOL_PROPERTY
U+W
SciTegic.value.DoubleValue
-2.775

@<SCITEGIC>MOL_PROPERTY
Grad RMS
SciTegic.value.DoubleValue
0.000000

@<SCITEGIC>MOL_PROPERTY
U
SciTegic.value.DoubleValue
-0.184

@<SCITEGIC>MOL_PROPERTY
W
SciTegic.value.DoubleValue
-2.591

@<SCITEGIC>MOL_PROPERTY
W(PB)
SciTegic.value.DoubleValue
-4.184

@<SCITEGIC>MOL_PROPERTY
W(SA)
SciTegic.value.DoubleValue
1.593

@<SCITEGIC>MOL_PROPERTY
Valence
SciTegic.value.DoubleValue
6.840

@<SCITEGIC>MOL_PROPERTY
Coulomb
SciTegic.value.DoubleValue
-7.916

@<SCITEGIC>MOL_PROPERTY
VdW
SciTegic.value.DoubleValue
0.893

@<SCITEGIC>MOL_PROPERTY
VdW6
SciTegic.value.DoubleValue
-2.167

@<SCITEGIC>MOL_PROPERTY
VdW12
SciTegic.value.DoubleValue
3.060

@<SCITEGIC>MOL_PROPERTY
Bond
SciTegic.value.DoubleValue
0.059

@<SCITEGIC>MOL_PROPERTY
Angle
SciTegic.value.DoubleValue
0.918

@<SCITEGIC>MOL_PROPERTY
Pdih
SciTegic.value.DoubleValue
5.862

@<SCITEGIC>MOL_PROPERTY
Idih
SciTegic.value.DoubleValue
0.000

@<SCITEGIC>MOL_PROPERTY
Tether
SciTegic.value.DoubleValue
0.000

@<TRIPOS>MOLECULE
guest-s16_confgen4.mol2 : confsearch ligand conformer 425
          13          13           1
SMALL
USER_CHARGES
 
@<TRIPOS>ATOM
       1    C1      18.993357   18.363325   22.847517 C.3        1 MOL1        -0.1693
       2    H1      18.905521   17.675207   23.696723 H          1 MOL1         0.0829
       3    H2      17.989614   18.543274   22.442037 H          1 MOL1         0.0829
       4    C2      20.078829   17.998175   21.780486 C.3        1 MOL1        -0.1768
       5    H3      20.949338   17.466074   22.183100 H          1 MOL1         0.0829
       6    H4      19.723219   17.462575   20.893141 H          1 MOL1         0.0829
       7    C3      20.294962   19.533708   21.608970 C.3        1 MOL1         0.1211
       8    H5      21.332838   19.834229   21.416647 H          1 MOL1         0.0786
       9    C4      19.843555   19.653590   23.097544 C.3        1 MOL1        -0.1768
      10    H6      20.656377   19.527372   23.823081 H          1 MOL1         0.0829
      11    H7      19.283159   20.558886   23.356587 H          1 MOL1         0.0829
      12    O1      19.433329   20.152045   20.677855 O.3        1 MOL1        -0.5515
      13    H8      18.527758   19.849510   20.896320 H          1 MOL1         0.3773
@<TRIPOS>BOND
    1     1     2    1
    2     1     3    1
    3     1     4    1
    4     4     5    1
    5     4     6    1
    6     4     7    1
    7     7     8    1
    8     1     9    1
    9     7     9    1
   10     9    10    1
   11     9    11    1
   12     7    12    1
   13    12    13    1
@<TRIPOS>SUBSTRUCTURE
       1 MOL1            1 RESIDUE      1      MOL     
@<SCITEGIC>MOL_PROPERTY
VConf Rank
SciTegic.value.IntegerValue
425

@<SCITEGIC>MOL_PROPERTY
Conf_Id
SciTegic.value.IntegerValue
44

@<SCITEGIC>MOL_PROPERTY
Delta U+W
SciTegic.value.DoubleValue
0.823

@<SCITEGIC>MOL_PROPERTY
U+W
SciTegic.value.DoubleValue
-2.308

@<SCITEGIC>MOL_PROPERTY
Grad RMS
SciTegic.value.DoubleValue
0.000000

@<SCITEGIC>MOL_PROPERTY
U
SciTegic.value.DoubleValue
0.039

@<SCITEGIC>MOL_PROPERTY
W
SciTegic.value.DoubleValue
-2.348

@<SCITEGIC>MOL_PROPERTY
W(PB)
SciTegic.value.DoubleValue
-3.918

@<SCITEGIC>MOL_PROPERTY
W(SA)
SciTegic.value.DoubleValue
1.571

@<SCITEGIC>MOL_PROPERTY
Valence
SciTegic.value.DoubleValue
7.320

@<SCITEGIC>MOL_PROPERTY
Coulomb
SciTegic.value.DoubleValue
-8.530

@<SCITEGIC>MOL_PROPERTY
VdW
SciTegic.value.DoubleValue
1.249

@<SCITEGIC>MOL_PROPERTY
VdW6
SciTegic.value.DoubleValue
-2.615

@<SCITEGIC>MOL_PROPERTY
VdW12
SciTegic.value.DoubleValue
3.864

@<SCITEGIC>MOL_PROPERTY
Bond
SciTegic.value.DoubleValue
0.056

@<SCITEGIC>MOL_PROPERTY
Angle
SciTegic.value.DoubleValue
0.694

@<SCITEGIC>MOL_PROPERTY
Pdih
SciTegic.value.DoubleValue
6.570

@<SCITEGIC>MOL_PROPERTY
Idih
SciTegic.value.DoubleValue
0.000

@<SCITEGIC>MOL_PROPERTY
Tether
SciTegic.value.DoubleValue
0.000

@<TRIPOS>MOLECULE
guest-s16_confgen4.mol2 : confsearch ligand conformer 426
          13          13           1
SMALL
USER_CHARGES
 
@<TRIPOS>ATOM
       1    C1      18.556098   18.330984   22.240222 C.3        1 MOL1        -0.1693
       2    H1      17.742529   18.784453   22.821651 H          1 MOL1         0.0829
       3    H2      18.180587   17.416098   21.766607 H          1 MOL1         0.0829
       4    C2      19.913929   18.200536   23.006110 C.3        1 MOL1        -0.1768
       5    H3      19.845643   18.026251   24.085426 H          1 MOL1         0.0829
       6    H4      20.617000   17.476746   22.575525 H          1 MOL1         0.0829
       7    C3      20.160922   19.676935   22.572421 C.3        1 MOL1         0.1211
       8    H5      19.683691   20.417153   23.229224 H          1 MOL1         0.0786
       9    C4      19.324585   19.322766   21.305812 C.3        1 MOL1        -0.1768
      10    H6      18.732937   20.140442   20.879748 H          1 MOL1         0.0829
      11    H7      19.896526   18.844053   20.501130 H          1 MOL1         0.0829
      12    O1      21.506566   20.016539   22.330639 O.3        1 MOL1        -0.5515
      13    H8      21.511715   20.904952   21.913628 H          1 MOL1         0.3773
@<TRIPOS>BOND
    1     1     2    1
    2     1     3    1
    3     1     4    1
    4     4     5    1
    5     4     6    1
    6     4     7    1
    7     7     8    1
    8     1     9    1
    9     7     9    1
   10     9    10    1
   11     9    11    1
   12     7    12    1
   13    12    13    1
@<TRIPOS>SUBSTRUCTURE
       1 MOL1            1 RESIDUE      1      MOL     
@<SCITEGIC>MOL_PROPERTY
VConf Rank
SciTegic.value.IntegerValue
426

@<SCITEGIC>MOL_PROPERTY
Conf_Id
SciTegic.value.IntegerValue
22

@<SCITEGIC>MOL_PROPERTY
Delta U+W
SciTegic.value.DoubleValue
0.000

@<SCITEGIC>MOL_PROPERTY
U+W
SciTegic.value.DoubleValue
-3.131

@<SCITEGIC>MOL_PROPERTY
Grad RMS
SciTegic.value.DoubleValue
0.000000

@<SCITEGIC>MOL_PROPERTY
U
SciTegic.value.DoubleValue
-0.154

@<SCITEGIC>MOL_PROPERTY
W
SciTegic.value.DoubleValue
-2.978

@<SCITEGIC>MOL_PROPERTY
W(PB)
SciTegic.value.DoubleValue
-4.579

@<SCITEGIC>MOL_PROPERTY
W(SA)
SciTegic.value.DoubleValue
1.601

@<SCITEGIC>MOL_PROPERTY
Valence
SciTegic.value.DoubleValue
6.333

@<SCITEGIC>MOL_PROPERTY
Coulomb
SciTegic.value.DoubleValue
-7.439

@<SCITEGIC>MOL_PROPERTY
VdW
SciTegic.value.DoubleValue
0.952

@<SCITEGIC>MOL_PROPERTY
VdW6
SciTegic.value.DoubleValue
-2.120

@<SCITEGIC>MOL_PROPERTY
VdW12
SciTegic.value.DoubleValue
3.072

@<SCITEGIC>MOL_PROPERTY
Bond
SciTegic.value.DoubleValue
0.065

@<SCITEGIC>MOL_PROPERTY
Angle
SciTegic.value.DoubleValue
0.931

@<SCITEGIC>MOL_PROPERTY
Pdih
SciTegic.value.DoubleValue
5.338

@<SCITEGIC>MOL_PROPERTY
Idih
SciTegic.value.DoubleValue
0.000

@<SCITEGIC>MOL_PROPERTY
Tether
SciTegic.value.DoubleValue
0.000

@<TRIPOS>MOLECULE
guest-s16_confgen4.mol2 : confsearch ligand conformer 427
          13          13           1
SMALL
USER_CHARGES
 
@<TRIPOS>ATOM
       1    C1      20.783230   19.185045   21.660496 C.3        1 MOL1        -0.1693
       2    H1      20.734440   19.149761   20.564156 H          1 MOL1         0.0829
       3    H2      21.819828   19.381818   21.958964 H          1 MOL1         0.0829
       4    C2      20.073530   17.994544   22.386005 C.3        1 MOL1        -0.1768
       5    H3      20.386335   17.840022   23.426231 H          1 MOL1         0.0829
       6    H4      20.093782   17.031162   21.864797 H          1 MOL1         0.0829
       7    C3      18.768540   18.830314   22.219622 C.3        1 MOL1         0.1211
       8    H5      18.291907   18.721722   21.235707 H          1 MOL1         0.0786
       9    C4      19.692249   20.080173   22.335633 C.3        1 MOL1        -0.1768
      10    H6      19.919059   20.383611   23.365229 H          1 MOL1         0.0829
      11    H7      19.372900   20.962527   21.770452 H          1 MOL1         0.0829
      12    O1      17.822386   18.682713   23.252848 O.3        1 MOL1        -0.5515
      13    H8      17.423913   17.790968   23.156870 H          1 MOL1         0.3773
@<TRIPOS>BOND
    1     1     2    1
    2     1     3    1
    3     1     4    1
    4     4     5    1
    5     4     6    1
    6     4     7    1
    7     7     8    1
    8     1     9    1
    9     7     9    1
   10     9    10    1
   11     9    11    1
   12     7    12    1
   13    12    13    1
@<TRIPOS>SUBSTRUCTURE
       1 MOL1            1 RESIDUE      1      MOL     
@<SCITEGIC>MOL_PROPERTY
VConf Rank
SciTegic.value.IntegerValue
427

@<SCITEGIC>MOL_PROPERTY
Conf_Id
SciTegic.value.IntegerValue
19

@<SCITEGIC>MOL_PROPERTY
Delta U+W
SciTegic.value.DoubleValue
-0.011

@<SCITEGIC>MOL_PROPERTY
U+W
SciTegic.value.DoubleValue
-3.142

@<SCITEGIC>MOL_PROPERTY
Grad RMS
SciTegic.value.DoubleValue
0.000000

@<SCITEGIC>MOL_PROPERTY
U
SciTegic.value.DoubleValue
-0.154

@<SCITEGIC>MOL_PROPERTY
W
SciTegic.value.DoubleValue
-2.989

@<SCITEGIC>MOL_PROPERTY
W(PB)
SciTegic.value.DoubleValue
-4.588

@<SCITEGIC>MOL_PROPERTY
W(SA)
SciTegic.value.DoubleValue
1.599

@<SCITEGIC>MOL_PROPERTY
Valence
SciTegic.value.DoubleValue
6.334

@<SCITEGIC>MOL_PROPERTY
Coulomb
SciTegic.value.DoubleValue
-7.439

@<SCITEGIC>MOL_PROPERTY
VdW
SciTegic.value.DoubleValue
0.951

@<SCITEGIC>MOL_PROPERTY
VdW6
SciTegic.value.DoubleValue
-2.120

@<SCITEGIC>MOL_PROPERTY
VdW12
SciTegic.value.DoubleValue
3.072

@<SCITEGIC>MOL_PROPERTY
Bond
SciTegic.value.DoubleValue
0.065

@<SCITEGIC>MOL_PROPERTY
Angle
SciTegic.value.DoubleValue
0.930

@<SCITEGIC>MOL_PROPERTY
Pdih
SciTegic.value.DoubleValue
5.339

@<SCITEGIC>MOL_PROPERTY
Idih
SciTegic.value.DoubleValue
0.000

@<SCITEGIC>MOL_PROPERTY
Tether
SciTegic.value.DoubleValue
0.000

@<TRIPOS>MOLECULE
guest-s16_confgen4.mol2 : confsearch ligand conformer 428
          13          13           1
SMALL
USER_CHARGES
 
@<TRIPOS>ATOM
       1    C1      19.988460   19.933260   23.066073 C.3        1 MOL1        -0.1693
       2    H1      20.510453   20.892088   23.166815 H          1 MOL1         0.0829
       3    H2      19.559143   19.663247   24.039719 H          1 MOL1         0.0829
       4    C2      20.788522   18.783818   22.367750 C.3        1 MOL1        -0.1768
       5    H3      21.504599   19.123341   21.609644 H          1 MOL1         0.0829
       6    H4      21.292982   18.075152   23.033862 H          1 MOL1         0.0829
       7    C3      19.418887   18.311678   21.787568 C.3        1 MOL1         0.1211
       8    H5      19.470729   17.898224   20.772097 H          1 MOL1         0.0786
       9    C4      18.996565   19.812420   21.861813 C.3        1 MOL1        -0.1768
      10    H6      17.941601   20.003509   22.087396 H          1 MOL1         0.0829
      11    H7      19.278209   20.402048   20.980911 H          1 MOL1         0.0829
      12    O1      18.685239   17.442539   22.626914 O.3        1 MOL1        -0.5515
      13    H8      17.786299   17.358372   22.243537 H          1 MOL1         0.3773
@<TRIPOS>BOND
    1     1     2    1
    2     1     3    1
    3     1     4    1
    4     4     5    1
    5     4     6    1
    6     4     7    1
    7     7     8    1
    8     1     9    1
    9     7     9    1
   10     9    10    1
   11     9    11    1
   12     7    12    1
   13    12    13    1
@<TRIPOS>SUBSTRUCTURE
       1 MOL1            1 RESIDUE      1      MOL     
@<SCITEGIC>MOL_PROPERTY
VConf Rank
SciTegic.value.IntegerValue
428

@<SCITEGIC>MOL_PROPERTY
Conf_Id
SciTegic.value.IntegerValue
20

@<SCITEGIC>MOL_PROPERTY
Delta U+W
SciTegic.value.DoubleValue
1.030

@<SCITEGIC>MOL_PROPERTY
U+W
SciTegic.value.DoubleValue
-2.101

@<SCITEGIC>MOL_PROPERTY
Grad RMS
SciTegic.value.DoubleValue
0.000000

@<SCITEGIC>MOL_PROPERTY
U
SciTegic.value.DoubleValue
0.841

@<SCITEGIC>MOL_PROPERTY
W
SciTegic.value.DoubleValue
-2.942

@<SCITEGIC>MOL_PROPERTY
W(PB)
SciTegic.value.DoubleValue
-4.530

@<SCITEGIC>MOL_PROPERTY
W(SA)
SciTegic.value.DoubleValue
1.587

@<SCITEGIC>MOL_PROPERTY
Valence
SciTegic.value.DoubleValue
6.736

@<SCITEGIC>MOL_PROPERTY
Coulomb
SciTegic.value.DoubleValue
-7.246

@<SCITEGIC>MOL_PROPERTY
VdW
SciTegic.value.DoubleValue
1.352

@<SCITEGIC>MOL_PROPERTY
VdW6
SciTegic.value.DoubleValue
-2.500

@<SCITEGIC>MOL_PROPERTY
VdW12
SciTegic.value.DoubleValue
3.851

@<SCITEGIC>MOL_PROPERTY
Bond
SciTegic.value.DoubleValue
0.063

@<SCITEGIC>MOL_PROPERTY
Angle
SciTegic.value.DoubleValue
0.687

@<SCITEGIC>MOL_PROPERTY
Pdih
SciTegic.value.DoubleValue
5.986

@<SCITEGIC>MOL_PROPERTY
Idih
SciTegic.value.DoubleValue
0.000

@<SCITEGIC>MOL_PROPERTY
Tether
SciTegic.value.DoubleValue
0.000

@<TRIPOS>MOLECULE
guest-s16_confgen4.mol2 : confsearch ligand conformer 429
          13          13           1
SMALL
USER_CHARGES
 
@<TRIPOS>ATOM
       1    C1      20.467801   19.417652   21.259609 C.3        1 MOL1        -0.1693
       2    H1      19.969885   20.000523   20.473473 H          1 MOL1         0.0829
       3    H2      21.538961   19.365059   21.030979 H          1 MOL1         0.0829
       4    C2      19.771922   18.060421   21.607510 C.3        1 MOL1        -0.1768
       5    H3      19.265052   17.552366   20.779709 H          1 MOL1         0.0829
       6    H4      20.413813   17.336521   22.124553 H          1 MOL1         0.0829
       7    C3      18.857858   18.909414   22.541776 C.3        1 MOL1         0.1211
       8    H5      18.015235   19.387400   22.023887 H          1 MOL1         0.0786
       9    C4      20.096668   19.838253   22.719990 C.3        1 MOL1        -0.1768
      10    H6      20.811144   19.511721   23.485686 H          1 MOL1         0.0829
      11    H7      19.876596   20.900294   22.874680 H          1 MOL1         0.0829
      12    O1      18.417039   18.258998   23.709875 O.3        1 MOL1        -0.5515
      13    H8      19.206630   17.854215   24.126308 H          1 MOL1         0.3773
@<TRIPOS>BOND
    1     1     2    1
    2     1     3    1
    3     1     4    1
    4     4     5    1
    5     4     6    1
    6     4     7    1
    7     7     8    1
    8     1     9    1
    9     7     9    1
   10     9    10    1
   11     9    11    1
   12     7    12    1
   13    12    13    1
@<TRIPOS>SUBSTRUCTURE
       1 MOL1            1 RESIDUE      1      MOL     
@<SCITEGIC>MOL_PROPERTY
VConf Rank
SciTegic.value.IntegerValue
429

@<SCITEGIC>MOL_PROPERTY
Conf_Id
SciTegic.value.IntegerValue
24

@<SCITEGIC>MOL_PROPERTY
Delta U+W
SciTegic.value.DoubleValue
0.356

@<SCITEGIC>MOL_PROPERTY
U+W
SciTegic.value.DoubleValue
-2.775

@<SCITEGIC>MOL_PROPERTY
Grad RMS
SciTegic.value.DoubleValue
0.000000

@<SCITEGIC>MOL_PROPERTY
U
SciTegic.value.DoubleValue
-0.184

@<SCITEGIC>MOL_PROPERTY
W
SciTegic.value.DoubleValue
-2.591

@<SCITEGIC>MOL_PROPERTY
W(PB)
SciTegic.value.DoubleValue
-4.184

@<SCITEGIC>MOL_PROPERTY
W(SA)
SciTegic.value.DoubleValue
1.593

@<SCITEGIC>MOL_PROPERTY
Valence
SciTegic.value.DoubleValue
6.840

@<SCITEGIC>MOL_PROPERTY
Coulomb
SciTegic.value.DoubleValue
-7.916

@<SCITEGIC>MOL_PROPERTY
VdW
SciTegic.value.DoubleValue
0.893

@<SCITEGIC>MOL_PROPERTY
VdW6
SciTegic.value.DoubleValue
-2.167

@<SCITEGIC>MOL_PROPERTY
VdW12
SciTegic.value.DoubleValue
3.060

@<SCITEGIC>MOL_PROPERTY
Bond
SciTegic.value.DoubleValue
0.059

@<SCITEGIC>MOL_PROPERTY
Angle
SciTegic.value.DoubleValue
0.918

@<SCITEGIC>MOL_PROPERTY
Pdih
SciTegic.value.DoubleValue
5.862

@<SCITEGIC>MOL_PROPERTY
Idih
SciTegic.value.DoubleValue
0.000

@<SCITEGIC>MOL_PROPERTY
Tether
SciTegic.value.DoubleValue
0.000

@<TRIPOS>MOLECULE
guest-s16_confgen4.mol2 : confsearch ligand conformer 430
          13          13           1
SMALL
USER_CHARGES
 
@<TRIPOS>ATOM
       1    C1      19.619779   18.617635   21.143385 C.3        1 MOL1        -0.1693
       2    H1      19.341651   17.791848   20.477732 H          1 MOL1         0.0829
       3    H2      19.976295   19.453576   20.528248 H          1 MOL1         0.0829
       4    C2      20.547691   18.243277   22.347118 C.3        1 MOL1        -0.1768
       5    H3      20.413655   17.221306   22.722119 H          1 MOL1         0.0829
       6    H4      21.619099   18.424580   22.205968 H          1 MOL1         0.0829
       7    C3      19.774357   19.326399   23.161238 C.3        1 MOL1         0.1211
       8    H5      19.619552   19.083476   24.220252 H          1 MOL1         0.0786
       9    C4      18.563398   19.004627   22.231702 C.3        1 MOL1        -0.1768
      10    H6      17.942843   18.169329   22.578404 H          1 MOL1         0.0829
      11    H7      17.907647   19.848619   21.990091 H          1 MOL1         0.0829
      12    O1      20.284260   20.636415   23.036404 O.3        1 MOL1        -0.5515
      13    H8      20.401629   20.796883   22.077348 H          1 MOL1         0.3773
@<TRIPOS>BOND
    1     1     2    1
    2     1     3    1
    3     1     4    1
    4     4     5    1
    5     4     6    1
    6     4     7    1
    7     7     8    1
    8     1     9    1
    9     7     9    1
   10     9    10    1
   11     9    11    1
   12     7    12    1
   13    12    13    1
@<TRIPOS>SUBSTRUCTURE
       1 MOL1            1 RESIDUE      1      MOL     
@<SCITEGIC>MOL_PROPERTY
VConf Rank
SciTegic.value.IntegerValue
430

@<SCITEGIC>MOL_PROPERTY
Conf_Id
SciTegic.value.IntegerValue
44

@<SCITEGIC>MOL_PROPERTY
Delta U+W
SciTegic.value.DoubleValue
0.823

@<SCITEGIC>MOL_PROPERTY
U+W
SciTegic.value.DoubleValue
-2.308

@<SCITEGIC>MOL_PROPERTY
Grad RMS
SciTegic.value.DoubleValue
0.000000

@<SCITEGIC>MOL_PROPERTY
U
SciTegic.value.DoubleValue
0.039

@<SCITEGIC>MOL_PROPERTY
W
SciTegic.value.DoubleValue
-2.348

@<SCITEGIC>MOL_PROPERTY
W(PB)
SciTegic.value.DoubleValue
-3.918

@<SCITEGIC>MOL_PROPERTY
W(SA)
SciTegic.value.DoubleValue
1.571

@<SCITEGIC>MOL_PROPERTY
Valence
SciTegic.value.DoubleValue
7.320

@<SCITEGIC>MOL_PROPERTY
Coulomb
SciTegic.value.DoubleValue
-8.530

@<SCITEGIC>MOL_PROPERTY
VdW
SciTegic.value.DoubleValue
1.249

@<SCITEGIC>MOL_PROPERTY
VdW6
SciTegic.value.DoubleValue
-2.615

@<SCITEGIC>MOL_PROPERTY
VdW12
SciTegic.value.DoubleValue
3.864

@<SCITEGIC>MOL_PROPERTY
Bond
SciTegic.value.DoubleValue
0.056

@<SCITEGIC>MOL_PROPERTY
Angle
SciTegic.value.DoubleValue
0.694

@<SCITEGIC>MOL_PROPERTY
Pdih
SciTegic.value.DoubleValue
6.570

@<SCITEGIC>MOL_PROPERTY
Idih
SciTegic.value.DoubleValue
0.000

@<SCITEGIC>MOL_PROPERTY
Tether
SciTegic.value.DoubleValue
0.000

@<TRIPOS>MOLECULE
guest-s16_confgen4.mol2 : confsearch ligand conformer 431
          13          13           1
SMALL
USER_CHARGES
 
@<TRIPOS>ATOM
       1    C1      19.209066   20.018545   23.009655 C.3        1 MOL1        -0.1693
       2    H1      18.117736   20.131094   22.965850 H          1 MOL1         0.0829
       3    H2      19.606829   20.739030   23.734240 H          1 MOL1         0.0829
       4    C2      19.919614   19.981918   21.616426 C.3        1 MOL1        -0.1768
       5    H3      19.459739   20.581105   20.823047 H          1 MOL1         0.0829
       6    H4      20.995034   20.197220   21.642957 H          1 MOL1         0.0829
       7    C3      19.565021   18.464326   21.611406 C.3        1 MOL1         0.1211
       8    H5      18.543320   18.249428   21.269341 H          1 MOL1         0.0786
       9    C4      19.709544   18.544138   23.161224 C.3        1 MOL1        -0.1768
      10    H6      19.063325   17.872280   23.736707 H          1 MOL1         0.0829
      11    H7      20.738581   18.445158   23.528756 H          1 MOL1         0.0829
      12    O1      20.495975   17.630466   20.961369 O.3        1 MOL1        -0.5515
      13    H8      20.248943   16.703198   21.167164 H          1 MOL1         0.3773
@<TRIPOS>BOND
    1     1     2    1
    2     1     3    1
    3     1     4    1
    4     4     5    1
    5     4     6    1
    6     4     7    1
    7     7     8    1
    8     1     9    1
    9     7     9    1
   10     9    10    1
   11     9    11    1
   12     7    12    1
   13    12    13    1
@<TRIPOS>SUBSTRUCTURE
       1 MOL1            1 RESIDUE      1      MOL     
@<SCITEGIC>MOL_PROPERTY
VConf Rank
SciTegic.value.IntegerValue
431

@<SCITEGIC>MOL_PROPERTY
Conf_Id
SciTegic.value.IntegerValue
22

@<SCITEGIC>MOL_PROPERTY
Delta U+W
SciTegic.value.DoubleValue
0.000

@<SCITEGIC>MOL_PROPERTY
U+W
SciTegic.value.DoubleValue
-3.131

@<SCITEGIC>MOL_PROPERTY
Grad RMS
SciTegic.value.DoubleValue
0.000000

@<SCITEGIC>MOL_PROPERTY
U
SciTegic.value.DoubleValue
-0.154

@<SCITEGIC>MOL_PROPERTY
W
SciTegic.value.DoubleValue
-2.978

@<SCITEGIC>MOL_PROPERTY
W(PB)
SciTegic.value.DoubleValue
-4.579

@<SCITEGIC>MOL_PROPERTY
W(SA)
SciTegic.value.DoubleValue
1.601

@<SCITEGIC>MOL_PROPERTY
Valence
SciTegic.value.DoubleValue
6.333

@<SCITEGIC>MOL_PROPERTY
Coulomb
SciTegic.value.DoubleValue
-7.439

@<SCITEGIC>MOL_PROPERTY
VdW
SciTegic.value.DoubleValue
0.952

@<SCITEGIC>MOL_PROPERTY
VdW6
SciTegic.value.DoubleValue
-2.120

@<SCITEGIC>MOL_PROPERTY
VdW12
SciTegic.value.DoubleValue
3.072

@<SCITEGIC>MOL_PROPERTY
Bond
SciTegic.value.DoubleValue
0.065

@<SCITEGIC>MOL_PROPERTY
Angle
SciTegic.value.DoubleValue
0.931

@<SCITEGIC>MOL_PROPERTY
Pdih
SciTegic.value.DoubleValue
5.338

@<SCITEGIC>MOL_PROPERTY
Idih
SciTegic.value.DoubleValue
0.000

@<SCITEGIC>MOL_PROPERTY
Tether
SciTegic.value.DoubleValue
0.000

@<TRIPOS>MOLECULE
guest-s16_confgen4.mol2 : confsearch ligand conformer 432
          13          13           1
SMALL
USER_CHARGES
 
@<TRIPOS>ATOM
       1    C1      18.345524   18.622074   22.217695 C.3        1 MOL1        -0.1693
       2    H1      18.131758   17.597004   22.548032 H          1 MOL1         0.0829
       3    H2      17.406046   19.091968   21.903181 H          1 MOL1         0.0829
       4    C2      19.545697   18.752354   21.222737 C.3        1 MOL1        -0.1768
       5    H3      19.562320   19.684691   20.644582 H          1 MOL1         0.0829
       6    H4      19.698594   17.910392   20.538707 H          1 MOL1         0.0829
       7    C3      20.442910   18.764634   22.497120 C.3        1 MOL1         0.1211
       8    H5      20.672368   17.764815   22.890530 H          1 MOL1         0.0786
       9    C4      19.234689   19.454088   23.199756 C.3        1 MOL1        -0.1768
      10    H6      19.185214   20.540640   23.056439 H          1 MOL1         0.0829
      11    H7      19.114496   19.233446   24.265979 H          1 MOL1         0.0829
      12    O1      21.611456   19.545911   22.404071 O.3        1 MOL1        -0.5515
      13    H8      22.231027   19.072364   21.808179 H          1 MOL1         0.3773
@<TRIPOS>BOND
    1     1     2    1
    2     1     3    1
    3     1     4    1
    4     4     5    1
    5     4     6    1
    6     4     7    1
    7     7     8    1
    8     1     9    1
    9     7     9    1
   10     9    10    1
   11     9    11    1
   12     7    12    1
   13    12    13    1
@<TRIPOS>SUBSTRUCTURE
       1 MOL1            1 RESIDUE      1      MOL     
@<SCITEGIC>MOL_PROPERTY
VConf Rank
SciTegic.value.IntegerValue
432

@<SCITEGIC>MOL_PROPERTY
Conf_Id
SciTegic.value.IntegerValue
19

@<SCITEGIC>MOL_PROPERTY
Delta U+W
SciTegic.value.DoubleValue
-0.011

@<SCITEGIC>MOL_PROPERTY
U+W
SciTegic.value.DoubleValue
-3.142

@<SCITEGIC>MOL_PROPERTY
Grad RMS
SciTegic.value.DoubleValue
0.000000

@<SCITEGIC>MOL_PROPERTY
U
SciTegic.value.DoubleValue
-0.154

@<SCITEGIC>MOL_PROPERTY
W
SciTegic.value.DoubleValue
-2.989

@<SCITEGIC>MOL_PROPERTY
W(PB)
SciTegic.value.DoubleValue
-4.588

@<SCITEGIC>MOL_PROPERTY
W(SA)
SciTegic.value.DoubleValue
1.599

@<SCITEGIC>MOL_PROPERTY
Valence
SciTegic.value.DoubleValue
6.334

@<SCITEGIC>MOL_PROPERTY
Coulomb
SciTegic.value.DoubleValue
-7.439

@<SCITEGIC>MOL_PROPERTY
VdW
SciTegic.value.DoubleValue
0.951

@<SCITEGIC>MOL_PROPERTY
VdW6
SciTegic.value.DoubleValue
-2.120

@<SCITEGIC>MOL_PROPERTY
VdW12
SciTegic.value.DoubleValue
3.072

@<SCITEGIC>MOL_PROPERTY
Bond
SciTegic.value.DoubleValue
0.065

@<SCITEGIC>MOL_PROPERTY
Angle
SciTegic.value.DoubleValue
0.930

@<SCITEGIC>MOL_PROPERTY
Pdih
SciTegic.value.DoubleValue
5.339

@<SCITEGIC>MOL_PROPERTY
Idih
SciTegic.value.DoubleValue
0.000

@<SCITEGIC>MOL_PROPERTY
Tether
SciTegic.value.DoubleValue
0.000

@<TRIPOS>MOLECULE
guest-s16_confgen4.mol2 : confsearch ligand conformer 433
          13          13           1
SMALL
USER_CHARGES
 
@<TRIPOS>ATOM
       1    C1      19.095615   19.962618   22.915523 C.3        1 MOL1        -0.1693
       2    H1      19.266491   20.827059   23.567843 H          1 MOL1         0.0829
       3    H2      18.024127   19.903994   22.683826 H          1 MOL1         0.0829
       4    C2      19.734335   18.611924   23.380961 C.3        1 MOL1        -0.1768
       5    H3      20.667317   18.720999   23.947011 H          1 MOL1         0.0829
       6    H4      19.072416   17.928745   23.924582 H          1 MOL1         0.0829
       7    C3      19.938575   18.296120   21.866371 C.3        1 MOL1         0.1211
       8    H5      20.858250   17.743586   21.634602 H          1 MOL1         0.0786
       9    C4      20.037586   19.841581   21.671843 C.3        1 MOL1        -0.1768
      10    H6      19.640593   20.232982   20.728681 H          1 MOL1         0.0829
      11    H7      21.044348   20.249469   21.823609 H          1 MOL1         0.0829
      12    O1      18.833535   17.683902   21.232163 O.3        1 MOL1        -0.5515
      13    H8      19.008499   17.696718   20.267084 H          1 MOL1         0.3773
@<TRIPOS>BOND
    1     1     2    1
    2     1     3    1
    3     1     4    1
    4     4     5    1
    5     4     6    1
    6     4     7    1
    7     7     8    1
    8     1     9    1
    9     7     9    1
   10     9    10    1
   11     9    11    1
   12     7    12    1
   13    12    13    1
@<TRIPOS>SUBSTRUCTURE
       1 MOL1            1 RESIDUE      1      MOL     
@<SCITEGIC>MOL_PROPERTY
VConf Rank
SciTegic.value.IntegerValue
433

@<SCITEGIC>MOL_PROPERTY
Conf_Id
SciTegic.value.IntegerValue
20

@<SCITEGIC>MOL_PROPERTY
Delta U+W
SciTegic.value.DoubleValue
1.030

@<SCITEGIC>MOL_PROPERTY
U+W
SciTegic.value.DoubleValue
-2.101

@<SCITEGIC>MOL_PROPERTY
Grad RMS
SciTegic.value.DoubleValue
0.000000

@<SCITEGIC>MOL_PROPERTY
U
SciTegic.value.DoubleValue
0.841

@<SCITEGIC>MOL_PROPERTY
W
SciTegic.value.DoubleValue
-2.942

@<SCITEGIC>MOL_PROPERTY
W(PB)
SciTegic.value.DoubleValue
-4.530

@<SCITEGIC>MOL_PROPERTY
W(SA)
SciTegic.value.DoubleValue
1.587

@<SCITEGIC>MOL_PROPERTY
Valence
SciTegic.value.DoubleValue
6.736

@<SCITEGIC>MOL_PROPERTY
Coulomb
SciTegic.value.DoubleValue
-7.246

@<SCITEGIC>MOL_PROPERTY
VdW
SciTegic.value.DoubleValue
1.352

@<SCITEGIC>MOL_PROPERTY
VdW6
SciTegic.value.DoubleValue
-2.500

@<SCITEGIC>MOL_PROPERTY
VdW12
SciTegic.value.DoubleValue
3.851

@<SCITEGIC>MOL_PROPERTY
Bond
SciTegic.value.DoubleValue
0.063

@<SCITEGIC>MOL_PROPERTY
Angle
SciTegic.value.DoubleValue
0.687

@<SCITEGIC>MOL_PROPERTY
Pdih
SciTegic.value.DoubleValue
5.986

@<SCITEGIC>MOL_PROPERTY
Idih
SciTegic.value.DoubleValue
0.000

@<SCITEGIC>MOL_PROPERTY
Tether
SciTegic.value.DoubleValue
0.000

@<TRIPOS>MOLECULE
guest-s16_confgen4.mol2 : confsearch ligand conformer 434
          13          13           1
SMALL
USER_CHARGES
 
@<TRIPOS>ATOM
       1    C1      19.988568   19.498257   21.077536 C.3        1 MOL1        -0.1693
       2    H1      19.387708   20.369832   20.785997 H          1 MOL1         0.0829
       3    H2      20.704292   19.282439   20.275299 H          1 MOL1         0.0829
       4    C2      19.160848   18.280489   21.606001 C.3        1 MOL1        -0.1768
       5    H3      18.167637   18.144403   21.164066 H          1 MOL1         0.0829
       6    H4      19.691810   17.320892   21.580688 H          1 MOL1         0.0829
       7    C3      19.194867   19.011515   22.982082 C.3        1 MOL1         0.1211
       8    H5      18.422182   19.784304   23.093652 H          1 MOL1         0.0786
       9    C4      20.578278   19.565051   22.524995 C.3        1 MOL1        -0.1768
      10    H6      21.426054   18.892570   22.705088 H          1 MOL1         0.0829
      11    H7      20.836874   20.563428   22.894674 H          1 MOL1         0.0829
      12    O1      19.223056   18.172134   24.111888 O.3        1 MOL1        -0.5515
      13    H8      19.926428   17.507524   23.956070 H          1 MOL1         0.3773
@<TRIPOS>BOND
    1     1     2    1
    2     1     3    1
    3     1     4    1
    4     4     5    1
    5     4     6    1
    6     4     7    1
    7     7     8    1
    8     1     9    1
    9     7     9    1
   10     9    10    1
   11     9    11    1
   12     7    12    1
   13    12    13    1
@<TRIPOS>SUBSTRUCTURE
       1 MOL1            1 RESIDUE      1      MOL     
@<SCITEGIC>MOL_PROPERTY
VConf Rank
SciTegic.value.IntegerValue
434

@<SCITEGIC>MOL_PROPERTY
Conf_Id
SciTegic.value.IntegerValue
24

@<SCITEGIC>MOL_PROPERTY
Delta U+W
SciTegic.value.DoubleValue
0.356

@<SCITEGIC>MOL_PROPERTY
U+W
SciTegic.value.DoubleValue
-2.775

@<SCITEGIC>MOL_PROPERTY
Grad RMS
SciTegic.value.DoubleValue
0.000000

@<SCITEGIC>MOL_PROPERTY
U
SciTegic.value.DoubleValue
-0.184

@<SCITEGIC>MOL_PROPERTY
W
SciTegic.value.DoubleValue
-2.591

@<SCITEGIC>MOL_PROPERTY
W(PB)
SciTegic.value.DoubleValue
-4.184

@<SCITEGIC>MOL_PROPERTY
W(SA)
SciTegic.value.DoubleValue
1.593

@<SCITEGIC>MOL_PROPERTY
Valence
SciTegic.value.DoubleValue
6.840

@<SCITEGIC>MOL_PROPERTY
Coulomb
SciTegic.value.DoubleValue
-7.916

@<SCITEGIC>MOL_PROPERTY
VdW
SciTegic.value.DoubleValue
0.893

@<SCITEGIC>MOL_PROPERTY
VdW6
SciTegic.value.DoubleValue
-2.167

@<SCITEGIC>MOL_PROPERTY
VdW12
SciTegic.value.DoubleValue
3.060

@<SCITEGIC>MOL_PROPERTY
Bond
SciTegic.value.DoubleValue
0.059

@<SCITEGIC>MOL_PROPERTY
Angle
SciTegic.value.DoubleValue
0.918

@<SCITEGIC>MOL_PROPERTY
Pdih
SciTegic.value.DoubleValue
5.862

@<SCITEGIC>MOL_PROPERTY
Idih
SciTegic.value.DoubleValue
0.000

@<SCITEGIC>MOL_PROPERTY
Tether
SciTegic.value.DoubleValue
0.000

@<TRIPOS>MOLECULE
guest-s16_confgen4.mol2 : confsearch ligand conformer 435
          13          13           1
SMALL
USER_CHARGES
 
@<TRIPOS>ATOM
       1    C1      18.834172   19.293554   21.558261 C.3        1 MOL1        -0.1693
       2    H1      18.480547   20.018665   20.815606 H          1 MOL1         0.0829
       3    H2      18.024301   18.580966   21.759814 H          1 MOL1         0.0829
       4    C2      19.513545   19.896082   22.833232 C.3        1 MOL1        -0.1768
       5    H3      20.033490   20.846793   22.663458 H          1 MOL1         0.0829
       6    H4      18.874498   20.001787   23.717060 H          1 MOL1         0.0829
       7    C3      20.448279   18.647138   22.813163 C.3        1 MOL1         0.1211
       8    H5      21.481162   18.839572   23.130350 H          1 MOL1         0.0786
       9    C4      20.227639   18.641975   21.268726 C.3        1 MOL1        -0.1768
      10    H6      20.922668   19.285197   20.715357 H          1 MOL1         0.0829
      11    H7      20.210149   17.656088   20.790783 H          1 MOL1         0.0829
      12    O1      19.939411   17.516475   23.487242 O.3        1 MOL1        -0.5515
      13    H8      19.021996   17.393679   23.166956 H          1 MOL1         0.3773
@<TRIPOS>BOND
    1     1     2    1
    2     1     3    1
    3     1     4    1
    4     4     5    1
    5     4     6    1
    6     4     7    1
    7     7     8    1
    8     1     9    1
    9     7     9    1
   10     9    10    1
   11     9    11    1
   12     7    12    1
   13    12    13    1
@<TRIPOS>SUBSTRUCTURE
       1 MOL1            1 RESIDUE      1      MOL     
@<SCITEGIC>MOL_PROPERTY
VConf Rank
SciTegic.value.IntegerValue
435

@<SCITEGIC>MOL_PROPERTY
Conf_Id
SciTegic.value.IntegerValue
44

@<SCITEGIC>MOL_PROPERTY
Delta U+W
SciTegic.value.DoubleValue
0.823

@<SCITEGIC>MOL_PROPERTY
U+W
SciTegic.value.DoubleValue
-2.308

@<SCITEGIC>MOL_PROPERTY
Grad RMS
SciTegic.value.DoubleValue
0.000000

@<SCITEGIC>MOL_PROPERTY
U
SciTegic.value.DoubleValue
0.039

@<SCITEGIC>MOL_PROPERTY
W
SciTegic.value.DoubleValue
-2.348

@<SCITEGIC>MOL_PROPERTY
W(PB)
SciTegic.value.DoubleValue
-3.918

@<SCITEGIC>MOL_PROPERTY
W(SA)
SciTegic.value.DoubleValue
1.571

@<SCITEGIC>MOL_PROPERTY
Valence
SciTegic.value.DoubleValue
7.320

@<SCITEGIC>MOL_PROPERTY
Coulomb
SciTegic.value.DoubleValue
-8.530

@<SCITEGIC>MOL_PROPERTY
VdW
SciTegic.value.DoubleValue
1.249

@<SCITEGIC>MOL_PROPERTY
VdW6
SciTegic.value.DoubleValue
-2.615

@<SCITEGIC>MOL_PROPERTY
VdW12
SciTegic.value.DoubleValue
3.864

@<SCITEGIC>MOL_PROPERTY
Bond
SciTegic.value.DoubleValue
0.056

@<SCITEGIC>MOL_PROPERTY
Angle
SciTegic.value.DoubleValue
0.694

@<SCITEGIC>MOL_PROPERTY
Pdih
SciTegic.value.DoubleValue
6.570

@<SCITEGIC>MOL_PROPERTY
Idih
SciTegic.value.DoubleValue
0.000

@<SCITEGIC>MOL_PROPERTY
Tether
SciTegic.value.DoubleValue
0.000

@<TRIPOS>MOLECULE
guest-s16_confgen4.mol2 : confsearch ligand conformer 436
          13          13           1
SMALL
USER_CHARGES
 
@<TRIPOS>ATOM
       1    C1      19.248882   20.244451   22.598590 C.3        1 MOL1        -0.1693
       2    H1      19.598294   20.556252   23.591705 H          1 MOL1         0.0829
       3    H2      18.678638   21.068310   22.153152 H          1 MOL1         0.0829
       4    C2      18.568443   18.836423   22.556544 C.3        1 MOL1        -0.1768
       5    H3      18.012812   18.540780   23.453109 H          1 MOL1         0.0829
       6    H4      17.939474   18.655823   21.675995 H          1 MOL1         0.0829
       7    C3      20.017374   18.274161   22.441185 C.3        1 MOL1         0.1211
       8    H5      20.529861   18.169180   23.407310 H          1 MOL1         0.0786
       9    C4      20.347647   19.599638   21.690703 C.3        1 MOL1        -0.1768
      10    H6      21.366108   19.981633   21.821042 H          1 MOL1         0.0829
      11    H7      20.108771   19.588853   20.619901 H          1 MOL1         0.0829
      12    O1      20.148207   17.099115   21.675224 O.3        1 MOL1        -0.5515
      13    H8      21.108216   16.943286   21.543683 H          1 MOL1         0.3773
@<TRIPOS>BOND
    1     1     2    1
    2     1     3    1
    3     1     4    1
    4     4     5    1
    5     4     6    1
    6     4     7    1
    7     7     8    1
    8     1     9    1
    9     7     9    1
   10     9    10    1
   11     9    11    1
   12     7    12    1
   13    12    13    1
@<TRIPOS>SUBSTRUCTURE
       1 MOL1            1 RESIDUE      1      MOL     
@<SCITEGIC>MOL_PROPERTY
VConf Rank
SciTegic.value.IntegerValue
436

@<SCITEGIC>MOL_PROPERTY
Conf_Id
SciTegic.value.IntegerValue
22

@<SCITEGIC>MOL_PROPERTY
Delta U+W
SciTegic.value.DoubleValue
0.000

@<SCITEGIC>MOL_PROPERTY
U+W
SciTegic.value.DoubleValue
-3.131

@<SCITEGIC>MOL_PROPERTY
Grad RMS
SciTegic.value.DoubleValue
0.000000

@<SCITEGIC>MOL_PROPERTY
U
SciTegic.value.DoubleValue
-0.154

@<SCITEGIC>MOL_PROPERTY
W
SciTegic.value.DoubleValue
-2.978

@<SCITEGIC>MOL_PROPERTY
W(PB)
SciTegic.value.DoubleValue
-4.579

@<SCITEGIC>MOL_PROPERTY
W(SA)
SciTegic.value.DoubleValue
1.601

@<SCITEGIC>MOL_PROPERTY
Valence
SciTegic.value.DoubleValue
6.333

@<SCITEGIC>MOL_PROPERTY
Coulomb
SciTegic.value.DoubleValue
-7.439

@<SCITEGIC>MOL_PROPERTY
VdW
SciTegic.value.DoubleValue
0.952

@<SCITEGIC>MOL_PROPERTY
VdW6
SciTegic.value.DoubleValue
-2.120

@<SCITEGIC>MOL_PROPERTY
VdW12
SciTegic.value.DoubleValue
3.072

@<SCITEGIC>MOL_PROPERTY
Bond
SciTegic.value.DoubleValue
0.065

@<SCITEGIC>MOL_PROPERTY
Angle
SciTegic.value.DoubleValue
0.931

@<SCITEGIC>MOL_PROPERTY
Pdih
SciTegic.value.DoubleValue
5.338

@<SCITEGIC>MOL_PROPERTY
Idih
SciTegic.value.DoubleValue
0.000

@<SCITEGIC>MOL_PROPERTY
Tether
SciTegic.value.DoubleValue
0.000

@<TRIPOS>MOLECULE
guest-s16_confgen4.mol2 : confsearch ligand conformer 437
          13          13           1
SMALL
USER_CHARGES
 
@<TRIPOS>ATOM
       1    C1      18.943846   18.867620   23.371964 C.3        1 MOL1        -0.1693
       2    H1      19.378597   18.184193   24.113249 H          1 MOL1         0.0829
       3    H2      18.010603   19.276476   23.777220 H          1 MOL1         0.0829
       4    C2      18.868847   18.294755   21.918165 C.3        1 MOL1        -0.1768
       5    H3      18.161081   18.811597   21.258063 H          1 MOL1         0.0829
       6    H4      18.706124   17.214718   21.833234 H          1 MOL1         0.0829
       7    C3      20.346387   18.772358   21.784125 C.3        1 MOL1         0.1211
       8    H5      21.082027   18.066567   22.193704 H          1 MOL1         0.0786
       9    C4      19.947078   19.908230   22.773665 C.3        1 MOL1        -0.1768
      10    H6      19.477865   20.779451   22.299958 H          1 MOL1         0.0829
      11    H7      20.740213   20.256287   23.444302 H          1 MOL1         0.0829
      12    O1      20.726934   19.200920   20.497242 O.3        1 MOL1        -0.5515
      13    H8      20.792497   18.401208   19.932117 H          1 MOL1         0.3773
@<TRIPOS>BOND
    1     1     2    1
    2     1     3    1
    3     1     4    1
    4     4     5    1
    5     4     6    1
    6     4     7    1
    7     7     8    1
    8     1     9    1
    9     7     9    1
   10     9    10    1
   11     9    11    1
   12     7    12    1
   13    12    13    1
@<TRIPOS>SUBSTRUCTURE
       1 MOL1            1 RESIDUE      1      MOL     
@<SCITEGIC>MOL_PROPERTY
VConf Rank
SciTegic.value.IntegerValue
437

@<SCITEGIC>MOL_PROPERTY
Conf_Id
SciTegic.value.IntegerValue
19

@<SCITEGIC>MOL_PROPERTY
Delta U+W
SciTegic.value.DoubleValue
-0.011

@<SCITEGIC>MOL_PROPERTY
U+W
SciTegic.value.DoubleValue
-3.142

@<SCITEGIC>MOL_PROPERTY
Grad RMS
SciTegic.value.DoubleValue
0.000000

@<SCITEGIC>MOL_PROPERTY
U
SciTegic.value.DoubleValue
-0.154

@<SCITEGIC>MOL_PROPERTY
W
SciTegic.value.DoubleValue
-2.989

@<SCITEGIC>MOL_PROPERTY
W(PB)
SciTegic.value.DoubleValue
-4.588

@<SCITEGIC>MOL_PROPERTY
W(SA)
SciTegic.value.DoubleValue
1.599

@<SCITEGIC>MOL_PROPERTY
Valence
SciTegic.value.DoubleValue
6.334

@<SCITEGIC>MOL_PROPERTY
Coulomb
SciTegic.value.DoubleValue
-7.439

@<SCITEGIC>MOL_PROPERTY
VdW
SciTegic.value.DoubleValue
0.951

@<SCITEGIC>MOL_PROPERTY
VdW6
SciTegic.value.DoubleValue
-2.120

@<SCITEGIC>MOL_PROPERTY
VdW12
SciTegic.value.DoubleValue
3.072

@<SCITEGIC>MOL_PROPERTY
Bond
SciTegic.value.DoubleValue
0.065

@<SCITEGIC>MOL_PROPERTY
Angle
SciTegic.value.DoubleValue
0.930

@<SCITEGIC>MOL_PROPERTY
Pdih
SciTegic.value.DoubleValue
5.339

@<SCITEGIC>MOL_PROPERTY
Idih
SciTegic.value.DoubleValue
0.000

@<SCITEGIC>MOL_PROPERTY
Tether
SciTegic.value.DoubleValue
0.000

@<TRIPOS>MOLECULE
guest-s16_confgen4.mol2 : confsearch ligand conformer 438
          13          13           1
SMALL
USER_CHARGES
 
@<TRIPOS>ATOM
       1    C1      20.479367   18.679632   21.467747 C.3        1 MOL1        -0.1693
       2    H1      21.498892   18.296216   21.343091 H          1 MOL1         0.0829
       3    H2      19.984898   18.687366   20.487621 H          1 MOL1         0.0829
       4    C2      20.338920   20.011919   22.276609 C.3        1 MOL1        -0.1768
       5    H3      21.098528   20.153994   23.054797 H          1 MOL1         0.0829
       6    H4      20.269296   20.930168   21.683007 H          1 MOL1         0.0829
       7    C3      18.985229   19.439577   22.801371 C.3        1 MOL1         0.1211
       8    H5      18.749091   19.704121   23.840153 H          1 MOL1         0.0786
       9    C4      19.636199   18.033100   22.616557 C.3        1 MOL1        -0.1768
      10    H6      18.958040   17.225774   22.318768 H          1 MOL1         0.0829
      11    H7      20.225920   17.694870   23.477256 H          1 MOL1         0.0829
      12    O1      17.869795   19.695146   21.971531 O.3        1 MOL1        -0.5515
      13    H8      17.127510   19.147814   22.305592 H          1 MOL1         0.3773
@<TRIPOS>BOND
    1     1     2    1
    2     1     3    1
    3     1     4    1
    4     4     5    1
    5     4     6    1
    6     4     7    1
    7     7     8    1
    8     1     9    1
    9     7     9    1
   10     9    10    1
   11     9    11    1
   12     7    12    1
   13    12    13    1
@<TRIPOS>SUBSTRUCTURE
       1 MOL1            1 RESIDUE      1      MOL     
@<SCITEGIC>MOL_PROPERTY
VConf Rank
SciTegic.value.IntegerValue
438

@<SCITEGIC>MOL_PROPERTY
Conf_Id
SciTegic.value.IntegerValue
20

@<SCITEGIC>MOL_PROPERTY
Delta U+W
SciTegic.value.DoubleValue
1.030

@<SCITEGIC>MOL_PROPERTY
U+W
SciTegic.value.DoubleValue
-2.101

@<SCITEGIC>MOL_PROPERTY
Grad RMS
SciTegic.value.DoubleValue
0.000000

@<SCITEGIC>MOL_PROPERTY
U
SciTegic.value.DoubleValue
0.841

@<SCITEGIC>MOL_PROPERTY
W
SciTegic.value.DoubleValue
-2.942

@<SCITEGIC>MOL_PROPERTY
W(PB)
SciTegic.value.DoubleValue
-4.530

@<SCITEGIC>MOL_PROPERTY
W(SA)
SciTegic.value.DoubleValue
1.587

@<SCITEGIC>MOL_PROPERTY
Valence
SciTegic.value.DoubleValue
6.736

@<SCITEGIC>MOL_PROPERTY
Coulomb
SciTegic.value.DoubleValue
-7.246

@<SCITEGIC>MOL_PROPERTY
VdW
SciTegic.value.DoubleValue
1.352

@<SCITEGIC>MOL_PROPERTY
VdW6
SciTegic.value.DoubleValue
-2.500

@<SCITEGIC>MOL_PROPERTY
VdW12
SciTegic.value.DoubleValue
3.851

@<SCITEGIC>MOL_PROPERTY
Bond
SciTegic.value.DoubleValue
0.063

@<SCITEGIC>MOL_PROPERTY
Angle
SciTegic.value.DoubleValue
0.687

@<SCITEGIC>MOL_PROPERTY
Pdih
SciTegic.value.DoubleValue
5.986

@<SCITEGIC>MOL_PROPERTY
Idih
SciTegic.value.DoubleValue
0.000

@<SCITEGIC>MOL_PROPERTY
Tether
SciTegic.value.DoubleValue
0.000

@<TRIPOS>MOLECULE
guest-s16_confgen4.mol2 : confsearch ligand conformer 439
          13          13           1
SMALL
USER_CHARGES
 
@<TRIPOS>ATOM
       1    C1      20.884581   19.051807   22.794032 C.3        1 MOL1        -0.1693
       2    H1      21.153262   18.285840   23.533473 H          1 MOL1         0.0829
       3    H2      21.708488   19.771680   22.720683 H          1 MOL1         0.0829
       4    C2      19.454394   19.660093   22.972669 C.3        1 MOL1        -0.1768
       5    H3      19.086221   19.732166   24.002011 H          1 MOL1         0.0829
       6    H4      19.303022   20.626560   22.476264 H          1 MOL1         0.0829
       7    C3      18.960909   18.423481   22.162472 C.3        1 MOL1         0.1211
       8    H5      18.822299   17.519943   22.771652 H          1 MOL1         0.0786
       9    C4      20.339896   18.490383   21.439233 C.3        1 MOL1        -0.1768
      10    H6      20.386446   19.195405   20.600088 H          1 MOL1         0.0829
      11    H7      20.753755   17.529424   21.114318 H          1 MOL1         0.0829
      12    O1      17.837570   18.646346   21.343780 O.3        1 MOL1        -0.5515
      13    H8      18.017759   19.459711   20.827361 H          1 MOL1         0.3773
@<TRIPOS>BOND
    1     1     2    1
    2     1     3    1
    3     1     4    1
    4     4     5    1
    5     4     6    1
    6     4     7    1
    7     7     8    1
    8     1     9    1
    9     7     9    1
   10     9    10    1
   11     9    11    1
   12     7    12    1
   13    12    13    1
@<TRIPOS>SUBSTRUCTURE
       1 MOL1            1 RESIDUE      1      MOL     
@<SCITEGIC>MOL_PROPERTY
VConf Rank
SciTegic.value.IntegerValue
439

@<SCITEGIC>MOL_PROPERTY
Conf_Id
SciTegic.value.IntegerValue
24

@<SCITEGIC>MOL_PROPERTY
Delta U+W
SciTegic.value.DoubleValue
0.356

@<SCITEGIC>MOL_PROPERTY
U+W
SciTegic.value.DoubleValue
-2.775

@<SCITEGIC>MOL_PROPERTY
Grad RMS
SciTegic.value.DoubleValue
0.000000

@<SCITEGIC>MOL_PROPERTY
U
SciTegic.value.DoubleValue
-0.184

@<SCITEGIC>MOL_PROPERTY
W
SciTegic.value.DoubleValue
-2.591

@<SCITEGIC>MOL_PROPERTY
W(PB)
SciTegic.value.DoubleValue
-4.184

@<SCITEGIC>MOL_PROPERTY
W(SA)
SciTegic.value.DoubleValue
1.593

@<SCITEGIC>MOL_PROPERTY
Valence
SciTegic.value.DoubleValue
6.840

@<SCITEGIC>MOL_PROPERTY
Coulomb
SciTegic.value.DoubleValue
-7.916

@<SCITEGIC>MOL_PROPERTY
VdW
SciTegic.value.DoubleValue
0.893

@<SCITEGIC>MOL_PROPERTY
VdW6
SciTegic.value.DoubleValue
-2.167

@<SCITEGIC>MOL_PROPERTY
VdW12
SciTegic.value.DoubleValue
3.060

@<SCITEGIC>MOL_PROPERTY
Bond
SciTegic.value.DoubleValue
0.059

@<SCITEGIC>MOL_PROPERTY
Angle
SciTegic.value.DoubleValue
0.918

@<SCITEGIC>MOL_PROPERTY
Pdih
SciTegic.value.DoubleValue
5.862

@<SCITEGIC>MOL_PROPERTY
Idih
SciTegic.value.DoubleValue
0.000

@<SCITEGIC>MOL_PROPERTY
Tether
SciTegic.value.DoubleValue
0.000

@<TRIPOS>MOLECULE
guest-s16_confgen4.mol2 : confsearch ligand conformer 440
          13          13           1
SMALL
USER_CHARGES
 
@<TRIPOS>ATOM
       1    C1      20.635449   18.388250   22.011565 C.3        1 MOL1        -0.1693
       2    H1      21.422062   18.153856   21.284466 H          1 MOL1         0.0829
       3    H2      20.838905   17.830060   22.934238 H          1 MOL1         0.0829
       4    C2      19.164628   18.279755   21.487111 C.3        1 MOL1        -0.1768
       5    H3      19.046565   18.501144   20.419374 H          1 MOL1         0.0829
       6    H4      18.640501   17.343278   21.708495 H          1 MOL1         0.0829
       7    C3      18.838368   19.482125   22.426181 C.3        1 MOL1         0.1211
       8    H5      18.096512   20.187570   22.030599 H          1 MOL1         0.0786
       9    C4      20.324403   19.908541   22.216748 C.3        1 MOL1        -0.1768
      10    H6      20.490701   20.529284   21.327907 H          1 MOL1         0.0829
      11    H7      20.809764   20.389784   23.073216 H          1 MOL1         0.0829
      12    O1      18.506344   19.125240   23.750613 O.3        1 MOL1        -0.5515
      13    H8      19.197655   18.499084   24.049496 H          1 MOL1         0.3773
@<TRIPOS>BOND
    1     1     2    1
    2     1     3    1
    3     1     4    1
    4     4     5    1
    5     4     6    1
    6     4     7    1
    7     7     8    1
    8     1     9    1
    9     7     9    1
   10     9    10    1
   11     9    11    1
   12     7    12    1
   13    12    13    1
@<TRIPOS>SUBSTRUCTURE
       1 MOL1            1 RESIDUE      1      MOL     
@<SCITEGIC>MOL_PROPERTY
VConf Rank
SciTegic.value.IntegerValue
440

@<SCITEGIC>MOL_PROPERTY
Conf_Id
SciTegic.value.IntegerValue
44

@<SCITEGIC>MOL_PROPERTY
Delta U+W
SciTegic.value.DoubleValue
0.823

@<SCITEGIC>MOL_PROPERTY
U+W
SciTegic.value.DoubleValue
-2.308

@<SCITEGIC>MOL_PROPERTY
Grad RMS
SciTegic.value.DoubleValue
0.000000

@<SCITEGIC>MOL_PROPERTY
U
SciTegic.value.DoubleValue
0.039

@<SCITEGIC>MOL_PROPERTY
W
SciTegic.value.DoubleValue
-2.348

@<SCITEGIC>MOL_PROPERTY
W(PB)
SciTegic.value.DoubleValue
-3.918

@<SCITEGIC>MOL_PROPERTY
W(SA)
SciTegic.value.DoubleValue
1.571

@<SCITEGIC>MOL_PROPERTY
Valence
SciTegic.value.DoubleValue
7.320

@<SCITEGIC>MOL_PROPERTY
Coulomb
SciTegic.value.DoubleValue
-8.530

@<SCITEGIC>MOL_PROPERTY
VdW
SciTegic.value.DoubleValue
1.249

@<SCITEGIC>MOL_PROPERTY
VdW6
SciTegic.value.DoubleValue
-2.615

@<SCITEGIC>MOL_PROPERTY
VdW12
SciTegic.value.DoubleValue
3.864

@<SCITEGIC>MOL_PROPERTY
Bond
SciTegic.value.DoubleValue
0.056

@<SCITEGIC>MOL_PROPERTY
Angle
SciTegic.value.DoubleValue
0.694

@<SCITEGIC>MOL_PROPERTY
Pdih
SciTegic.value.DoubleValue
6.570

@<SCITEGIC>MOL_PROPERTY
Idih
SciTegic.value.DoubleValue
0.000

@<SCITEGIC>MOL_PROPERTY
Tether
SciTegic.value.DoubleValue
0.000

@<TRIPOS>MOLECULE
guest-s16_confgen4.mol2 : confsearch ligand conformer 441
          13          13           1
SMALL
USER_CHARGES
 
@<TRIPOS>ATOM
       1    C1      20.284055   17.910406   22.527854 C.3        1 MOL1        -0.1693
       2    H1      21.313065   18.050066   22.884533 H          1 MOL1         0.0829
       3    H2      20.045246   16.840613   22.557017 H          1 MOL1         0.0829
       4    C2      19.947729   18.653218   21.192780 C.3        1 MOL1        -0.1768
       5    H3      20.769517   18.755036   20.475662 H          1 MOL1         0.0829
       6    H4      19.064020   18.273281   20.665246 H          1 MOL1         0.0829
       7    C3      19.677024   19.895526   22.094021 C.3        1 MOL1         0.1211
       8    H5      20.583763   20.456628   22.358691 H          1 MOL1         0.0786
       9    C4      19.230604   18.867506   23.177107 C.3        1 MOL1        -0.1768
      10    H6      19.418275   19.156931   24.216908 H          1 MOL1         0.0829
      11    H7      18.189807   18.532477   23.086051 H          1 MOL1         0.0829
      12    O1      18.667402   20.764114   21.634930 O.3        1 MOL1        -0.5515
      13    H8      18.482219   21.402105   22.357342 H          1 MOL1         0.3773
@<TRIPOS>BOND
    1     1     2    1
    2     1     3    1
    3     1     4    1
    4     4     5    1
    5     4     6    1
    6     4     7    1
    7     7     8    1
    8     1     9    1
    9     7     9    1
   10     9    10    1
   11     9    11    1
   12     7    12    1
   13    12    13    1
@<TRIPOS>SUBSTRUCTURE
       1 MOL1            1 RESIDUE      1      MOL     
@<SCITEGIC>MOL_PROPERTY
VConf Rank
SciTegic.value.IntegerValue
441

@<SCITEGIC>MOL_PROPERTY
Conf_Id
SciTegic.value.IntegerValue
22

@<SCITEGIC>MOL_PROPERTY
Delta U+W
SciTegic.value.DoubleValue
0.000

@<SCITEGIC>MOL_PROPERTY
U+W
SciTegic.value.DoubleValue
-3.131

@<SCITEGIC>MOL_PROPERTY
Grad RMS
SciTegic.value.DoubleValue
0.000000

@<SCITEGIC>MOL_PROPERTY
U
SciTegic.value.DoubleValue
-0.154

@<SCITEGIC>MOL_PROPERTY
W
SciTegic.value.DoubleValue
-2.978

@<SCITEGIC>MOL_PROPERTY
W(PB)
SciTegic.value.DoubleValue
-4.579

@<SCITEGIC>MOL_PROPERTY
W(SA)
SciTegic.value.DoubleValue
1.601

@<SCITEGIC>MOL_PROPERTY
Valence
SciTegic.value.DoubleValue
6.333

@<SCITEGIC>MOL_PROPERTY
Coulomb
SciTegic.value.DoubleValue
-7.439

@<SCITEGIC>MOL_PROPERTY
VdW
SciTegic.value.DoubleValue
0.952

@<SCITEGIC>MOL_PROPERTY
VdW6
SciTegic.value.DoubleValue
-2.120

@<SCITEGIC>MOL_PROPERTY
VdW12
SciTegic.value.DoubleValue
3.072

@<SCITEGIC>MOL_PROPERTY
Bond
SciTegic.value.DoubleValue
0.065

@<SCITEGIC>MOL_PROPERTY
Angle
SciTegic.value.DoubleValue
0.931

@<SCITEGIC>MOL_PROPERTY
Pdih
SciTegic.value.DoubleValue
5.338

@<SCITEGIC>MOL_PROPERTY
Idih
SciTegic.value.DoubleValue
0.000

@<SCITEGIC>MOL_PROPERTY
Tether
SciTegic.value.DoubleValue
0.000

@<TRIPOS>MOLECULE
guest-s16_confgen4.mol2 : confsearch ligand conformer 442
          13          13           1
SMALL
USER_CHARGES
 
@<TRIPOS>ATOM
       1    C1      20.724593   18.282185   21.888556 C.3        1 MOL1        -0.1693
       2    H1      21.203680   18.699225   20.992934 H          1 MOL1         0.0829
       3    H2      21.285365   17.394566   22.204792 H          1 MOL1         0.0829
       4    C2      19.173024   18.112862   21.782286 C.3        1 MOL1        -0.1768
       5    H3      18.737438   17.415737   22.508975 H          1 MOL1         0.0829
       6    H4      18.780840   17.875754   20.787226 H          1 MOL1         0.0829
       7    C3      19.102846   19.612459   22.201187 C.3        1 MOL1         0.1211
       8    H5      19.241964   20.315104   21.368122 H          1 MOL1         0.0786
       9    C4      20.405926   19.328108   23.007394 C.3        1 MOL1        -0.1768
      10    H6      20.239599   18.899567   24.003523 H          1 MOL1         0.0829
      11    H7      21.103342   20.168064   23.097096 H          1 MOL1         0.0829
      12    O1      17.981615   19.970182   22.975412 O.3        1 MOL1        -0.5515
      13    H8      17.201867   19.960568   22.379506 H          1 MOL1         0.3773
@<TRIPOS>BOND
    1     1     2    1
    2     1     3    1
    3     1     4    1
    4     4     5    1
    5     4     6    1
    6     4     7    1
    7     7     8    1
    8     1     9    1
    9     7     9    1
   10     9    10    1
   11     9    11    1
   12     7    12    1
   13    12    13    1
@<TRIPOS>SUBSTRUCTURE
       1 MOL1            1 RESIDUE      1      MOL     
@<SCITEGIC>MOL_PROPERTY
VConf Rank
SciTegic.value.IntegerValue
442

@<SCITEGIC>MOL_PROPERTY
Conf_Id
SciTegic.value.IntegerValue
19

@<SCITEGIC>MOL_PROPERTY
Delta U+W
SciTegic.value.DoubleValue
-0.011

@<SCITEGIC>MOL_PROPERTY
U+W
SciTegic.value.DoubleValue
-3.142

@<SCITEGIC>MOL_PROPERTY
Grad RMS
SciTegic.value.DoubleValue
0.000000

@<SCITEGIC>MOL_PROPERTY
U
SciTegic.value.DoubleValue
-0.154

@<SCITEGIC>MOL_PROPERTY
W
SciTegic.value.DoubleValue
-2.989

@<SCITEGIC>MOL_PROPERTY
W(PB)
SciTegic.value.DoubleValue
-4.588

@<SCITEGIC>MOL_PROPERTY
W(SA)
SciTegic.value.DoubleValue
1.599

@<SCITEGIC>MOL_PROPERTY
Valence
SciTegic.value.DoubleValue
6.334

@<SCITEGIC>MOL_PROPERTY
Coulomb
SciTegic.value.DoubleValue
-7.439

@<SCITEGIC>MOL_PROPERTY
VdW
SciTegic.value.DoubleValue
0.951

@<SCITEGIC>MOL_PROPERTY
VdW6
SciTegic.value.DoubleValue
-2.120

@<SCITEGIC>MOL_PROPERTY
VdW12
SciTegic.value.DoubleValue
3.072

@<SCITEGIC>MOL_PROPERTY
Bond
SciTegic.value.DoubleValue
0.065

@<SCITEGIC>MOL_PROPERTY
Angle
SciTegic.value.DoubleValue
0.930

@<SCITEGIC>MOL_PROPERTY
Pdih
SciTegic.value.DoubleValue
5.339

@<SCITEGIC>MOL_PROPERTY
Idih
SciTegic.value.DoubleValue
0.000

@<SCITEGIC>MOL_PROPERTY
Tether
SciTegic.value.DoubleValue
0.000

@<TRIPOS>MOLECULE
guest-s16_confgen4.mol2 : confsearch ligand conformer 443
          13          13           1
SMALL
USER_CHARGES
 
@<TRIPOS>ATOM
       1    C1      20.832262   19.205783   22.045993 C.3        1 MOL1        -0.1693
       2    H1      21.774665   19.627123   22.415215 H          1 MOL1         0.0829
       3    H2      21.035611   18.645075   21.124330 H          1 MOL1         0.0829
       4    C2      19.625492   20.197486   21.950064 C.3        1 MOL1        -0.1768
       5    H3      19.634912   20.999324   22.698217 H          1 MOL1         0.0829
       6    H4      19.443450   20.639931   20.964419 H          1 MOL1         0.0829
       7    C3      18.720234   18.983071   22.325742 C.3        1 MOL1         0.1211
       8    H5      17.859621   19.233218   22.959448 H          1 MOL1         0.0786
       9    C4      19.963120   18.437596   23.096318 C.3        1 MOL1        -0.1768
      10    H6      20.078688   17.348199   23.110833 H          1 MOL1         0.0829
      11    H7      20.054946   18.812740   24.122870 H          1 MOL1         0.0829
      12    O1      18.301608   18.192271   21.231424 O.3        1 MOL1        -0.5515
      13    H8      17.897079   17.377881   21.599227 H          1 MOL1         0.3773
@<TRIPOS>BOND
    1     1     2    1
    2     1     3    1
    3     1     4    1
    4     4     5    1
    5     4     6    1
    6     4     7    1
    7     7     8    1
    8     1     9    1
    9     7     9    1
   10     9    10    1
   11     9    11    1
   12     7    12    1
   13    12    13    1
@<TRIPOS>SUBSTRUCTURE
       1 MOL1            1 RESIDUE      1      MOL     
@<SCITEGIC>MOL_PROPERTY
VConf Rank
SciTegic.value.IntegerValue
443

@<SCITEGIC>MOL_PROPERTY
Conf_Id
SciTegic.value.IntegerValue
20

@<SCITEGIC>MOL_PROPERTY
Delta U+W
SciTegic.value.DoubleValue
1.030

@<SCITEGIC>MOL_PROPERTY
U+W
SciTegic.value.DoubleValue
-2.101

@<SCITEGIC>MOL_PROPERTY
Grad RMS
SciTegic.value.DoubleValue
0.000000

@<SCITEGIC>MOL_PROPERTY
U
SciTegic.value.DoubleValue
0.841

@<SCITEGIC>MOL_PROPERTY
W
SciTegic.value.DoubleValue
-2.942

@<SCITEGIC>MOL_PROPERTY
W(PB)
SciTegic.value.DoubleValue
-4.530

@<SCITEGIC>MOL_PROPERTY
W(SA)
SciTegic.value.DoubleValue
1.587

@<SCITEGIC>MOL_PROPERTY
Valence
SciTegic.value.DoubleValue
6.736

@<SCITEGIC>MOL_PROPERTY
Coulomb
SciTegic.value.DoubleValue
-7.246

@<SCITEGIC>MOL_PROPERTY
VdW
SciTegic.value.DoubleValue
1.352

@<SCITEGIC>MOL_PROPERTY
VdW6
SciTegic.value.DoubleValue
-2.500

@<SCITEGIC>MOL_PROPERTY
VdW12
SciTegic.value.DoubleValue
3.851

@<SCITEGIC>MOL_PROPERTY
Bond
SciTegic.value.DoubleValue
0.063

@<SCITEGIC>MOL_PROPERTY
Angle
SciTegic.value.DoubleValue
0.687

@<SCITEGIC>MOL_PROPERTY
Pdih
SciTegic.value.DoubleValue
5.986

@<SCITEGIC>MOL_PROPERTY
Idih
SciTegic.value.DoubleValue
0.000

@<SCITEGIC>MOL_PROPERTY
Tether
SciTegic.value.DoubleValue
0.000

@<TRIPOS>MOLECULE
guest-s16_confgen4.mol2 : confsearch ligand conformer 444
          13          13           1
SMALL
USER_CHARGES
 
@<TRIPOS>ATOM
       1    C1      20.960735   18.694093   22.531540 C.3        1 MOL1        -0.1693
       2    H1      21.725452   19.448991   22.305691 H          1 MOL1         0.0829
       3    H2      21.446958   17.835772   23.010385 H          1 MOL1         0.0829
       4    C2      19.997111   18.363782   21.344240 C.3        1 MOL1        -0.1768
       5    H3      20.429555   18.429293   20.339754 H          1 MOL1         0.0829
       6    H4      19.467062   17.407893   21.437568 H          1 MOL1         0.0829
       7    C3      19.188008   19.609831   21.815273 C.3        1 MOL1         0.1211
       8    H5      19.580138   20.563305   21.436043 H          1 MOL1         0.0786
       9    C4      19.685349   19.249041   23.247627 C.3        1 MOL1        -0.1768
      10    H6      19.085618   18.491017   23.766385 H          1 MOL1         0.0829
      11    H7      19.842457   20.096369   23.924120 H          1 MOL1         0.0829
      12    O1      17.795574   19.534716   21.622138 O.3        1 MOL1        -0.5515
      13    H8      17.504584   18.668734   21.977269 H          1 MOL1         0.3773
@<TRIPOS>BOND
    1     1     2    1
    2     1     3    1
    3     1     4    1
    4     4     5    1
    5     4     6    1
    6     4     7    1
    7     7     8    1
    8     1     9    1
    9     7     9    1
   10     9    10    1
   11     9    11    1
   12     7    12    1
   13    12    13    1
@<TRIPOS>SUBSTRUCTURE
       1 MOL1            1 RESIDUE      1      MOL     
@<SCITEGIC>MOL_PROPERTY
VConf Rank
SciTegic.value.IntegerValue
444

@<SCITEGIC>MOL_PROPERTY
Conf_Id
SciTegic.value.IntegerValue
24

@<SCITEGIC>MOL_PROPERTY
Delta U+W
SciTegic.value.DoubleValue
0.356

@<SCITEGIC>MOL_PROPERTY
U+W
SciTegic.value.DoubleValue
-2.775

@<SCITEGIC>MOL_PROPERTY
Grad RMS
SciTegic.value.DoubleValue
0.000000

@<SCITEGIC>MOL_PROPERTY
U
SciTegic.value.DoubleValue
-0.184

@<SCITEGIC>MOL_PROPERTY
W
SciTegic.value.DoubleValue
-2.591

@<SCITEGIC>MOL_PROPERTY
W(PB)
SciTegic.value.DoubleValue
-4.184

@<SCITEGIC>MOL_PROPERTY
W(SA)
SciTegic.value.DoubleValue
1.593

@<SCITEGIC>MOL_PROPERTY
Valence
SciTegic.value.DoubleValue
6.840

@<SCITEGIC>MOL_PROPERTY
Coulomb
SciTegic.value.DoubleValue
-7.916

@<SCITEGIC>MOL_PROPERTY
VdW
SciTegic.value.DoubleValue
0.893

@<SCITEGIC>MOL_PROPERTY
VdW6
SciTegic.value.DoubleValue
-2.167

@<SCITEGIC>MOL_PROPERTY
VdW12
SciTegic.value.DoubleValue
3.060

@<SCITEGIC>MOL_PROPERTY
Bond
SciTegic.value.DoubleValue
0.059

@<SCITEGIC>MOL_PROPERTY
Angle
SciTegic.value.DoubleValue
0.918

@<SCITEGIC>MOL_PROPERTY
Pdih
SciTegic.value.DoubleValue
5.862

@<SCITEGIC>MOL_PROPERTY
Idih
SciTegic.value.DoubleValue
0.000

@<SCITEGIC>MOL_PROPERTY
Tether
SciTegic.value.DoubleValue
0.000

@<TRIPOS>MOLECULE
guest-s16_confgen4.mol2 : confsearch ligand conformer 445
          13          13           1
SMALL
USER_CHARGES
 
@<TRIPOS>ATOM
       1    C1      19.088192   19.915233   22.121769 C.3        1 MOL1        -0.1693
       2    H1      18.165674   20.370493   21.742200 H          1 MOL1         0.0829
       3    H2      19.674447   20.691722   22.629376 H          1 MOL1         0.0829
       4    C2      19.893050   19.045579   21.099006 C.3        1 MOL1        -0.1768
       5    H3      19.274986   18.548729   20.341278 H          1 MOL1         0.0829
       6    H4      20.729308   19.542735   20.594805 H          1 MOL1         0.0829
       7    C3      20.270072   18.135897   22.309099 C.3        1 MOL1         0.1211
       8    H5      20.337089   17.065250   22.077340 H          1 MOL1         0.0786
       9    C4      18.912809   18.587452   22.931938 C.3        1 MOL1        -0.1768
      10    H6      18.054404   17.978277   22.623619 H          1 MOL1         0.0829
      11    H7      18.895848   18.685848   24.023148 H          1 MOL1         0.0829
      12    O1      21.415108   18.547202   23.024255 O.3        1 MOL1        -0.5515
      13    H8      21.300869   19.503553   23.202175 H          1 MOL1         0.3773
@<TRIPOS>BOND
    1     1     2    1
    2     1     3    1
    3     1     4    1
    4     4     5    1
    5     4     6    1
    6     4     7    1
    7     7     8    1
    8     1     9    1
    9     7     9    1
   10     9    10    1
   11     9    11    1
   12     7    12    1
   13    12    13    1
@<TRIPOS>SUBSTRUCTURE
       1 MOL1            1 RESIDUE      1      MOL     
@<SCITEGIC>MOL_PROPERTY
VConf Rank
SciTegic.value.IntegerValue
445

@<SCITEGIC>MOL_PROPERTY
Conf_Id
SciTegic.value.IntegerValue
44

@<SCITEGIC>MOL_PROPERTY
Delta U+W
SciTegic.value.DoubleValue
0.823

@<SCITEGIC>MOL_PROPERTY
U+W
SciTegic.value.DoubleValue
-2.308

@<SCITEGIC>MOL_PROPERTY
Grad RMS
SciTegic.value.DoubleValue
0.000000

@<SCITEGIC>MOL_PROPERTY
U
SciTegic.value.DoubleValue
0.039

@<SCITEGIC>MOL_PROPERTY
W
SciTegic.value.DoubleValue
-2.348

@<SCITEGIC>MOL_PROPERTY
W(PB)
SciTegic.value.DoubleValue
-3.918

@<SCITEGIC>MOL_PROPERTY
W(SA)
SciTegic.value.DoubleValue
1.571

@<SCITEGIC>MOL_PROPERTY
Valence
SciTegic.value.DoubleValue
7.320

@<SCITEGIC>MOL_PROPERTY
Coulomb
SciTegic.value.DoubleValue
-8.530

@<SCITEGIC>MOL_PROPERTY
VdW
SciTegic.value.DoubleValue
1.249

@<SCITEGIC>MOL_PROPERTY
VdW6
SciTegic.value.DoubleValue
-2.615

@<SCITEGIC>MOL_PROPERTY
VdW12
SciTegic.value.DoubleValue
3.864

@<SCITEGIC>MOL_PROPERTY
Bond
SciTegic.value.DoubleValue
0.056

@<SCITEGIC>MOL_PROPERTY
Angle
SciTegic.value.DoubleValue
0.694

@<SCITEGIC>MOL_PROPERTY
Pdih
SciTegic.value.DoubleValue
6.570

@<SCITEGIC>MOL_PROPERTY
Idih
SciTegic.value.DoubleValue
0.000

@<SCITEGIC>MOL_PROPERTY
Tether
SciTegic.value.DoubleValue
0.000

@<TRIPOS>MOLECULE
guest-s16_confgen4.mol2 : confsearch ligand conformer 446
          13          13           1
SMALL
USER_CHARGES
 
@<TRIPOS>ATOM
       1    C1      20.574966   20.000213   22.221233 C.3        1 MOL1        -0.1693
       2    H1      21.324110   19.869436   21.429232 H          1 MOL1         0.0829
       3    H2      20.776867   20.943697   22.742205 H          1 MOL1         0.0829
       4    C2      20.358421   18.745944   23.130752 C.3        1 MOL1        -0.1768
       5    H3      21.238012   18.116442   23.303981 H          1 MOL1         0.0829
       6    H4      19.878273   18.954495   24.094884 H          1 MOL1         0.0829
       7    C3      19.384231   18.257304   22.016736 C.3        1 MOL1         0.1211
       8    H5      19.886347   17.755238   21.178362 H          1 MOL1         0.0786
       9    C4      19.095740   19.768599   21.767831 C.3        1 MOL1        -0.1768
      10    H6      18.858911   20.046135   20.734846 H          1 MOL1         0.0829
      11    H7      18.339295   20.203799   22.432802 H          1 MOL1         0.0829
      12    O1      18.285119   17.500113   22.467470 O.3        1 MOL1        -0.5515
      13    H8      17.672436   17.396492   21.707809 H          1 MOL1         0.3773
@<TRIPOS>BOND
    1     1     2    1
    2     1     3    1
    3     1     4    1
    4     4     5    1
    5     4     6    1
    6     4     7    1
    7     7     8    1
    8     1     9    1
    9     7     9    1
   10     9    10    1
   11     9    11    1
   12     7    12    1
   13    12    13    1
@<TRIPOS>SUBSTRUCTURE
       1 MOL1            1 RESIDUE      1      MOL     
@<SCITEGIC>MOL_PROPERTY
VConf Rank
SciTegic.value.IntegerValue
446

@<SCITEGIC>MOL_PROPERTY
Conf_Id
SciTegic.value.IntegerValue
22

@<SCITEGIC>MOL_PROPERTY
Delta U+W
SciTegic.value.DoubleValue
0.000

@<SCITEGIC>MOL_PROPERTY
U+W
SciTegic.value.DoubleValue
-3.131

@<SCITEGIC>MOL_PROPERTY
Grad RMS
SciTegic.value.DoubleValue
0.000000

@<SCITEGIC>MOL_PROPERTY
U
SciTegic.value.DoubleValue
-0.154

@<SCITEGIC>MOL_PROPERTY
W
SciTegic.value.DoubleValue
-2.978

@<SCITEGIC>MOL_PROPERTY
W(PB)
SciTegic.value.DoubleValue
-4.579

@<SCITEGIC>MOL_PROPERTY
W(SA)
SciTegic.value.DoubleValue
1.601

@<SCITEGIC>MOL_PROPERTY
Valence
SciTegic.value.DoubleValue
6.333

@<SCITEGIC>MOL_PROPERTY
Coulomb
SciTegic.value.DoubleValue
-7.439

@<SCITEGIC>MOL_PROPERTY
VdW
SciTegic.value.DoubleValue
0.952

@<SCITEGIC>MOL_PROPERTY
VdW6
SciTegic.value.DoubleValue
-2.120

@<SCITEGIC>MOL_PROPERTY
VdW12
SciTegic.value.DoubleValue
3.072

@<SCITEGIC>MOL_PROPERTY
Bond
SciTegic.value.DoubleValue
0.065

@<SCITEGIC>MOL_PROPERTY
Angle
SciTegic.value.DoubleValue
0.931

@<SCITEGIC>MOL_PROPERTY
Pdih
SciTegic.value.DoubleValue
5.338

@<SCITEGIC>MOL_PROPERTY
Idih
SciTegic.value.DoubleValue
0.000

@<SCITEGIC>MOL_PROPERTY
Tether
SciTegic.value.DoubleValue
0.000

@<TRIPOS>MOLECULE
guest-s16_confgen4.mol2 : confsearch ligand conformer 447
          13          13           1
SMALL
USER_CHARGES
 
@<TRIPOS>ATOM
       1    C1      19.382564   18.900139   20.949877 C.3        1 MOL1        -0.1693
       2    H1      20.271045   19.086535   20.332265 H          1 MOL1         0.0829
       3    H2      18.513195   18.793971   20.290132 H          1 MOL1         0.0829
       4    C2      19.210930   19.875280   22.161063 C.3        1 MOL1        -0.1768
       5    H3      18.196013   19.916380   22.575849 H          1 MOL1         0.0829
       6    H4      19.572454   20.898534   22.011315 H          1 MOL1         0.0829
       7    C3      20.180104   18.915230   22.914853 C.3        1 MOL1         0.1211
       8    H5      21.242974   19.103754   22.710336 H          1 MOL1         0.0786
       9    C4      19.561499   17.787471   22.034892 C.3        1 MOL1        -0.1768
      10    H6      18.624631   17.369786   22.423995 H          1 MOL1         0.0829
      11    H7      20.234142   16.962701   21.775535 H          1 MOL1         0.0829
      12    O1      19.951162   18.792699   24.299455 O.3        1 MOL1        -0.5515
      13    H8      20.241387   19.631901   24.717442 H          1 MOL1         0.3773
@<TRIPOS>BOND
    1     1     2    1
    2     1     3    1
    3     1     4    1
    4     4     5    1
    5     4     6    1
    6     4     7    1
    7     7     8    1
    8     1     9    1
    9     7     9    1
   10     9    10    1
   11     9    11    1
   12     7    12    1
   13    12    13    1
@<TRIPOS>SUBSTRUCTURE
       1 MOL1            1 RESIDUE      1      MOL     
@<SCITEGIC>MOL_PROPERTY
VConf Rank
SciTegic.value.IntegerValue
447

@<SCITEGIC>MOL_PROPERTY
Conf_Id
SciTegic.value.IntegerValue
19

@<SCITEGIC>MOL_PROPERTY
Delta U+W
SciTegic.value.DoubleValue
-0.011

@<SCITEGIC>MOL_PROPERTY
U+W
SciTegic.value.DoubleValue
-3.142

@<SCITEGIC>MOL_PROPERTY
Grad RMS
SciTegic.value.DoubleValue
0.000000

@<SCITEGIC>MOL_PROPERTY
U
SciTegic.value.DoubleValue
-0.154

@<SCITEGIC>MOL_PROPERTY
W
SciTegic.value.DoubleValue
-2.989

@<SCITEGIC>MOL_PROPERTY
W(PB)
SciTegic.value.DoubleValue
-4.588

@<SCITEGIC>MOL_PROPERTY
W(SA)
SciTegic.value.DoubleValue
1.599

@<SCITEGIC>MOL_PROPERTY
Valence
SciTegic.value.DoubleValue
6.334

@<SCITEGIC>MOL_PROPERTY
Coulomb
SciTegic.value.DoubleValue
-7.439

@<SCITEGIC>MOL_PROPERTY
VdW
SciTegic.value.DoubleValue
0.951

@<SCITEGIC>MOL_PROPERTY
VdW6
SciTegic.value.DoubleValue
-2.120

@<SCITEGIC>MOL_PROPERTY
VdW12
SciTegic.value.DoubleValue
3.072

@<SCITEGIC>MOL_PROPERTY
Bond
SciTegic.value.DoubleValue
0.065

@<SCITEGIC>MOL_PROPERTY
Angle
SciTegic.value.DoubleValue
0.930

@<SCITEGIC>MOL_PROPERTY
Pdih
SciTegic.value.DoubleValue
5.339

@<SCITEGIC>MOL_PROPERTY
Idih
SciTegic.value.DoubleValue
0.000

@<SCITEGIC>MOL_PROPERTY
Tether
SciTegic.value.DoubleValue
0.000

@<TRIPOS>MOLECULE
guest-s16_confgen4.mol2 : confsearch ligand conformer 448
          13          13           1
SMALL
USER_CHARGES
 
@<TRIPOS>ATOM
       1    C1      20.191694   20.148109   22.194602 C.3        1 MOL1        -0.1693
       2    H1      21.117735   20.665946   21.918431 H          1 MOL1         0.0829
       3    H2      19.431477   20.898852   22.446914 H          1 MOL1         0.0829
       4    C2      20.334702   18.991967   23.239522 C.3        1 MOL1        -0.1768
       5    H3      21.293323   18.460564   23.201796 H          1 MOL1         0.0829
       6    H4      20.120949   19.255707   24.281225 H          1 MOL1         0.0829
       7    C3      19.178665   18.280802   22.469295 C.3        1 MOL1         0.1211
       8    H5      19.266178   17.187722   22.421036 H          1 MOL1         0.0786
       9    C4      19.704597   19.035238   21.208217 C.3        1 MOL1        -0.1768
      10    H6      18.945258   19.338518   20.478987 H          1 MOL1         0.0829
      11    H7      20.510925   18.514535   20.677484 H          1 MOL1         0.0829
      12    O1      17.876698   18.644105   22.882863 O.3        1 MOL1        -0.5515
      13    H8      17.249486   18.277631   22.223730 H          1 MOL1         0.3773
@<TRIPOS>BOND
    1     1     2    1
    2     1     3    1
    3     1     4    1
    4     4     5    1
    5     4     6    1
    6     4     7    1
    7     7     8    1
    8     1     9    1
    9     7     9    1
   10     9    10    1
   11     9    11    1
   12     7    12    1
   13    12    13    1
@<TRIPOS>SUBSTRUCTURE
       1 MOL1            1 RESIDUE      1      MOL     
@<SCITEGIC>MOL_PROPERTY
VConf Rank
SciTegic.value.IntegerValue
448

@<SCITEGIC>MOL_PROPERTY
Conf_Id
SciTegic.value.IntegerValue
20

@<SCITEGIC>MOL_PROPERTY
Delta U+W
SciTegic.value.DoubleValue
1.030

@<SCITEGIC>MOL_PROPERTY
U+W
SciTegic.value.DoubleValue
-2.101

@<SCITEGIC>MOL_PROPERTY
Grad RMS
SciTegic.value.DoubleValue
0.000000

@<SCITEGIC>MOL_PROPERTY
U
SciTegic.value.DoubleValue
0.841

@<SCITEGIC>MOL_PROPERTY
W
SciTegic.value.DoubleValue
-2.942

@<SCITEGIC>MOL_PROPERTY
W(PB)
SciTegic.value.DoubleValue
-4.530

@<SCITEGIC>MOL_PROPERTY
W(SA)
SciTegic.value.DoubleValue
1.587

@<SCITEGIC>MOL_PROPERTY
Valence
SciTegic.value.DoubleValue
6.736

@<SCITEGIC>MOL_PROPERTY
Coulomb
SciTegic.value.DoubleValue
-7.246

@<SCITEGIC>MOL_PROPERTY
VdW
SciTegic.value.DoubleValue
1.352

@<SCITEGIC>MOL_PROPERTY
VdW6
SciTegic.value.DoubleValue
-2.500

@<SCITEGIC>MOL_PROPERTY
VdW12
SciTegic.value.DoubleValue
3.851

@<SCITEGIC>MOL_PROPERTY
Bond
SciTegic.value.DoubleValue
0.063

@<SCITEGIC>MOL_PROPERTY
Angle
SciTegic.value.DoubleValue
0.687

@<SCITEGIC>MOL_PROPERTY
Pdih
SciTegic.value.DoubleValue
5.986

@<SCITEGIC>MOL_PROPERTY
Idih
SciTegic.value.DoubleValue
0.000

@<SCITEGIC>MOL_PROPERTY
Tether
SciTegic.value.DoubleValue
0.000

@<TRIPOS>MOLECULE
guest-s16_confgen4.mol2 : confsearch ligand conformer 449
          13          13           1
SMALL
USER_CHARGES
 
@<TRIPOS>ATOM
       1    C1      19.333051   17.867527   21.671140 C.3        1 MOL1        -0.1693
       2    H1      20.044315   17.036697   21.573713 H          1 MOL1         0.0829
       3    H2      18.368662   17.553300   21.254441 H          1 MOL1         0.0829
       4    C2      19.873972   19.252096   21.183565 C.3        1 MOL1        -0.1768
       5    H3      20.582437   19.225945   20.348289 H          1 MOL1         0.0829
       6    H4      19.097326   19.994826   20.963199 H          1 MOL1         0.0829
       7    C3      20.505943   19.367194   22.603607 C.3        1 MOL1         0.1211
       8    H5      21.470189   18.850582   22.703786 H          1 MOL1         0.0786
       9    C4      19.287020   18.526134   23.089405 C.3        1 MOL1        -0.1768
      10    H6      18.379183   19.106603   23.295017 H          1 MOL1         0.0829
      11    H7      19.477116   17.858850   23.937276 H          1 MOL1         0.0829
      12    O1      20.586327   20.672195   23.125459 O.3        1 MOL1        -0.5515
      13    H8      19.703061   21.080889   23.009139 H          1 MOL1         0.3773
@<TRIPOS>BOND
    1     1     2    1
    2     1     3    1
    3     1     4    1
    4     4     5    1
    5     4     6    1
    6     4     7    1
    7     7     8    1
    8     1     9    1
    9     7     9    1
   10     9    10    1
   11     9    11    1
   12     7    12    1
   13    12    13    1
@<TRIPOS>SUBSTRUCTURE
       1 MOL1            1 RESIDUE      1      MOL     
@<SCITEGIC>MOL_PROPERTY
VConf Rank
SciTegic.value.IntegerValue
449

@<SCITEGIC>MOL_PROPERTY
Conf_Id
SciTegic.value.IntegerValue
24

@<SCITEGIC>MOL_PROPERTY
Delta U+W
SciTegic.value.DoubleValue
0.356

@<SCITEGIC>MOL_PROPERTY
U+W
SciTegic.value.DoubleValue
-2.775

@<SCITEGIC>MOL_PROPERTY
Grad RMS
SciTegic.value.DoubleValue
0.000000

@<SCITEGIC>MOL_PROPERTY
U
SciTegic.value.DoubleValue
-0.184

@<SCITEGIC>MOL_PROPERTY
W
SciTegic.value.DoubleValue
-2.591

@<SCITEGIC>MOL_PROPERTY
W(PB)
SciTegic.value.DoubleValue
-4.184

@<SCITEGIC>MOL_PROPERTY
W(SA)
SciTegic.value.DoubleValue
1.593

@<SCITEGIC>MOL_PROPERTY
Valence
SciTegic.value.DoubleValue
6.840

@<SCITEGIC>MOL_PROPERTY
Coulomb
SciTegic.value.DoubleValue
-7.916

@<SCITEGIC>MOL_PROPERTY
VdW
SciTegic.value.DoubleValue
0.893

@<SCITEGIC>MOL_PROPERTY
VdW6
SciTegic.value.DoubleValue
-2.167

@<SCITEGIC>MOL_PROPERTY
VdW12
SciTegic.value.DoubleValue
3.060

@<SCITEGIC>MOL_PROPERTY
Bond
SciTegic.value.DoubleValue
0.059

@<SCITEGIC>MOL_PROPERTY
Angle
SciTegic.value.DoubleValue
0.918

@<SCITEGIC>MOL_PROPERTY
Pdih
SciTegic.value.DoubleValue
5.862

@<SCITEGIC>MOL_PROPERTY
Idih
SciTegic.value.DoubleValue
0.000

@<SCITEGIC>MOL_PROPERTY
Tether
SciTegic.value.DoubleValue
0.000

@<TRIPOS>MOLECULE
guest-s16_confgen4.mol2 : confsearch ligand conformer 450
          13          13           1
SMALL
USER_CHARGES
 
@<TRIPOS>ATOM
       1    C1      20.777268   19.176938   22.428971 C.3        1 MOL1        -0.1693
       2    H1      21.506857   19.913353   22.786414 H          1 MOL1         0.0829
       3    H2      21.312625   18.252549   22.177588 H          1 MOL1         0.0829
       4    C2      19.779508   19.678996   21.332362 C.3        1 MOL1        -0.1768
       5    H3      19.536720   20.746771   21.395028 H          1 MOL1         0.0829
       6    H4      20.042011   19.441960   20.295243 H          1 MOL1         0.0829
       7    C3      18.721437   18.745669   21.998228 C.3        1 MOL1         0.1211
       8    H5      17.695890   19.136480   21.995852 H          1 MOL1         0.0786
       9    C4      19.508655   18.980351   23.324579 C.3        1 MOL1        -0.1768
      10    H6      19.199459   19.876828   23.875707 H          1 MOL1         0.0829
      11    H7      19.535405   18.135206   24.021516 H          1 MOL1         0.0829
      12    O1      18.731051   17.413525   21.532365 O.3        1 MOL1        -0.5515
      13    H8      19.664971   17.119346   21.556155 H          1 MOL1         0.3773
@<TRIPOS>BOND
    1     1     2    1
    2     1     3    1
    3     1     4    1
    4     4     5    1
    5     4     6    1
    6     4     7    1
    7     7     8    1
    8     1     9    1
    9     7     9    1
   10     9    10    1
   11     9    11    1
   12     7    12    1
   13    12    13    1
@<TRIPOS>SUBSTRUCTURE
       1 MOL1            1 RESIDUE      1      MOL     
@<SCITEGIC>MOL_PROPERTY
VConf Rank
SciTegic.value.IntegerValue
450

@<SCITEGIC>MOL_PROPERTY
Conf_Id
SciTegic.value.IntegerValue
44

@<SCITEGIC>MOL_PROPERTY
Delta U+W
SciTegic.value.DoubleValue
0.823

@<SCITEGIC>MOL_PROPERTY
U+W
SciTegic.value.DoubleValue
-2.308

@<SCITEGIC>MOL_PROPERTY
Grad RMS
SciTegic.value.DoubleValue
0.000000

@<SCITEGIC>MOL_PROPERTY
U
SciTegic.value.DoubleValue
0.039

@<SCITEGIC>MOL_PROPERTY
W
SciTegic.value.DoubleValue
-2.348

@<SCITEGIC>MOL_PROPERTY
W(PB)
SciTegic.value.DoubleValue
-3.918

@<SCITEGIC>MOL_PROPERTY
W(SA)
SciTegic.value.DoubleValue
1.571

@<SCITEGIC>MOL_PROPERTY
Valence
SciTegic.value.DoubleValue
7.320

@<SCITEGIC>MOL_PROPERTY
Coulomb
SciTegic.value.DoubleValue
-8.530

@<SCITEGIC>MOL_PROPERTY
VdW
SciTegic.value.DoubleValue
1.249

@<SCITEGIC>MOL_PROPERTY
VdW6
SciTegic.value.DoubleValue
-2.615

@<SCITEGIC>MOL_PROPERTY
VdW12
SciTegic.value.DoubleValue
3.864

@<SCITEGIC>MOL_PROPERTY
Bond
SciTegic.value.DoubleValue
0.056

@<SCITEGIC>MOL_PROPERTY
Angle
SciTegic.value.DoubleValue
0.694

@<SCITEGIC>MOL_PROPERTY
Pdih
SciTegic.value.DoubleValue
6.570

@<SCITEGIC>MOL_PROPERTY
Idih
SciTegic.value.DoubleValue
0.000

@<SCITEGIC>MOL_PROPERTY
Tether
SciTegic.value.DoubleValue
0.000

@<TRIPOS>MOLECULE
guest-s16_confgen4.mol2 : confsearch ligand conformer 451
          13          13           1
SMALL
USER_CHARGES
 
@<TRIPOS>ATOM
       1    C1      19.082296   17.915844   22.607467 C.3        1 MOL1        -0.1693
       2    H1      19.215135   17.674208   23.670271 H          1 MOL1         0.0829
       3    H2      18.440218   17.152457   22.152151 H          1 MOL1         0.0829
       4    C2      20.405447   18.246713   21.841240 C.3        1 MOL1        -0.1768
       5    H3      21.304026   17.717797   22.177046 H          1 MOL1         0.0829
       6    H4      20.336547   18.167265   20.749211 H          1 MOL1         0.0829
       7    C3      20.222417   19.691484   22.396204 C.3        1 MOL1         0.1211
       8    H5      20.599450   19.823808   23.419629 H          1 MOL1         0.0786
       9    C4      18.692749   19.403051   22.317989 C.3        1 MOL1        -0.1768
      10    H6      18.074118   19.895823   23.076041 H          1 MOL1         0.0829
      11    H7      18.246218   19.575816   21.330793 H          1 MOL1         0.0829
      12    O1      20.685108   20.722737   21.555384 O.3        1 MOL1        -0.5515
      13    H8      20.368998   21.570903   21.934715 H          1 MOL1         0.3773
@<TRIPOS>BOND
    1     1     2    1
    2     1     3    1
    3     1     4    1
    4     4     5    1
    5     4     6    1
    6     4     7    1
    7     7     8    1
    8     1     9    1
    9     7     9    1
   10     9    10    1
   11     9    11    1
   12     7    12    1
   13    12    13    1
@<TRIPOS>SUBSTRUCTURE
       1 MOL1            1 RESIDUE      1      MOL     
@<SCITEGIC>MOL_PROPERTY
VConf Rank
SciTegic.value.IntegerValue
451

@<SCITEGIC>MOL_PROPERTY
Conf_Id
SciTegic.value.IntegerValue
22

@<SCITEGIC>MOL_PROPERTY
Delta U+W
SciTegic.value.DoubleValue
0.000

@<SCITEGIC>MOL_PROPERTY
U+W
SciTegic.value.DoubleValue
-3.131

@<SCITEGIC>MOL_PROPERTY
Grad RMS
SciTegic.value.DoubleValue
0.000000

@<SCITEGIC>MOL_PROPERTY
U
SciTegic.value.DoubleValue
-0.154

@<SCITEGIC>MOL_PROPERTY
W
SciTegic.value.DoubleValue
-2.978

@<SCITEGIC>MOL_PROPERTY
W(PB)
SciTegic.value.DoubleValue
-4.579

@<SCITEGIC>MOL_PROPERTY
W(SA)
SciTegic.value.DoubleValue
1.601

@<SCITEGIC>MOL_PROPERTY
Valence
SciTegic.value.DoubleValue
6.333

@<SCITEGIC>MOL_PROPERTY
Coulomb
SciTegic.value.DoubleValue
-7.439

@<SCITEGIC>MOL_PROPERTY
VdW
SciTegic.value.DoubleValue
0.952

@<SCITEGIC>MOL_PROPERTY
VdW6
SciTegic.value.DoubleValue
-2.120

@<SCITEGIC>MOL_PROPERTY
VdW12
SciTegic.value.DoubleValue
3.072

@<SCITEGIC>MOL_PROPERTY
Bond
SciTegic.value.DoubleValue
0.065

@<SCITEGIC>MOL_PROPERTY
Angle
SciTegic.value.DoubleValue
0.931

@<SCITEGIC>MOL_PROPERTY
Pdih
SciTegic.value.DoubleValue
5.338

@<SCITEGIC>MOL_PROPERTY
Idih
SciTegic.value.DoubleValue
0.000

@<SCITEGIC>MOL_PROPERTY
Tether
SciTegic.value.DoubleValue
0.000

@<TRIPOS>MOLECULE
guest-s16_confgen4.mol2 : confsearch ligand conformer 452
          13          13           1
SMALL
USER_CHARGES
 
@<TRIPOS>ATOM
       1    C1      18.480443   19.195898   22.836039 C.3        1 MOL1        -0.1693
       2    H1      18.439833   18.868891   23.883418 H          1 MOL1         0.0829
       3    H2      17.506429   19.619132   22.563076 H          1 MOL1         0.0829
       4    C2      19.074127   18.142168   21.843808 C.3        1 MOL1        -0.1768
       5    H3      18.823730   18.313787   20.789464 H          1 MOL1         0.0829
       6    H4      18.882455   17.090909   22.085241 H          1 MOL1         0.0829
       7    C3      20.464541   18.696860   22.277697 C.3        1 MOL1         0.1211
       8    H5      20.845071   18.264158   23.213126 H          1 MOL1         0.0786
       9    C4      19.732064   20.059239   22.468084 C.3        1 MOL1        -0.1768
      10    H6      19.628415   20.651572   21.550488 H          1 MOL1         0.0829
      11    H7      20.124847   20.704372   23.261486 H          1 MOL1         0.0829
      12    O1      21.457951   18.681599   21.278971 O.3        1 MOL1        -0.5515
      13    H8      21.722194   17.745796   21.146112 H          1 MOL1         0.3773
@<TRIPOS>BOND
    1     1     2    1
    2     1     3    1
    3     1     4    1
    4     4     5    1
    5     4     6    1
    6     4     7    1
    7     7     8    1
    8     1     9    1
    9     7     9    1
   10     9    10    1
   11     9    11    1
   12     7    12    1
   13    12    13    1
@<TRIPOS>SUBSTRUCTURE
       1 MOL1            1 RESIDUE      1      MOL     
@<SCITEGIC>MOL_PROPERTY
VConf Rank
SciTegic.value.IntegerValue
452

@<SCITEGIC>MOL_PROPERTY
Conf_Id
SciTegic.value.IntegerValue
19

@<SCITEGIC>MOL_PROPERTY
Delta U+W
SciTegic.value.DoubleValue
-0.011

@<SCITEGIC>MOL_PROPERTY
U+W
SciTegic.value.DoubleValue
-3.142

@<SCITEGIC>MOL_PROPERTY
Grad RMS
SciTegic.value.DoubleValue
0.000000

@<SCITEGIC>MOL_PROPERTY
U
SciTegic.value.DoubleValue
-0.154

@<SCITEGIC>MOL_PROPERTY
W
SciTegic.value.DoubleValue
-2.989

@<SCITEGIC>MOL_PROPERTY
W(PB)
SciTegic.value.DoubleValue
-4.588

@<SCITEGIC>MOL_PROPERTY
W(SA)
SciTegic.value.DoubleValue
1.599

@<SCITEGIC>MOL_PROPERTY
Valence
SciTegic.value.DoubleValue
6.334

@<SCITEGIC>MOL_PROPERTY
Coulomb
SciTegic.value.DoubleValue
-7.439

@<SCITEGIC>MOL_PROPERTY
VdW
SciTegic.value.DoubleValue
0.951

@<SCITEGIC>MOL_PROPERTY
VdW6
SciTegic.value.DoubleValue
-2.120

@<SCITEGIC>MOL_PROPERTY
VdW12
SciTegic.value.DoubleValue
3.072

@<SCITEGIC>MOL_PROPERTY
Bond
SciTegic.value.DoubleValue
0.065

@<SCITEGIC>MOL_PROPERTY
Angle
SciTegic.value.DoubleValue
0.930

@<SCITEGIC>MOL_PROPERTY
Pdih
SciTegic.value.DoubleValue
5.339

@<SCITEGIC>MOL_PROPERTY
Idih
SciTegic.value.DoubleValue
0.000

@<SCITEGIC>MOL_PROPERTY
Tether
SciTegic.value.DoubleValue
0.000

@<TRIPOS>MOLECULE
guest-s16_confgen4.mol2 : confsearch ligand conformer 453
          13          13           1
SMALL
USER_CHARGES
 
@<TRIPOS>ATOM
       1    C1      19.225849   19.549651   21.228452 C.3        1 MOL1        -0.1693
       2    H1      18.816956   20.451617   20.758090 H          1 MOL1         0.0829
       3    H2      19.397002   18.794602   20.450111 H          1 MOL1         0.0829
       4    C2      18.460637   19.022520   22.487641 C.3        1 MOL1        -0.1768
       5    H3      17.973630   19.803446   23.084083 H          1 MOL1         0.0829
       6    H4      17.740113   18.216419   22.310330 H          1 MOL1         0.0829
       7    C3      19.854457   18.578558   23.031324 C.3        1 MOL1         0.1211
       8    H5      19.973484   18.676320   24.118102 H          1 MOL1         0.0786
       9    C4      20.432665   19.766730   22.200651 C.3        1 MOL1        -0.1768
      10    H6      21.428893   19.612416   21.771619 H          1 MOL1         0.0829
      11    H7      20.423866   20.728784   22.727292 H          1 MOL1         0.0829
      12    O1      20.275441   17.295955   22.611980 O.3        1 MOL1        -0.5515
      13    H8      21.218694   17.202677   22.864424 H          1 MOL1         0.3773
@<TRIPOS>BOND
    1     1     2    1
    2     1     3    1
    3     1     4    1
    4     4     5    1
    5     4     6    1
    6     4     7    1
    7     7     8    1
    8     1     9    1
    9     7     9    1
   10     9    10    1
   11     9    11    1
   12     7    12    1
   13    12    13    1
@<TRIPOS>SUBSTRUCTURE
       1 MOL1            1 RESIDUE      1      MOL     
@<SCITEGIC>MOL_PROPERTY
VConf Rank
SciTegic.value.IntegerValue
453

@<SCITEGIC>MOL_PROPERTY
Conf_Id
SciTegic.value.IntegerValue
20

@<SCITEGIC>MOL_PROPERTY
Delta U+W
SciTegic.value.DoubleValue
1.030

@<SCITEGIC>MOL_PROPERTY
U+W
SciTegic.value.DoubleValue
-2.101

@<SCITEGIC>MOL_PROPERTY
Grad RMS
SciTegic.value.DoubleValue
0.000000

@<SCITEGIC>MOL_PROPERTY
U
SciTegic.value.DoubleValue
0.841

@<SCITEGIC>MOL_PROPERTY
W
SciTegic.value.DoubleValue
-2.942

@<SCITEGIC>MOL_PROPERTY
W(PB)
SciTegic.value.DoubleValue
-4.530

@<SCITEGIC>MOL_PROPERTY
W(SA)
SciTegic.value.DoubleValue
1.587

@<SCITEGIC>MOL_PROPERTY
Valence
SciTegic.value.DoubleValue
6.736

@<SCITEGIC>MOL_PROPERTY
Coulomb
SciTegic.value.DoubleValue
-7.246

@<SCITEGIC>MOL_PROPERTY
VdW
SciTegic.value.DoubleValue
1.352

@<SCITEGIC>MOL_PROPERTY
VdW6
SciTegic.value.DoubleValue
-2.500

@<SCITEGIC>MOL_PROPERTY
VdW12
SciTegic.value.DoubleValue
3.851

@<SCITEGIC>MOL_PROPERTY
Bond
SciTegic.value.DoubleValue
0.063

@<SCITEGIC>MOL_PROPERTY
Angle
SciTegic.value.DoubleValue
0.687

@<SCITEGIC>MOL_PROPERTY
Pdih
SciTegic.value.DoubleValue
5.986

@<SCITEGIC>MOL_PROPERTY
Idih
SciTegic.value.DoubleValue
0.000

@<SCITEGIC>MOL_PROPERTY
Tether
SciTegic.value.DoubleValue
0.000

@<TRIPOS>MOLECULE
guest-s16_confgen4.mol2 : confsearch ligand conformer 454
          13          13           1
SMALL
USER_CHARGES
 
@<TRIPOS>ATOM
       1    C1      20.570574   18.813255   23.184064 C.3        1 MOL1        -0.1693
       2    H1      21.567567   19.262171   23.083321 H          1 MOL1         0.0829
       3    H2      20.507682   18.315784   24.159251 H          1 MOL1         0.0829
       4    C2      20.105398   17.970052   21.951191 C.3        1 MOL1        -0.1768
       5    H3      20.894211   17.446609   21.399761 H          1 MOL1         0.0829
       6    H4      19.293658   17.262576   22.160820 H          1 MOL1         0.0829
       7    C3      19.647320   19.332029   21.347586 C.3        1 MOL1         0.1211
       8    H5      20.453446   19.893555   20.856114 H          1 MOL1         0.0786
       9    C4      19.384414   19.766486   22.821113 C.3        1 MOL1        -0.1768
      10    H6      18.411526   19.460536   23.225181 H          1 MOL1         0.0829
      11    H7      19.536486   20.829569   23.037956 H          1 MOL1         0.0829
      12    O1      18.508513   19.274789   20.521960 O.3        1 MOL1        -0.5515
      13    H8      17.827806   18.765426   21.009717 H          1 MOL1         0.3773
@<TRIPOS>BOND
    1     1     2    1
    2     1     3    1
    3     1     4    1
    4     4     5    1
    5     4     6    1
    6     4     7    1
    7     7     8    1
    8     1     9    1
    9     7     9    1
   10     9    10    1
   11     9    11    1
   12     7    12    1
   13    12    13    1
@<TRIPOS>SUBSTRUCTURE
       1 MOL1            1 RESIDUE      1      MOL     
@<SCITEGIC>MOL_PROPERTY
VConf Rank
SciTegic.value.IntegerValue
454

@<SCITEGIC>MOL_PROPERTY
Conf_Id
SciTegic.value.IntegerValue
24

@<SCITEGIC>MOL_PROPERTY
Delta U+W
SciTegic.value.DoubleValue
0.356

@<SCITEGIC>MOL_PROPERTY
U+W
SciTegic.value.DoubleValue
-2.775

@<SCITEGIC>MOL_PROPERTY
Grad RMS
SciTegic.value.DoubleValue
0.000000

@<SCITEGIC>MOL_PROPERTY
U
SciTegic.value.DoubleValue
-0.184

@<SCITEGIC>MOL_PROPERTY
W
SciTegic.value.DoubleValue
-2.591

@<SCITEGIC>MOL_PROPERTY
W(PB)
SciTegic.value.DoubleValue
-4.184

@<SCITEGIC>MOL_PROPERTY
W(SA)
SciTegic.value.DoubleValue
1.593

@<SCITEGIC>MOL_PROPERTY
Valence
SciTegic.value.DoubleValue
6.840

@<SCITEGIC>MOL_PROPERTY
Coulomb
SciTegic.value.DoubleValue
-7.916

@<SCITEGIC>MOL_PROPERTY
VdW
SciTegic.value.DoubleValue
0.893

@<SCITEGIC>MOL_PROPERTY
VdW6
SciTegic.value.DoubleValue
-2.167

@<SCITEGIC>MOL_PROPERTY
VdW12
SciTegic.value.DoubleValue
3.060

@<SCITEGIC>MOL_PROPERTY
Bond
SciTegic.value.DoubleValue
0.059

@<SCITEGIC>MOL_PROPERTY
Angle
SciTegic.value.DoubleValue
0.918

@<SCITEGIC>MOL_PROPERTY
Pdih
SciTegic.value.DoubleValue
5.862

@<SCITEGIC>MOL_PROPERTY
Idih
SciTegic.value.DoubleValue
0.000

@<SCITEGIC>MOL_PROPERTY
Tether
SciTegic.value.DoubleValue
0.000

@<TRIPOS>MOLECULE
guest-s16_confgen4.mol2 : confsearch ligand conformer 455
          13          13           1
SMALL
USER_CHARGES
 
@<TRIPOS>ATOM
       1    C1      19.424357   20.057085   22.324585 C.3        1 MOL1        -0.1693
       2    H1      19.744316   21.036547   22.699624 H          1 MOL1         0.0829
       3    H2      18.431281   20.167293   21.870769 H          1 MOL1         0.0829
       4    C2      19.561399   18.862603   23.326867 C.3        1 MOL1        -0.1768
       5    H3      20.386140   18.963886   24.042799 H          1 MOL1         0.0829
       6    H4      18.654718   18.586967   23.877015 H          1 MOL1         0.0829
       7    C3      19.900720   17.980047   22.085921 C.3        1 MOL1         0.1211
       8    H5      20.646302   17.195649   22.268445 H          1 MOL1         0.0786
       9    C4      20.467075   19.286228   21.447855 C.3        1 MOL1        -0.1768
      10    H6      21.513873   19.491378   21.703081 H          1 MOL1         0.0829
      11    H7      20.348708   19.379323   20.362484 H          1 MOL1         0.0829
      12    O1      18.780106   17.435509   21.423027 O.3        1 MOL1        -0.5515
      13    H8      18.152862   18.175455   21.287537 H          1 MOL1         0.3773
@<TRIPOS>BOND
    1     1     2    1
    2     1     3    1
    3     1     4    1
    4     4     5    1
    5     4     6    1
    6     4     7    1
    7     7     8    1
    8     1     9    1
    9     7     9    1
   10     9    10    1
   11     9    11    1
   12     7    12    1
   13    12    13    1
@<TRIPOS>SUBSTRUCTURE
       1 MOL1            1 RESIDUE      1      MOL     
@<SCITEGIC>MOL_PROPERTY
VConf Rank
SciTegic.value.IntegerValue
455

@<SCITEGIC>MOL_PROPERTY
Conf_Id
SciTegic.value.IntegerValue
44

@<SCITEGIC>MOL_PROPERTY
Delta U+W
SciTegic.value.DoubleValue
0.823

@<SCITEGIC>MOL_PROPERTY
U+W
SciTegic.value.DoubleValue
-2.308

@<SCITEGIC>MOL_PROPERTY
Grad RMS
SciTegic.value.DoubleValue
0.000000

@<SCITEGIC>MOL_PROPERTY
U
SciTegic.value.DoubleValue
0.039

@<SCITEGIC>MOL_PROPERTY
W
SciTegic.value.DoubleValue
-2.348

@<SCITEGIC>MOL_PROPERTY
W(PB)
SciTegic.value.DoubleValue
-3.918

@<SCITEGIC>MOL_PROPERTY
W(SA)
SciTegic.value.DoubleValue
1.571

@<SCITEGIC>MOL_PROPERTY
Valence
SciTegic.value.DoubleValue
7.320

@<SCITEGIC>MOL_PROPERTY
Coulomb
SciTegic.value.DoubleValue
-8.530

@<SCITEGIC>MOL_PROPERTY
VdW
SciTegic.value.DoubleValue
1.249

@<SCITEGIC>MOL_PROPERTY
VdW6
SciTegic.value.DoubleValue
-2.615

@<SCITEGIC>MOL_PROPERTY
VdW12
SciTegic.value.DoubleValue
3.864

@<SCITEGIC>MOL_PROPERTY
Bond
SciTegic.value.DoubleValue
0.056

@<SCITEGIC>MOL_PROPERTY
Angle
SciTegic.value.DoubleValue
0.694

@<SCITEGIC>MOL_PROPERTY
Pdih
SciTegic.value.DoubleValue
6.570

@<SCITEGIC>MOL_PROPERTY
Idih
SciTegic.value.DoubleValue
0.000

@<SCITEGIC>MOL_PROPERTY
Tether
SciTegic.value.DoubleValue
0.000

@<TRIPOS>MOLECULE
guest-s16_confgen4.mol2 : confsearch ligand conformer 456
          13          13           1
SMALL
USER_CHARGES
 
@<TRIPOS>ATOM
       1    C1      18.508038   18.672162   22.758566 C.3        1 MOL1        -0.1693
       2    H1      18.557888   17.726450   23.314201 H          1 MOL1         0.0829
       3    H2      17.489193   19.070213   22.835035 H          1 MOL1         0.0829
       4    C2      19.118338   18.618404   21.319139 C.3        1 MOL1        -0.1768
       5    H3      19.025720   17.663812   20.789861 H          1 MOL1         0.0829
       6    H4      18.792508   19.425379   20.651148 H          1 MOL1         0.0829
       7    C3      20.486099   18.874089   22.021068 C.3        1 MOL1         0.1211
       8    H5      20.955061   17.964873   22.421648 H          1 MOL1         0.0786
       9    C4      19.664102   19.678040   23.073293 C.3        1 MOL1        -0.1768
      10    H6      20.052508   19.661168   24.097514 H          1 MOL1         0.0829
      11    H7      19.456044   20.717799   22.791498 H          1 MOL1         0.0829
      12    O1      21.413544   19.628751   21.276169 O.3        1 MOL1        -0.5515
      13    H8      22.153684   19.856765   21.879002 H          1 MOL1         0.3773
@<TRIPOS>BOND
    1     1     2    1
    2     1     3    1
    3     1     4    1
    4     4     5    1
    5     4     6    1
    6     4     7    1
    7     7     8    1
    8     1     9    1
    9     7     9    1
   10     9    10    1
   11     9    11    1
   12     7    12    1
   13    12    13    1
@<TRIPOS>SUBSTRUCTURE
       1 MOL1            1 RESIDUE      1      MOL     
@<SCITEGIC>MOL_PROPERTY
VConf Rank
SciTegic.value.IntegerValue
456

@<SCITEGIC>MOL_PROPERTY
Conf_Id
SciTegic.value.IntegerValue
22

@<SCITEGIC>MOL_PROPERTY
Delta U+W
SciTegic.value.DoubleValue
0.000

@<SCITEGIC>MOL_PROPERTY
U+W
SciTegic.value.DoubleValue
-3.131

@<SCITEGIC>MOL_PROPERTY
Grad RMS
SciTegic.value.DoubleValue
0.000000

@<SCITEGIC>MOL_PROPERTY
U
SciTegic.value.DoubleValue
-0.154

@<SCITEGIC>MOL_PROPERTY
W
SciTegic.value.DoubleValue
-2.978

@<SCITEGIC>MOL_PROPERTY
W(PB)
SciTegic.value.DoubleValue
-4.579

@<SCITEGIC>MOL_PROPERTY
W(SA)
SciTegic.value.DoubleValue
1.601

@<SCITEGIC>MOL_PROPERTY
Valence
SciTegic.value.DoubleValue
6.333

@<SCITEGIC>MOL_PROPERTY
Coulomb
SciTegic.value.DoubleValue
-7.439

@<SCITEGIC>MOL_PROPERTY
VdW
SciTegic.value.DoubleValue
0.952

@<SCITEGIC>MOL_PROPERTY
VdW6
SciTegic.value.DoubleValue
-2.120

@<SCITEGIC>MOL_PROPERTY
VdW12
SciTegic.value.DoubleValue
3.072

@<SCITEGIC>MOL_PROPERTY
Bond
SciTegic.value.DoubleValue
0.065

@<SCITEGIC>MOL_PROPERTY
Angle
SciTegic.value.DoubleValue
0.931

@<SCITEGIC>MOL_PROPERTY
Pdih
SciTegic.value.DoubleValue
5.338

@<SCITEGIC>MOL_PROPERTY
Idih
SciTegic.value.DoubleValue
0.000

@<SCITEGIC>MOL_PROPERTY
Tether
SciTegic.value.DoubleValue
0.000

@<TRIPOS>MOLECULE
guest-s16_confgen4.mol2 : confsearch ligand conformer 457
          13          13           1
SMALL
USER_CHARGES
 
@<TRIPOS>ATOM
       1    C1      18.667499   18.859926   21.344953 C.3        1 MOL1        -0.1693
       2    H1      17.720278   19.299401   21.684395 H          1 MOL1         0.0829
       3    H2      18.518700   18.436480   20.344508 H          1 MOL1         0.0829
       4    C2      19.367850   17.928069   22.388256 C.3        1 MOL1        -0.1768
       5    H3      20.112071   17.242833   21.963546 H          1 MOL1         0.0829
       6    H4      18.704293   17.361518   23.050740 H          1 MOL1         0.0829
       7    C3      19.961178   19.241560   22.981468 C.3        1 MOL1         0.1211
       8    H5      19.283566   19.766263   23.668919 H          1 MOL1         0.0786
       9    C4      19.917718   19.783656   21.520959 C.3        1 MOL1        -0.1768
      10    H6      20.784045   19.506698   20.907479 H          1 MOL1         0.0829
      11    H7      19.742260   20.859974   21.417453 H          1 MOL1         0.0829
      12    O1      21.248275   19.122418   23.541590 O.3        1 MOL1        -0.5515
      13    H8      21.154366   18.625585   24.382744 H          1 MOL1         0.3773
@<TRIPOS>BOND
    1     1     2    1
    2     1     3    1
    3     1     4    1
    4     4     5    1
    5     4     6    1
    6     4     7    1
    7     7     8    1
    8     1     9    1
    9     7     9    1
   10     9    10    1
   11     9    11    1
   12     7    12    1
   13    12    13    1
@<TRIPOS>SUBSTRUCTURE
       1 MOL1            1 RESIDUE      1      MOL     
@<SCITEGIC>MOL_PROPERTY
VConf Rank
SciTegic.value.IntegerValue
457

@<SCITEGIC>MOL_PROPERTY
Conf_Id
SciTegic.value.IntegerValue
19

@<SCITEGIC>MOL_PROPERTY
Delta U+W
SciTegic.value.DoubleValue
-0.011

@<SCITEGIC>MOL_PROPERTY
U+W
SciTegic.value.DoubleValue
-3.142

@<SCITEGIC>MOL_PROPERTY
Grad RMS
SciTegic.value.DoubleValue
0.000000

@<SCITEGIC>MOL_PROPERTY
U
SciTegic.value.DoubleValue
-0.154

@<SCITEGIC>MOL_PROPERTY
W
SciTegic.value.DoubleValue
-2.989

@<SCITEGIC>MOL_PROPERTY
W(PB)
SciTegic.value.DoubleValue
-4.588

@<SCITEGIC>MOL_PROPERTY
W(SA)
SciTegic.value.DoubleValue
1.599

@<SCITEGIC>MOL_PROPERTY
Valence
SciTegic.value.DoubleValue
6.334

@<SCITEGIC>MOL_PROPERTY
Coulomb
SciTegic.value.DoubleValue
-7.439

@<SCITEGIC>MOL_PROPERTY
VdW
SciTegic.value.DoubleValue
0.951

@<SCITEGIC>MOL_PROPERTY
VdW6
SciTegic.value.DoubleValue
-2.120

@<SCITEGIC>MOL_PROPERTY
VdW12
SciTegic.value.DoubleValue
3.072

@<SCITEGIC>MOL_PROPERTY
Bond
SciTegic.value.DoubleValue
0.065

@<SCITEGIC>MOL_PROPERTY
Angle
SciTegic.value.DoubleValue
0.930

@<SCITEGIC>MOL_PROPERTY
Pdih
SciTegic.value.DoubleValue
5.339

@<SCITEGIC>MOL_PROPERTY
Idih
SciTegic.value.DoubleValue
0.000

@<SCITEGIC>MOL_PROPERTY
Tether
SciTegic.value.DoubleValue
0.000

@<TRIPOS>MOLECULE
guest-s16_confgen4.mol2 : confsearch ligand conformer 458
          13          13           1
SMALL
USER_CHARGES
 
@<TRIPOS>ATOM
       1    C1      19.922503   18.477464   23.329720 C.3        1 MOL1        -0.1693
       2    H1      20.310248   18.602929   24.347506 H          1 MOL1         0.0829
       3    H2      19.615012   17.431906   23.197570 H          1 MOL1         0.0829
       4    C2      20.818316   19.041643   22.177248 C.3        1 MOL1        -0.1768
       5    H3      21.416215   19.918570   22.453438 H          1 MOL1         0.0829
       6    H4      21.469517   18.317376   21.675484 H          1 MOL1         0.0829
       7    C3      19.487041   19.382593   21.437728 C.3        1 MOL1         0.1211
       8    H5      19.515225   20.308808   20.849387 H          1 MOL1         0.0786
       9    C4      18.864353   19.530814   22.861240 C.3        1 MOL1        -0.1768
      10    H6      17.814474   19.233299   22.959174 H          1 MOL1         0.0829
      11    H7      18.988429   20.526601   23.303945 H          1 MOL1         0.0829
      12    O1      18.953099   18.330755   20.658827 O.3        1 MOL1        -0.5515
      13    H8      18.047256   18.596936   20.392834 H          1 MOL1         0.3773
@<TRIPOS>BOND
    1     1     2    1
    2     1     3    1
    3     1     4    1
    4     4     5    1
    5     4     6    1
    6     4     7    1
    7     7     8    1
    8     1     9    1
    9     7     9    1
   10     9    10    1
   11     9    11    1
   12     7    12    1
   13    12    13    1
@<TRIPOS>SUBSTRUCTURE
       1 MOL1            1 RESIDUE      1      MOL     
@<SCITEGIC>MOL_PROPERTY
VConf Rank
SciTegic.value.IntegerValue
458

@<SCITEGIC>MOL_PROPERTY
Conf_Id
SciTegic.value.IntegerValue
20

@<SCITEGIC>MOL_PROPERTY
Delta U+W
SciTegic.value.DoubleValue
1.030

@<SCITEGIC>MOL_PROPERTY
U+W
SciTegic.value.DoubleValue
-2.101

@<SCITEGIC>MOL_PROPERTY
Grad RMS
SciTegic.value.DoubleValue
0.000000

@<SCITEGIC>MOL_PROPERTY
U
SciTegic.value.DoubleValue
0.841

@<SCITEGIC>MOL_PROPERTY
W
SciTegic.value.DoubleValue
-2.942

@<SCITEGIC>MOL_PROPERTY
W(PB)
SciTegic.value.DoubleValue
-4.530

@<SCITEGIC>MOL_PROPERTY
W(SA)
SciTegic.value.DoubleValue
1.587

@<SCITEGIC>MOL_PROPERTY
Valence
SciTegic.value.DoubleValue
6.736

@<SCITEGIC>MOL_PROPERTY
Coulomb
SciTegic.value.DoubleValue
-7.246

@<SCITEGIC>MOL_PROPERTY
VdW
SciTegic.value.DoubleValue
1.352

@<SCITEGIC>MOL_PROPERTY
VdW6
SciTegic.value.DoubleValue
-2.500

@<SCITEGIC>MOL_PROPERTY
VdW12
SciTegic.value.DoubleValue
3.851

@<SCITEGIC>MOL_PROPERTY
Bond
SciTegic.value.DoubleValue
0.063

@<SCITEGIC>MOL_PROPERTY
Angle
SciTegic.value.DoubleValue
0.687

@<SCITEGIC>MOL_PROPERTY
Pdih
SciTegic.value.DoubleValue
5.986

@<SCITEGIC>MOL_PROPERTY
Idih
SciTegic.value.DoubleValue
0.000

@<SCITEGIC>MOL_PROPERTY
Tether
SciTegic.value.DoubleValue
0.000

@<TRIPOS>MOLECULE
guest-s16_confgen4.mol2 : confsearch ligand conformer 459
          13          13           1
SMALL
USER_CHARGES
 
@<TRIPOS>ATOM
       1    C1      19.120071   19.912010   21.636961 C.3        1 MOL1        -0.1693
       2    H1      19.713598   20.716032   21.182050 H          1 MOL1         0.0829
       3    H2      18.056877   20.131606   21.482633 H          1 MOL1         0.0829
       4    C2      19.539175   19.535189   23.096315 C.3        1 MOL1        -0.1768
       5    H3      19.926170   20.353597   23.713353 H          1 MOL1         0.0829
       6    H4      18.773523   18.995609   23.667296 H          1 MOL1         0.0829
       7    C3      20.613596   18.629028   22.422782 C.3        1 MOL1         0.1211
       8    H5      21.527603   19.164726   22.132414 H          1 MOL1         0.0786
       9    C4      19.584152   18.465309   21.264078 C.3        1 MOL1        -0.1768
      10    H6      18.828553   17.686597   21.425531 H          1 MOL1         0.0829
      11    H7      20.010869   18.338847   20.262973 H          1 MOL1         0.0829
      12    O1      20.931614   17.448175   23.120111 O.3        1 MOL1        -0.5515
      13    H8      20.082802   17.016112   23.351537 H          1 MOL1         0.3773
@<TRIPOS>BOND
    1     1     2    1
    2     1     3    1
    3     1     4    1
    4     4     5    1
    5     4     6    1
    6     4     7    1
    7     7     8    1
    8     1     9    1
    9     7     9    1
   10     9    10    1
   11     9    11    1
   12     7    12    1
   13    12    13    1
@<TRIPOS>SUBSTRUCTURE
       1 MOL1            1 RESIDUE      1      MOL     
@<SCITEGIC>MOL_PROPERTY
VConf Rank
SciTegic.value.IntegerValue
459

@<SCITEGIC>MOL_PROPERTY
Conf_Id
SciTegic.value.IntegerValue
24

@<SCITEGIC>MOL_PROPERTY
Delta U+W
SciTegic.value.DoubleValue
0.356

@<SCITEGIC>MOL_PROPERTY
U+W
SciTegic.value.DoubleValue
-2.775

@<SCITEGIC>MOL_PROPERTY
Grad RMS
SciTegic.value.DoubleValue
0.000000

@<SCITEGIC>MOL_PROPERTY
U
SciTegic.value.DoubleValue
-0.184

@<SCITEGIC>MOL_PROPERTY
W
SciTegic.value.DoubleValue
-2.591

@<SCITEGIC>MOL_PROPERTY
W(PB)
SciTegic.value.DoubleValue
-4.184

@<SCITEGIC>MOL_PROPERTY
W(SA)
SciTegic.value.DoubleValue
1.593

@<SCITEGIC>MOL_PROPERTY
Valence
SciTegic.value.DoubleValue
6.840

@<SCITEGIC>MOL_PROPERTY
Coulomb
SciTegic.value.DoubleValue
-7.916

@<SCITEGIC>MOL_PROPERTY
VdW
SciTegic.value.DoubleValue
0.893

@<SCITEGIC>MOL_PROPERTY
VdW6
SciTegic.value.DoubleValue
-2.167

@<SCITEGIC>MOL_PROPERTY
VdW12
SciTegic.value.DoubleValue
3.060

@<SCITEGIC>MOL_PROPERTY
Bond
SciTegic.value.DoubleValue
0.059

@<SCITEGIC>MOL_PROPERTY
Angle
SciTegic.value.DoubleValue
0.918

@<SCITEGIC>MOL_PROPERTY
Pdih
SciTegic.value.DoubleValue
5.862

@<SCITEGIC>MOL_PROPERTY
Idih
SciTegic.value.DoubleValue
0.000

@<SCITEGIC>MOL_PROPERTY
Tether
SciTegic.value.DoubleValue
0.000

@<TRIPOS>MOLECULE
guest-s16_confgen4.mol2 : confsearch ligand conformer 460
          13          13           1
SMALL
USER_CHARGES
 
@<TRIPOS>ATOM
       1    C1      20.488979   19.132809   21.430466 C.3        1 MOL1        -0.1693
       2    H1      21.453573   18.794066   21.034001 H          1 MOL1         0.0829
       3    H2      20.145117   19.982172   20.826615 H          1 MOL1         0.0829
       4    C2      20.426202   19.357103   22.978332 C.3        1 MOL1        -0.1768
       5    H3      21.090170   18.704540   23.558264 H          1 MOL1         0.0829
       6    H4      20.563270   20.388130   23.323158 H          1 MOL1         0.0829
       7    C3      18.951161   18.855186   22.898803 C.3        1 MOL1         0.1211
       8    H5      18.619080   18.262494   23.760735 H          1 MOL1         0.0786
       9    C4      19.417121   18.017118   21.668145 C.3        1 MOL1        -0.1768
      10    H6      19.833678   17.036010   21.926838 H          1 MOL1         0.0829
      11    H7      18.675873   17.881800   20.872565 H          1 MOL1         0.0829
      12    O1      18.000456   19.856527   22.606907 O.3        1 MOL1        -0.5515
      13    H8      18.347178   20.350017   21.835179 H          1 MOL1         0.3773
@<TRIPOS>BOND
    1     1     2    1
    2     1     3    1
    3     1     4    1
    4     4     5    1
    5     4     6    1
    6     4     7    1
    7     7     8    1
    8     1     9    1
    9     7     9    1
   10     9    10    1
   11     9    11    1
   12     7    12    1
   13    12    13    1
@<TRIPOS>SUBSTRUCTURE
       1 MOL1            1 RESIDUE      1      MOL     
@<SCITEGIC>MOL_PROPERTY
VConf Rank
SciTegic.value.IntegerValue
460

@<SCITEGIC>MOL_PROPERTY
Conf_Id
SciTegic.value.IntegerValue
44

@<SCITEGIC>MOL_PROPERTY
Delta U+W
SciTegic.value.DoubleValue
0.823

@<SCITEGIC>MOL_PROPERTY
U+W
SciTegic.value.DoubleValue
-2.308

@<SCITEGIC>MOL_PROPERTY
Grad RMS
SciTegic.value.DoubleValue
0.000000

@<SCITEGIC>MOL_PROPERTY
U
SciTegic.value.DoubleValue
0.039

@<SCITEGIC>MOL_PROPERTY
W
SciTegic.value.DoubleValue
-2.348

@<SCITEGIC>MOL_PROPERTY
W(PB)
SciTegic.value.DoubleValue
-3.918

@<SCITEGIC>MOL_PROPERTY
W(SA)
SciTegic.value.DoubleValue
1.571

@<SCITEGIC>MOL_PROPERTY
Valence
SciTegic.value.DoubleValue
7.320

@<SCITEGIC>MOL_PROPERTY
Coulomb
SciTegic.value.DoubleValue
-8.530

@<SCITEGIC>MOL_PROPERTY
VdW
SciTegic.value.DoubleValue
1.249

@<SCITEGIC>MOL_PROPERTY
VdW6
SciTegic.value.DoubleValue
-2.615

@<SCITEGIC>MOL_PROPERTY
VdW12
SciTegic.value.DoubleValue
3.864

@<SCITEGIC>MOL_PROPERTY
Bond
SciTegic.value.DoubleValue
0.056

@<SCITEGIC>MOL_PROPERTY
Angle
SciTegic.value.DoubleValue
0.694

@<SCITEGIC>MOL_PROPERTY
Pdih
SciTegic.value.DoubleValue
6.570

@<SCITEGIC>MOL_PROPERTY
Idih
SciTegic.value.DoubleValue
0.000

@<SCITEGIC>MOL_PROPERTY
Tether
SciTegic.value.DoubleValue
0.000

@<TRIPOS>MOLECULE
guest-s16_confgen4.mol2 : confsearch ligand conformer 461
          13          13           1
SMALL
USER_CHARGES
 
@<TRIPOS>ATOM
       1    C1      20.534102   20.021387   22.068680 C.3        1 MOL1        -0.1693
       2    H1      20.104096   20.899809   21.569627 H          1 MOL1         0.0829
       3    H2      21.577523   20.239950   22.325277 H          1 MOL1         0.0829
       4    C2      20.276534   18.662261   21.338103 C.3        1 MOL1        -0.1768
       5    H3      20.224336   18.703185   20.244686 H          1 MOL1         0.0829
       6    H4      20.952499   17.848588   21.628952 H          1 MOL1         0.0829
       7    C3      18.907211   18.661078   22.082280 C.3        1 MOL1         0.1211
       8    H5      18.130515   19.255191   21.581445 H          1 MOL1         0.0786
       9    C4      19.654669   19.424897   23.216776 C.3        1 MOL1        -0.1768
      10    H6      19.053710   20.142321   23.786269 H          1 MOL1         0.0829
      11    H7      20.195815   18.780160   23.920530 H          1 MOL1         0.0829
      12    O1      18.414559   17.389305   22.435031 O.3        1 MOL1        -0.5515
      13    H8      17.647158   17.529775   23.030487 H          1 MOL1         0.3773
@<TRIPOS>BOND
    1     1     2    1
    2     1     3    1
    3     1     4    1
    4     4     5    1
    5     4     6    1
    6     4     7    1
    7     7     8    1
    8     1     9    1
    9     7     9    1
   10     9    10    1
   11     9    11    1
   12     7    12    1
   13    12    13    1
@<TRIPOS>SUBSTRUCTURE
       1 MOL1            1 RESIDUE      1      MOL     
@<SCITEGIC>MOL_PROPERTY
VConf Rank
SciTegic.value.IntegerValue
461

@<SCITEGIC>MOL_PROPERTY
Conf_Id
SciTegic.value.IntegerValue
22

@<SCITEGIC>MOL_PROPERTY
Delta U+W
SciTegic.value.DoubleValue
0.000

@<SCITEGIC>MOL_PROPERTY
U+W
SciTegic.value.DoubleValue
-3.131

@<SCITEGIC>MOL_PROPERTY
Grad RMS
SciTegic.value.DoubleValue
0.000000

@<SCITEGIC>MOL_PROPERTY
U
SciTegic.value.DoubleValue
-0.154

@<SCITEGIC>MOL_PROPERTY
W
SciTegic.value.DoubleValue
-2.978

@<SCITEGIC>MOL_PROPERTY
W(PB)
SciTegic.value.DoubleValue
-4.579

@<SCITEGIC>MOL_PROPERTY
W(SA)
SciTegic.value.DoubleValue
1.601

@<SCITEGIC>MOL_PROPERTY
Valence
SciTegic.value.DoubleValue
6.333

@<SCITEGIC>MOL_PROPERTY
Coulomb
SciTegic.value.DoubleValue
-7.439

@<SCITEGIC>MOL_PROPERTY
VdW
SciTegic.value.DoubleValue
0.952

@<SCITEGIC>MOL_PROPERTY
VdW6
SciTegic.value.DoubleValue
-2.120

@<SCITEGIC>MOL_PROPERTY
VdW12
SciTegic.value.DoubleValue
3.072

@<SCITEGIC>MOL_PROPERTY
Bond
SciTegic.value.DoubleValue
0.065

@<SCITEGIC>MOL_PROPERTY
Angle
SciTegic.value.DoubleValue
0.931

@<SCITEGIC>MOL_PROPERTY
Pdih
SciTegic.value.DoubleValue
5.338

@<SCITEGIC>MOL_PROPERTY
Idih
SciTegic.value.DoubleValue
0.000

@<SCITEGIC>MOL_PROPERTY
Tether
SciTegic.value.DoubleValue
0.000

@<TRIPOS>MOLECULE
guest-s16_confgen4.mol2 : confsearch ligand conformer 462
          13          13           1
SMALL
USER_CHARGES
 
@<TRIPOS>ATOM
       1    C1      20.807652   19.512047   22.149790 C.3        1 MOL1        -0.1693
       2    H1      21.365999   19.225342   21.248882 H          1 MOL1         0.0829
       3    H2      21.432566   20.183671   22.750408 H          1 MOL1         0.0829
       4    C2      20.145957   18.319975   22.916896 C.3        1 MOL1        -0.1768
       5    H3      19.878064   18.537677   23.958353 H          1 MOL1         0.0829
       6    H4      20.684430   17.366517   22.883143 H          1 MOL1         0.0829
       7    C3      18.974341   18.475498   21.900864 C.3        1 MOL1         0.1211
       8    H5      19.146244   17.969100   20.941139 H          1 MOL1         0.0786
       9    C4      19.341516   19.990035   21.886589 C.3        1 MOL1        -0.1768
      10    H6      18.894922   20.573587   22.701209 H          1 MOL1         0.0829
      11    H7      19.165999   20.513763   20.940616 H          1 MOL1         0.0829
      12    O1      17.694737   18.170752   22.405140 O.3        1 MOL1        -0.5515
      13    H8      17.649674   17.196418   22.513981 H          1 MOL1         0.3773
@<TRIPOS>BOND
    1     1     2    1
    2     1     3    1
    3     1     4    1
    4     4     5    1
    5     4     6    1
    6     4     7    1
    7     7     8    1
    8     1     9    1
    9     7     9    1
   10     9    10    1
   11     9    11    1
   12     7    12    1
   13    12    13    1
@<TRIPOS>SUBSTRUCTURE
       1 MOL1            1 RESIDUE      1      MOL     
@<SCITEGIC>MOL_PROPERTY
VConf Rank
SciTegic.value.IntegerValue
462

@<SCITEGIC>MOL_PROPERTY
Conf_Id
SciTegic.value.IntegerValue
19

@<SCITEGIC>MOL_PROPERTY
Delta U+W
SciTegic.value.DoubleValue
-0.011

@<SCITEGIC>MOL_PROPERTY
U+W
SciTegic.value.DoubleValue
-3.142

@<SCITEGIC>MOL_PROPERTY
Grad RMS
SciTegic.value.DoubleValue
0.000000

@<SCITEGIC>MOL_PROPERTY
U
SciTegic.value.DoubleValue
-0.154

@<SCITEGIC>MOL_PROPERTY
W
SciTegic.value.DoubleValue
-2.989

@<SCITEGIC>MOL_PROPERTY
W(PB)
SciTegic.value.DoubleValue
-4.588

@<SCITEGIC>MOL_PROPERTY
W(SA)
SciTegic.value.DoubleValue
1.599

@<SCITEGIC>MOL_PROPERTY
Valence
SciTegic.value.DoubleValue
6.334

@<SCITEGIC>MOL_PROPERTY
Coulomb
SciTegic.value.DoubleValue
-7.439

@<SCITEGIC>MOL_PROPERTY
VdW
SciTegic.value.DoubleValue
0.951

@<SCITEGIC>MOL_PROPERTY
VdW6
SciTegic.value.DoubleValue
-2.120

@<SCITEGIC>MOL_PROPERTY
VdW12
SciTegic.value.DoubleValue
3.072

@<SCITEGIC>MOL_PROPERTY
Bond
SciTegic.value.DoubleValue
0.065

@<SCITEGIC>MOL_PROPERTY
Angle
SciTegic.value.DoubleValue
0.930

@<SCITEGIC>MOL_PROPERTY
Pdih
SciTegic.value.DoubleValue
5.339

@<SCITEGIC>MOL_PROPERTY
Idih
SciTegic.value.DoubleValue
0.000

@<SCITEGIC>MOL_PROPERTY
Tether
SciTegic.value.DoubleValue
0.000

@<TRIPOS>MOLECULE
guest-s16_confgen4.mol2 : confsearch ligand conformer 463
          13          13           1
SMALL
USER_CHARGES
 
@<TRIPOS>ATOM
       1    C1      19.565784   19.459274   23.441670 C.3        1 MOL1        -0.1693
       2    H1      19.999980   20.140249   24.183103 H          1 MOL1         0.0829
       3    H2      18.682110   18.978697   23.881411 H          1 MOL1         0.0829
       4    C2      20.562138   18.473716   22.745302 C.3        1 MOL1        -0.1768
       5    H3      21.581569   18.861897   22.631987 H          1 MOL1         0.0829
       6    H4      20.616367   17.464914   23.169298 H          1 MOL1         0.0829
       7    C3      19.674366   18.626724   21.470987 C.3        1 MOL1         0.1211
       8    H5      20.228364   18.612436   20.523520 H          1 MOL1         0.0786
       9    C4      19.339578   20.052230   22.011308 C.3        1 MOL1        -0.1768
      10    H6      18.330220   20.421331   21.798440 H          1 MOL1         0.0829
      11    H7      20.062723   20.823807   21.720269 H          1 MOL1         0.0829
      12    O1      18.575082   17.740742   21.402039 O.3        1 MOL1        -0.5515
      13    H8      18.003405   18.043680   20.664767 H          1 MOL1         0.3773
@<TRIPOS>BOND
    1     1     2    1
    2     1     3    1
    3     1     4    1
    4     4     5    1
    5     4     6    1
    6     4     7    1
    7     7     8    1
    8     1     9    1
    9     7     9    1
   10     9    10    1
   11     9    11    1
   12     7    12    1
   13    12    13    1
@<TRIPOS>SUBSTRUCTURE
       1 MOL1            1 RESIDUE      1      MOL     
@<SCITEGIC>MOL_PROPERTY
VConf Rank
SciTegic.value.IntegerValue
463

@<SCITEGIC>MOL_PROPERTY
Conf_Id
SciTegic.value.IntegerValue
20

@<SCITEGIC>MOL_PROPERTY
Delta U+W
SciTegic.value.DoubleValue
1.030

@<SCITEGIC>MOL_PROPERTY
U+W
SciTegic.value.DoubleValue
-2.101

@<SCITEGIC>MOL_PROPERTY
Grad RMS
SciTegic.value.DoubleValue
0.000000

@<SCITEGIC>MOL_PROPERTY
U
SciTegic.value.DoubleValue
0.841

@<SCITEGIC>MOL_PROPERTY
W
SciTegic.value.DoubleValue
-2.942

@<SCITEGIC>MOL_PROPERTY
W(PB)
SciTegic.value.DoubleValue
-4.530

@<SCITEGIC>MOL_PROPERTY
W(SA)
SciTegic.value.DoubleValue
1.587

@<SCITEGIC>MOL_PROPERTY
Valence
SciTegic.value.DoubleValue
6.736

@<SCITEGIC>MOL_PROPERTY
Coulomb
SciTegic.value.DoubleValue
-7.246

@<SCITEGIC>MOL_PROPERTY
VdW
SciTegic.value.DoubleValue
1.352

@<SCITEGIC>MOL_PROPERTY
VdW6
SciTegic.value.DoubleValue
-2.500

@<SCITEGIC>MOL_PROPERTY
VdW12
SciTegic.value.DoubleValue
3.851

@<SCITEGIC>MOL_PROPERTY
Bond
SciTegic.value.DoubleValue
0.063

@<SCITEGIC>MOL_PROPERTY
Angle
SciTegic.value.DoubleValue
0.687

@<SCITEGIC>MOL_PROPERTY
Pdih
SciTegic.value.DoubleValue
5.986

@<SCITEGIC>MOL_PROPERTY
Idih
SciTegic.value.DoubleValue
0.000

@<SCITEGIC>MOL_PROPERTY
Tether
SciTegic.value.DoubleValue
0.000

@<TRIPOS>MOLECULE
guest-s16_confgen4.mol2 : confsearch ligand conformer 464
          13          13           1
SMALL
USER_CHARGES
 
@<TRIPOS>ATOM
       1    C1      19.294802   17.845943   21.751453 C.3        1 MOL1        -0.1693
       2    H1      19.890761   17.321938   20.992559 H          1 MOL1         0.0829
       3    H2      18.390047   17.259768   21.952047 H          1 MOL1         0.0829
       4    C2      19.078699   19.370537   21.475283 C.3        1 MOL1        -0.1768
       5    H3      19.015449   19.665526   20.422063 H          1 MOL1         0.0829
       6    H4      18.237059   19.818896   22.017505 H          1 MOL1         0.0829
       7    C3      20.470182   19.564605   22.150019 C.3        1 MOL1         0.1211
       8    H5      21.319041   19.402977   21.471779 H          1 MOL1         0.0786
       9    C4      20.101517   18.315891   23.006729 C.3        1 MOL1        -0.1768
      10    H6      19.488488   18.528523   23.891247 H          1 MOL1         0.0829
      11    H7      20.941570   17.679469   23.306010 H          1 MOL1         0.0829
      12    O1      20.631434   20.764395   22.868572 O.3        1 MOL1        -0.5515
      13    H8      19.849552   20.854368   23.452768 H          1 MOL1         0.3773
@<TRIPOS>BOND
    1     1     2    1
    2     1     3    1
    3     1     4    1
    4     4     5    1
    5     4     6    1
    6     4     7    1
    7     7     8    1
    8     1     9    1
    9     7     9    1
   10     9    10    1
   11     9    11    1
   12     7    12    1
   13    12    13    1
@<TRIPOS>SUBSTRUCTURE
       1 MOL1            1 RESIDUE      1      MOL     
@<SCITEGIC>MOL_PROPERTY
VConf Rank
SciTegic.value.IntegerValue
464

@<SCITEGIC>MOL_PROPERTY
Conf_Id
SciTegic.value.IntegerValue
24

@<SCITEGIC>MOL_PROPERTY
Delta U+W
SciTegic.value.DoubleValue
0.356

@<SCITEGIC>MOL_PROPERTY
U+W
SciTegic.value.DoubleValue
-2.775

@<SCITEGIC>MOL_PROPERTY
Grad RMS
SciTegic.value.DoubleValue
0.000000

@<SCITEGIC>MOL_PROPERTY
U
SciTegic.value.DoubleValue
-0.184

@<SCITEGIC>MOL_PROPERTY
W
SciTegic.value.DoubleValue
-2.591

@<SCITEGIC>MOL_PROPERTY
W(PB)
SciTegic.value.DoubleValue
-4.184

@<SCITEGIC>MOL_PROPERTY
W(SA)
SciTegic.value.DoubleValue
1.593

@<SCITEGIC>MOL_PROPERTY
Valence
SciTegic.value.DoubleValue
6.840

@<SCITEGIC>MOL_PROPERTY
Coulomb
SciTegic.value.DoubleValue
-7.916

@<SCITEGIC>MOL_PROPERTY
VdW
SciTegic.value.DoubleValue
0.893

@<SCITEGIC>MOL_PROPERTY
VdW6
SciTegic.value.DoubleValue
-2.167

@<SCITEGIC>MOL_PROPERTY
VdW12
SciTegic.value.DoubleValue
3.060

@<SCITEGIC>MOL_PROPERTY
Bond
SciTegic.value.DoubleValue
0.059

@<SCITEGIC>MOL_PROPERTY
Angle
SciTegic.value.DoubleValue
0.918

@<SCITEGIC>MOL_PROPERTY
Pdih
SciTegic.value.DoubleValue
5.862

@<SCITEGIC>MOL_PROPERTY
Idih
SciTegic.value.DoubleValue
0.000

@<SCITEGIC>MOL_PROPERTY
Tether
SciTegic.value.DoubleValue
0.000

@<TRIPOS>MOLECULE
guest-s16_confgen4.mol2 : confsearch ligand conformer 465
          13          13           1
SMALL
USER_CHARGES
 
@<TRIPOS>ATOM
       1    C1      19.270438   19.400246   23.159330 C.3        1 MOL1        -0.1693
       2    H1      18.689515   19.198370   24.067156 H          1 MOL1         0.0829
       3    H2      19.570674   20.455749   23.167587 H          1 MOL1         0.0829
       4    C2      18.634950   18.906925   21.816599 C.3        1 MOL1        -0.1768
       5    H3      18.010042   18.010719   21.913141 H          1 MOL1         0.0829
       6    H4      18.081808   19.656517   21.239664 H          1 MOL1         0.0829
       7    C3      20.092052   18.618331   21.339568 C.3        1 MOL1         0.1211
       8    H5      20.201369   17.730345   20.703944 H          1 MOL1         0.0786
       9    C4      20.424362   18.389878   22.846676 C.3        1 MOL1        -0.1768
      10    H6      20.238192   17.366901   23.195779 H          1 MOL1         0.0829
      11    H7      21.428750   18.689425   23.166338 H          1 MOL1         0.0829
      12    O1      20.749937   19.718312   20.748843 O.3        1 MOL1        -0.5515
      13    H8      20.619767   20.476254   21.355385 H          1 MOL1         0.3773
@<TRIPOS>BOND
    1     1     2    1
    2     1     3    1
    3     1     4    1
    4     4     5    1
    5     4     6    1
    6     4     7    1
    7     7     8    1
    8     1     9    1
    9     7     9    1
   10     9    10    1
   11     9    11    1
   12     7    12    1
   13    12    13    1
@<TRIPOS>SUBSTRUCTURE
       1 MOL1            1 RESIDUE      1      MOL     
@<SCITEGIC>MOL_PROPERTY
VConf Rank
SciTegic.value.IntegerValue
465

@<SCITEGIC>MOL_PROPERTY
Conf_Id
SciTegic.value.IntegerValue
44

@<SCITEGIC>MOL_PROPERTY
Delta U+W
SciTegic.value.DoubleValue
0.823

@<SCITEGIC>MOL_PROPERTY
U+W
SciTegic.value.DoubleValue
-2.308

@<SCITEGIC>MOL_PROPERTY
Grad RMS
SciTegic.value.DoubleValue
0.000000

@<SCITEGIC>MOL_PROPERTY
U
SciTegic.value.DoubleValue
0.039

@<SCITEGIC>MOL_PROPERTY
W
SciTegic.value.DoubleValue
-2.348

@<SCITEGIC>MOL_PROPERTY
W(PB)
SciTegic.value.DoubleValue
-3.918

@<SCITEGIC>MOL_PROPERTY
W(SA)
SciTegic.value.DoubleValue
1.571

@<SCITEGIC>MOL_PROPERTY
Valence
SciTegic.value.DoubleValue
7.320

@<SCITEGIC>MOL_PROPERTY
Coulomb
SciTegic.value.DoubleValue
-8.530

@<SCITEGIC>MOL_PROPERTY
VdW
SciTegic.value.DoubleValue
1.249

@<SCITEGIC>MOL_PROPERTY
VdW6
SciTegic.value.DoubleValue
-2.615

@<SCITEGIC>MOL_PROPERTY
VdW12
SciTegic.value.DoubleValue
3.864

@<SCITEGIC>MOL_PROPERTY
Bond
SciTegic.value.DoubleValue
0.056

@<SCITEGIC>MOL_PROPERTY
Angle
SciTegic.value.DoubleValue
0.694

@<SCITEGIC>MOL_PROPERTY
Pdih
SciTegic.value.DoubleValue
6.570

@<SCITEGIC>MOL_PROPERTY
Idih
SciTegic.value.DoubleValue
0.000

@<SCITEGIC>MOL_PROPERTY
Tether
SciTegic.value.DoubleValue
0.000

@<TRIPOS>MOLECULE
guest-s16_confgen4.mol2 : confsearch ligand conformer 466
          13          13           1
SMALL
USER_CHARGES
 
@<TRIPOS>ATOM
       1    C1      19.071421   20.219621   22.290792 C.3        1 MOL1        -0.1693
       2    H1      19.725883   21.051309   21.998283 H          1 MOL1         0.0829
       3    H2      18.068781   20.616168   22.490294 H          1 MOL1         0.0829
       4    C2      19.665911   19.272691   23.384964 C.3        1 MOL1        -0.1768
       5    H3      20.323778   19.741530   24.124803 H          1 MOL1         0.0829
       6    H4      18.926220   18.656278   23.910775 H          1 MOL1         0.0829
       7    C3      20.380949   18.553927   22.201348 C.3        1 MOL1         0.1211
       8    H5      21.317216   19.037374   21.890308 H          1 MOL1         0.0786
       9    C4      19.141847   18.969927   21.352371 C.3        1 MOL1        -0.1768
      10    H6      19.334476   19.172530   20.293118 H          1 MOL1         0.0829
      11    H7      18.285465   18.288665   21.431657 H          1 MOL1         0.0829
      12    O1      20.563611   17.166275   22.361360 O.3        1 MOL1        -0.5515
      13    H8      20.867168   16.811611   21.498070 H          1 MOL1         0.3773
@<TRIPOS>BOND
    1     1     2    1
    2     1     3    1
    3     1     4    1
    4     4     5    1
    5     4     6    1
    6     4     7    1
    7     7     8    1
    8     1     9    1
    9     7     9    1
   10     9    10    1
   11     9    11    1
   12     7    12    1
   13    12    13    1
@<TRIPOS>SUBSTRUCTURE
       1 MOL1            1 RESIDUE      1      MOL     
@<SCITEGIC>MOL_PROPERTY
VConf Rank
SciTegic.value.IntegerValue
466

@<SCITEGIC>MOL_PROPERTY
Conf_Id
SciTegic.value.IntegerValue
22

@<SCITEGIC>MOL_PROPERTY
Delta U+W
SciTegic.value.DoubleValue
0.000

@<SCITEGIC>MOL_PROPERTY
U+W
SciTegic.value.DoubleValue
-3.131

@<SCITEGIC>MOL_PROPERTY
Grad RMS
SciTegic.value.DoubleValue
0.000000

@<SCITEGIC>MOL_PROPERTY
U
SciTegic.value.DoubleValue
-0.154

@<SCITEGIC>MOL_PROPERTY
W
SciTegic.value.DoubleValue
-2.978

@<SCITEGIC>MOL_PROPERTY
W(PB)
SciTegic.value.DoubleValue
-4.579

@<SCITEGIC>MOL_PROPERTY
W(SA)
SciTegic.value.DoubleValue
1.601

@<SCITEGIC>MOL_PROPERTY
Valence
SciTegic.value.DoubleValue
6.333

@<SCITEGIC>MOL_PROPERTY
Coulomb
SciTegic.value.DoubleValue
-7.439

@<SCITEGIC>MOL_PROPERTY
VdW
SciTegic.value.DoubleValue
0.952

@<SCITEGIC>MOL_PROPERTY
VdW6
SciTegic.value.DoubleValue
-2.120

@<SCITEGIC>MOL_PROPERTY
VdW12
SciTegic.value.DoubleValue
3.072

@<SCITEGIC>MOL_PROPERTY
Bond
SciTegic.value.DoubleValue
0.065

@<SCITEGIC>MOL_PROPERTY
Angle
SciTegic.value.DoubleValue
0.931

@<SCITEGIC>MOL_PROPERTY
Pdih
SciTegic.value.DoubleValue
5.338

@<SCITEGIC>MOL_PROPERTY
Idih
SciTegic.value.DoubleValue
0.000

@<SCITEGIC>MOL_PROPERTY
Tether
SciTegic.value.DoubleValue
0.000

@<TRIPOS>MOLECULE
guest-s16_confgen4.mol2 : confsearch ligand conformer 467
          13          13           1
SMALL
USER_CHARGES
 
@<TRIPOS>ATOM
       1    C1      19.720273   19.492609   23.434072 C.3        1 MOL1        -0.1693
       2    H1      20.736949   19.824047   23.683282 H          1 MOL1         0.0829
       3    H2      19.067102   19.689975   24.292414 H          1 MOL1         0.0829
       4    C2      19.632058   18.056747   22.819377 C.3        1 MOL1        -0.1768
       5    H3      18.637829   17.595831   22.872839 H          1 MOL1         0.0829
       6    H4      20.375350   17.334071   23.173537 H          1 MOL1         0.0829
       7    C3      19.951868   18.750664   21.460924 C.3        1 MOL1         0.1211
       8    H5      21.022848   18.928562   21.292355 H          1 MOL1         0.0786
       9    C4      19.194775   19.981727   22.044137 C.3        1 MOL1        -0.1768
      10    H6      18.104854   19.943100   21.925116 H          1 MOL1         0.0829
      11    H7      19.551219   20.962172   21.710017 H          1 MOL1         0.0829
      12    O1      19.358466   18.160043   20.327968 O.3        1 MOL1        -0.5515
      13    H8      19.828509   17.314835   20.160971 H          1 MOL1         0.3773
@<TRIPOS>BOND
    1     1     2    1
    2     1     3    1
    3     1     4    1
    4     4     5    1
    5     4     6    1
    6     4     7    1
    7     7     8    1
    8     1     9    1
    9     7     9    1
   10     9    10    1
   11     9    11    1
   12     7    12    1
   13    12    13    1
@<TRIPOS>SUBSTRUCTURE
       1 MOL1            1 RESIDUE      1      MOL     
@<SCITEGIC>MOL_PROPERTY
VConf Rank
SciTegic.value.IntegerValue
467

@<SCITEGIC>MOL_PROPERTY
Conf_Id
SciTegic.value.IntegerValue
19

@<SCITEGIC>MOL_PROPERTY
Delta U+W
SciTegic.value.DoubleValue
-0.011

@<SCITEGIC>MOL_PROPERTY
U+W
SciTegic.value.DoubleValue
-3.142

@<SCITEGIC>MOL_PROPERTY
Grad RMS
SciTegic.value.DoubleValue
0.000000

@<SCITEGIC>MOL_PROPERTY
U
SciTegic.value.DoubleValue
-0.154

@<SCITEGIC>MOL_PROPERTY
W
SciTegic.value.DoubleValue
-2.989

@<SCITEGIC>MOL_PROPERTY
W(PB)
SciTegic.value.DoubleValue
-4.588

@<SCITEGIC>MOL_PROPERTY
W(SA)
SciTegic.value.DoubleValue
1.599

@<SCITEGIC>MOL_PROPERTY
Valence
SciTegic.value.DoubleValue
6.334

@<SCITEGIC>MOL_PROPERTY
Coulomb
SciTegic.value.DoubleValue
-7.439

@<SCITEGIC>MOL_PROPERTY
VdW
SciTegic.value.DoubleValue
0.951

@<SCITEGIC>MOL_PROPERTY
VdW6
SciTegic.value.DoubleValue
-2.120

@<SCITEGIC>MOL_PROPERTY
VdW12
SciTegic.value.DoubleValue
3.072

@<SCITEGIC>MOL_PROPERTY
Bond
SciTegic.value.DoubleValue
0.065

@<SCITEGIC>MOL_PROPERTY
Angle
SciTegic.value.DoubleValue
0.930

@<SCITEGIC>MOL_PROPERTY
Pdih
SciTegic.value.DoubleValue
5.339

@<SCITEGIC>MOL_PROPERTY
Idih
SciTegic.value.DoubleValue
0.000

@<SCITEGIC>MOL_PROPERTY
Tether
SciTegic.value.DoubleValue
0.000

@<TRIPOS>MOLECULE
guest-s16_confgen4.mol2 : confsearch ligand conformer 468
          13          13           1
SMALL
USER_CHARGES
 
@<TRIPOS>ATOM
       1    C1      19.436653   19.863346   21.372616 C.3        1 MOL1        -0.1693
       2    H1      19.586301   20.073809   20.307118 H          1 MOL1         0.0829
       3    H2      18.818942   20.661409   21.804746 H          1 MOL1         0.0829
       4    C2      20.723839   19.521282   22.194271 C.3        1 MOL1        -0.1768
       5    H3      21.509138   19.015125   21.619922 H          1 MOL1         0.0829
       6    H4      21.175166   20.351199   22.749190 H          1 MOL1         0.0829
       7    C3      19.820999   18.559609   23.028233 C.3        1 MOL1         0.1211
       8    H5      20.317562   17.638160   23.358640 H          1 MOL1         0.0786
       9    C4      18.968549   18.413320   21.728993 C.3        1 MOL1        -0.1768
      10    H6      17.891054   18.278568   21.874588 H          1 MOL1         0.0829
      11    H7      19.328129   17.638383   21.041135 H          1 MOL1         0.0829
      12    O1      19.152323   19.165670   24.116216 O.3        1 MOL1        -0.5515
      13    H8      18.493031   18.519819   24.448431 H          1 MOL1         0.3773
@<TRIPOS>BOND
    1     1     2    1
    2     1     3    1
    3     1     4    1
    4     4     5    1
    5     4     6    1
    6     4     7    1
    7     7     8    1
    8     1     9    1
    9     7     9    1
   10     9    10    1
   11     9    11    1
   12     7    12    1
   13    12    13    1
@<TRIPOS>SUBSTRUCTURE
       1 MOL1            1 RESIDUE      1      MOL     
@<SCITEGIC>MOL_PROPERTY
VConf Rank
SciTegic.value.IntegerValue
468

@<SCITEGIC>MOL_PROPERTY
Conf_Id
SciTegic.value.IntegerValue
20

@<SCITEGIC>MOL_PROPERTY
Delta U+W
SciTegic.value.DoubleValue
1.030

@<SCITEGIC>MOL_PROPERTY
U+W
SciTegic.value.DoubleValue
-2.101

@<SCITEGIC>MOL_PROPERTY
Grad RMS
SciTegic.value.DoubleValue
0.000000

@<SCITEGIC>MOL_PROPERTY
U
SciTegic.value.DoubleValue
0.841

@<SCITEGIC>MOL_PROPERTY
W
SciTegic.value.DoubleValue
-2.942

@<SCITEGIC>MOL_PROPERTY
W(PB)
SciTegic.value.DoubleValue
-4.530

@<SCITEGIC>MOL_PROPERTY
W(SA)
SciTegic.value.DoubleValue
1.587

@<SCITEGIC>MOL_PROPERTY
Valence
SciTegic.value.DoubleValue
6.736

@<SCITEGIC>MOL_PROPERTY
Coulomb
SciTegic.value.DoubleValue
-7.246

@<SCITEGIC>MOL_PROPERTY
VdW
SciTegic.value.DoubleValue
1.352

@<SCITEGIC>MOL_PROPERTY
VdW6
SciTegic.value.DoubleValue
-2.500

@<SCITEGIC>MOL_PROPERTY
VdW12
SciTegic.value.DoubleValue
3.851

@<SCITEGIC>MOL_PROPERTY
Bond
SciTegic.value.DoubleValue
0.063

@<SCITEGIC>MOL_PROPERTY
Angle
SciTegic.value.DoubleValue
0.687

@<SCITEGIC>MOL_PROPERTY
Pdih
SciTegic.value.DoubleValue
5.986

@<SCITEGIC>MOL_PROPERTY
Idih
SciTegic.value.DoubleValue
0.000

@<SCITEGIC>MOL_PROPERTY
Tether
SciTegic.value.DoubleValue
0.000

@<TRIPOS>MOLECULE
guest-s16_confgen4.mol2 : confsearch ligand conformer 469
          13          13           1
SMALL
USER_CHARGES
 
@<TRIPOS>ATOM
       1    C1      19.821189   19.976295   21.443566 C.3        1 MOL1        -0.1693
       2    H1      20.599978   19.983802   20.669550 H          1 MOL1         0.0829
       3    H2      19.249521   20.909441   21.373882 H          1 MOL1         0.0829
       4    C2      20.322747   19.582701   22.872159 C.3        1 MOL1        -0.1768
       5    H3      21.347559   19.878794   23.121925 H          1 MOL1         0.0829
       6    H4      19.658872   19.888040   23.690344 H          1 MOL1         0.0829
       7    C3      20.140827   18.109710   22.396386 C.3        1 MOL1         0.1211
       8    H5      20.991664   17.720664   21.820701 H          1 MOL1         0.0786
       9    C4      18.980420   18.658836   21.512604 C.3        1 MOL1        -0.1768
      10    H6      18.016518   18.757681   22.026910 H          1 MOL1         0.0829
      11    H7      18.819751   18.139016   20.561676 H          1 MOL1         0.0829
      12    O1      19.758630   17.194627   23.395568 O.3        1 MOL1        -0.5515
      13    H8      19.000926   17.593231   23.872766 H          1 MOL1         0.3773
@<TRIPOS>BOND
    1     1     2    1
    2     1     3    1
    3     1     4    1
    4     4     5    1
    5     4     6    1
    6     4     7    1
    7     7     8    1
    8     1     9    1
    9     7     9    1
   10     9    10    1
   11     9    11    1
   12     7    12    1
   13    12    13    1
@<TRIPOS>SUBSTRUCTURE
       1 MOL1            1 RESIDUE      1      MOL     
@<SCITEGIC>MOL_PROPERTY
VConf Rank
SciTegic.value.IntegerValue
469

@<SCITEGIC>MOL_PROPERTY
Conf_Id
SciTegic.value.IntegerValue
24

@<SCITEGIC>MOL_PROPERTY
Delta U+W
SciTegic.value.DoubleValue
0.356

@<SCITEGIC>MOL_PROPERTY
U+W
SciTegic.value.DoubleValue
-2.775

@<SCITEGIC>MOL_PROPERTY
Grad RMS
SciTegic.value.DoubleValue
0.000000

@<SCITEGIC>MOL_PROPERTY
U
SciTegic.value.DoubleValue
-0.184

@<SCITEGIC>MOL_PROPERTY
W
SciTegic.value.DoubleValue
-2.591

@<SCITEGIC>MOL_PROPERTY
W(PB)
SciTegic.value.DoubleValue
-4.184

@<SCITEGIC>MOL_PROPERTY
W(SA)
SciTegic.value.DoubleValue
1.593

@<SCITEGIC>MOL_PROPERTY
Valence
SciTegic.value.DoubleValue
6.840

@<SCITEGIC>MOL_PROPERTY
Coulomb
SciTegic.value.DoubleValue
-7.916

@<SCITEGIC>MOL_PROPERTY
VdW
SciTegic.value.DoubleValue
0.893

@<SCITEGIC>MOL_PROPERTY
VdW6
SciTegic.value.DoubleValue
-2.167

@<SCITEGIC>MOL_PROPERTY
VdW12
SciTegic.value.DoubleValue
3.060

@<SCITEGIC>MOL_PROPERTY
Bond
SciTegic.value.DoubleValue
0.059

@<SCITEGIC>MOL_PROPERTY
Angle
SciTegic.value.DoubleValue
0.918

@<SCITEGIC>MOL_PROPERTY
Pdih
SciTegic.value.DoubleValue
5.862

@<SCITEGIC>MOL_PROPERTY
Idih
SciTegic.value.DoubleValue
0.000

@<SCITEGIC>MOL_PROPERTY
Tether
SciTegic.value.DoubleValue
0.000

@<TRIPOS>MOLECULE
guest-s16_confgen4.mol2 : confsearch ligand conformer 470
          13          13           1
SMALL
USER_CHARGES
 
@<TRIPOS>ATOM
       1    C1      18.812004   18.604985   21.612750 C.3        1 MOL1        -0.1693
       2    H1      17.810499   18.160266   21.652565 H          1 MOL1         0.0829
       3    H2      19.078278   18.765582   20.560323 H          1 MOL1         0.0829
       4    C2      19.911647   17.892154   22.468784 C.3        1 MOL1        -0.1768
       5    H3      19.534315   17.402840   23.374989 H          1 MOL1         0.0829
       6    H4      20.557268   17.185862   21.934898 H          1 MOL1         0.0829
       7    C3      20.510505   19.311671   22.714413 C.3        1 MOL1         0.1211
       8    H5      20.943632   19.462769   23.711437 H          1 MOL1         0.0786
       9    C4      19.051057   19.837283   22.547860 C.3        1 MOL1        -0.1768
      10    H6      18.462720   19.824885   23.473452 H          1 MOL1         0.0829
      11    H7      18.947605   20.824059   22.082803 H          1 MOL1         0.0829
      12    O1      21.414464   19.751870   21.724054 O.3        1 MOL1        -0.5515
      13    H8      20.977863   19.593745   20.861680 H          1 MOL1         0.3773
@<TRIPOS>BOND
    1     1     2    1
    2     1     3    1
    3     1     4    1
    4     4     5    1
    5     4     6    1
    6     4     7    1
    7     7     8    1
    8     1     9    1
    9     7     9    1
   10     9    10    1
   11     9    11    1
   12     7    12    1
   13    12    13    1
@<TRIPOS>SUBSTRUCTURE
       1 MOL1            1 RESIDUE      1      MOL     
@<SCITEGIC>MOL_PROPERTY
VConf Rank
SciTegic.value.IntegerValue
470

@<SCITEGIC>MOL_PROPERTY
Conf_Id
SciTegic.value.IntegerValue
44

@<SCITEGIC>MOL_PROPERTY
Delta U+W
SciTegic.value.DoubleValue
0.823

@<SCITEGIC>MOL_PROPERTY
U+W
SciTegic.value.DoubleValue
-2.308

@<SCITEGIC>MOL_PROPERTY
Grad RMS
SciTegic.value.DoubleValue
0.000000

@<SCITEGIC>MOL_PROPERTY
U
SciTegic.value.DoubleValue
0.039

@<SCITEGIC>MOL_PROPERTY
W
SciTegic.value.DoubleValue
-2.348

@<SCITEGIC>MOL_PROPERTY
W(PB)
SciTegic.value.DoubleValue
-3.918

@<SCITEGIC>MOL_PROPERTY
W(SA)
SciTegic.value.DoubleValue
1.571

@<SCITEGIC>MOL_PROPERTY
Valence
SciTegic.value.DoubleValue
7.320

@<SCITEGIC>MOL_PROPERTY
Coulomb
SciTegic.value.DoubleValue
-8.530

@<SCITEGIC>MOL_PROPERTY
VdW
SciTegic.value.DoubleValue
1.249

@<SCITEGIC>MOL_PROPERTY
VdW6
SciTegic.value.DoubleValue
-2.615

@<SCITEGIC>MOL_PROPERTY
VdW12
SciTegic.value.DoubleValue
3.864

@<SCITEGIC>MOL_PROPERTY
Bond
SciTegic.value.DoubleValue
0.056

@<SCITEGIC>MOL_PROPERTY
Angle
SciTegic.value.DoubleValue
0.694

@<SCITEGIC>MOL_PROPERTY
Pdih
SciTegic.value.DoubleValue
6.570

@<SCITEGIC>MOL_PROPERTY
Idih
SciTegic.value.DoubleValue
0.000

@<SCITEGIC>MOL_PROPERTY
Tether
SciTegic.value.DoubleValue
0.000

@<TRIPOS>MOLECULE
guest-s16_confgen4.mol2 : confsearch ligand conformer 471
          13          13           1
SMALL
USER_CHARGES
 
@<TRIPOS>ATOM
       1    C1      18.774547   18.526756   23.071836 C.3        1 MOL1        -0.1693
       2    H1      17.737180   18.710143   22.762280 H          1 MOL1         0.0829
       3    H2      18.765984   17.905925   23.975624 H          1 MOL1         0.0829
       4    C2      19.677356   19.803291   23.123810 C.3        1 MOL1        -0.1768
       5    H3      19.177764   20.738095   23.400413 H          1 MOL1         0.0829
       6    H4      20.588070   19.698139   23.726411 H          1 MOL1         0.0829
       7    C3      19.883495   19.571332   21.596541 C.3        1 MOL1         0.1211
       8    H5      19.075444   19.978973   20.973690 H          1 MOL1         0.0786
       9    C4      19.726771   18.055520   21.923562 C.3        1 MOL1        -0.1768
      10    H6      19.269736   17.442169   21.139284 H          1 MOL1         0.0829
      11    H7      20.647297   17.565125   22.264060 H          1 MOL1         0.0829
      12    O1      21.143200   19.952458   21.094113 O.3        1 MOL1        -0.5515
      13    H8      21.205884   19.609980   20.176516 H          1 MOL1         0.3773
@<TRIPOS>BOND
    1     1     2    1
    2     1     3    1
    3     1     4    1
    4     4     5    1
    5     4     6    1
    6     4     7    1
    7     7     8    1
    8     1     9    1
    9     7     9    1
   10     9    10    1
   11     9    11    1
   12     7    12    1
   13    12    13    1
@<TRIPOS>SUBSTRUCTURE
       1 MOL1            1 RESIDUE      1      MOL     
@<SCITEGIC>MOL_PROPERTY
VConf Rank
SciTegic.value.IntegerValue
471

@<SCITEGIC>MOL_PROPERTY
Conf_Id
SciTegic.value.IntegerValue
22

@<SCITEGIC>MOL_PROPERTY
Delta U+W
SciTegic.value.DoubleValue
0.000

@<SCITEGIC>MOL_PROPERTY
U+W
SciTegic.value.DoubleValue
-3.131

@<SCITEGIC>MOL_PROPERTY
Grad RMS
SciTegic.value.DoubleValue
0.000000

@<SCITEGIC>MOL_PROPERTY
U
SciTegic.value.DoubleValue
-0.154

@<SCITEGIC>MOL_PROPERTY
W
SciTegic.value.DoubleValue
-2.978

@<SCITEGIC>MOL_PROPERTY
W(PB)
SciTegic.value.DoubleValue
-4.579

@<SCITEGIC>MOL_PROPERTY
W(SA)
SciTegic.value.DoubleValue
1.601

@<SCITEGIC>MOL_PROPERTY
Valence
SciTegic.value.DoubleValue
6.333

@<SCITEGIC>MOL_PROPERTY
Coulomb
SciTegic.value.DoubleValue
-7.439

@<SCITEGIC>MOL_PROPERTY
VdW
SciTegic.value.DoubleValue
0.952

@<SCITEGIC>MOL_PROPERTY
VdW6
SciTegic.value.DoubleValue
-2.120

@<SCITEGIC>MOL_PROPERTY
VdW12
SciTegic.value.DoubleValue
3.072

@<SCITEGIC>MOL_PROPERTY
Bond
SciTegic.value.DoubleValue
0.065

@<SCITEGIC>MOL_PROPERTY
Angle
SciTegic.value.DoubleValue
0.931

@<SCITEGIC>MOL_PROPERTY
Pdih
SciTegic.value.DoubleValue
5.338

@<SCITEGIC>MOL_PROPERTY
Idih
SciTegic.value.DoubleValue
0.000

@<SCITEGIC>MOL_PROPERTY
Tether
SciTegic.value.DoubleValue
0.000

@<TRIPOS>MOLECULE
guest-s16_confgen4.mol2 : confsearch ligand conformer 472
          13          13           1
SMALL
USER_CHARGES
 
@<TRIPOS>ATOM
       1    C1      18.920815   20.038906   22.253316 C.3        1 MOL1        -0.1693
       2    H1      19.347097   20.823785   22.891935 H          1 MOL1         0.0829
       3    H2      17.974854   20.402878   21.834962 H          1 MOL1         0.0829
       4    C2      18.882792   18.615895   22.902101 C.3        1 MOL1        -0.1768
       5    H3      18.183645   17.915181   22.428828 H          1 MOL1         0.0829
       6    H4      18.733533   18.584353   23.986951 H          1 MOL1         0.0829
       7    C3      20.357615   18.487455   22.414665 C.3        1 MOL1         0.1211
       8    H5      21.091966   18.948520   23.089356 H          1 MOL1         0.0786
       9    C4      19.925241   19.407672   21.233523 C.3        1 MOL1        -0.1768
      10    H6      19.456820   18.879395   20.393827 H          1 MOL1         0.0829
      11    H7      20.700204   20.075332   20.841575 H          1 MOL1         0.0829
      12    O1      20.760699   17.187987   22.049349 O.3        1 MOL1        -0.5515
      13    H8      20.846817   16.667022   22.876623 H          1 MOL1         0.3773
@<TRIPOS>BOND
    1     1     2    1
    2     1     3    1
    3     1     4    1
    4     4     5    1
    5     4     6    1
    6     4     7    1
    7     7     8    1
    8     1     9    1
    9     7     9    1
   10     9    10    1
   11     9    11    1
   12     7    12    1
   13    12    13    1
@<TRIPOS>SUBSTRUCTURE
       1 MOL1            1 RESIDUE      1      MOL     
@<SCITEGIC>MOL_PROPERTY
VConf Rank
SciTegic.value.IntegerValue
472

@<SCITEGIC>MOL_PROPERTY
Conf_Id
SciTegic.value.IntegerValue
19

@<SCITEGIC>MOL_PROPERTY
Delta U+W
SciTegic.value.DoubleValue
-0.011

@<SCITEGIC>MOL_PROPERTY
U+W
SciTegic.value.DoubleValue
-3.142

@<SCITEGIC>MOL_PROPERTY
Grad RMS
SciTegic.value.DoubleValue
0.000000

@<SCITEGIC>MOL_PROPERTY
U
SciTegic.value.DoubleValue
-0.154

@<SCITEGIC>MOL_PROPERTY
W
SciTegic.value.DoubleValue
-2.989

@<SCITEGIC>MOL_PROPERTY
W(PB)
SciTegic.value.DoubleValue
-4.588

@<SCITEGIC>MOL_PROPERTY
W(SA)
SciTegic.value.DoubleValue
1.599

@<SCITEGIC>MOL_PROPERTY
Valence
SciTegic.value.DoubleValue
6.334

@<SCITEGIC>MOL_PROPERTY
Coulomb
SciTegic.value.DoubleValue
-7.439

@<SCITEGIC>MOL_PROPERTY
VdW
SciTegic.value.DoubleValue
0.951

@<SCITEGIC>MOL_PROPERTY
VdW6
SciTegic.value.DoubleValue
-2.120

@<SCITEGIC>MOL_PROPERTY
VdW12
SciTegic.value.DoubleValue
3.072

@<SCITEGIC>MOL_PROPERTY
Bond
SciTegic.value.DoubleValue
0.065

@<SCITEGIC>MOL_PROPERTY
Angle
SciTegic.value.DoubleValue
0.930

@<SCITEGIC>MOL_PROPERTY
Pdih
SciTegic.value.DoubleValue
5.339

@<SCITEGIC>MOL_PROPERTY
Idih
SciTegic.value.DoubleValue
0.000

@<SCITEGIC>MOL_PROPERTY
Tether
SciTegic.value.DoubleValue
0.000

@<TRIPOS>MOLECULE
guest-s16_confgen4.mol2 : confsearch ligand conformer 473
          13          13           1
SMALL
USER_CHARGES
 
@<TRIPOS>ATOM
       1    C1      20.840239   19.287093   22.346483 C.3        1 MOL1        -0.1693
       2    H1      21.708670   19.352552   23.012456 H          1 MOL1         0.0829
       3    H2      21.178941   19.433177   21.312488 H          1 MOL1         0.0829
       4    C2      19.596628   20.146986   22.750199 C.3        1 MOL1        -0.1768
       5    H3      19.474641   20.291439   23.830485 H          1 MOL1         0.0829
       6    H4      19.502126   21.119095   22.253746 H          1 MOL1         0.0829
       7    C3      18.726617   18.995272   22.156848 C.3        1 MOL1         0.1211
       8    H5      17.786661   18.809951   22.692528 H          1 MOL1         0.0786
       9    C4      19.903684   18.051044   22.555649 C.3        1 MOL1        -0.1768
      10    H6      20.079872   17.197157   21.892184 H          1 MOL1         0.0829
      11    H7      19.856630   17.687005   23.589204 H          1 MOL1         0.0829
      12    O1      18.481328   19.090159   20.767973 O.3        1 MOL1        -0.5515
      13    H8      18.085651   18.238764   20.483857 H          1 MOL1         0.3773
@<TRIPOS>BOND
    1     1     2    1
    2     1     3    1
    3     1     4    1
    4     4     5    1
    5     4     6    1
    6     4     7    1
    7     7     8    1
    8     1     9    1
    9     7     9    1
   10     9    10    1
   11     9    11    1
   12     7    12    1
   13    12    13    1
@<TRIPOS>SUBSTRUCTURE
       1 MOL1            1 RESIDUE      1      MOL     
@<SCITEGIC>MOL_PROPERTY
VConf Rank
SciTegic.value.IntegerValue
473

@<SCITEGIC>MOL_PROPERTY
Conf_Id
SciTegic.value.IntegerValue
20

@<SCITEGIC>MOL_PROPERTY
Delta U+W
SciTegic.value.DoubleValue
1.030

@<SCITEGIC>MOL_PROPERTY
U+W
SciTegic.value.DoubleValue
-2.101

@<SCITEGIC>MOL_PROPERTY
Grad RMS
SciTegic.value.DoubleValue
0.000000

@<SCITEGIC>MOL_PROPERTY
U
SciTegic.value.DoubleValue
0.841

@<SCITEGIC>MOL_PROPERTY
W
SciTegic.value.DoubleValue
-2.942

@<SCITEGIC>MOL_PROPERTY
W(PB)
SciTegic.value.DoubleValue
-4.530

@<SCITEGIC>MOL_PROPERTY
W(SA)
SciTegic.value.DoubleValue
1.587

@<SCITEGIC>MOL_PROPERTY
Valence
SciTegic.value.DoubleValue
6.736

@<SCITEGIC>MOL_PROPERTY
Coulomb
SciTegic.value.DoubleValue
-7.246

@<SCITEGIC>MOL_PROPERTY
VdW
SciTegic.value.DoubleValue
1.352

@<SCITEGIC>MOL_PROPERTY
VdW6
SciTegic.value.DoubleValue
-2.500

@<SCITEGIC>MOL_PROPERTY
VdW12
SciTegic.value.DoubleValue
3.851

@<SCITEGIC>MOL_PROPERTY
Bond
SciTegic.value.DoubleValue
0.063

@<SCITEGIC>MOL_PROPERTY
Angle
SciTegic.value.DoubleValue
0.687

@<SCITEGIC>MOL_PROPERTY
Pdih
SciTegic.value.DoubleValue
5.986

@<SCITEGIC>MOL_PROPERTY
Idih
SciTegic.value.DoubleValue
0.000

@<SCITEGIC>MOL_PROPERTY
Tether
SciTegic.value.DoubleValue
0.000

@<TRIPOS>MOLECULE
guest-s16_confgen4.mol2 : confsearch ligand conformer 474
          13          13           1
SMALL
USER_CHARGES
 
@<TRIPOS>ATOM
       1    C1      20.080786   18.489900   23.359554 C.3        1 MOL1        -0.1693
       2    H1      20.794003   17.655621   23.390676 H          1 MOL1         0.0829
       3    H2      19.801363   18.749969   24.387518 H          1 MOL1         0.0829
       4    C2      18.898366   18.302241   22.352566 C.3        1 MOL1        -0.1768
       5    H3      18.552928   17.273680   22.200824 H          1 MOL1         0.0829
       6    H4      18.027665   18.941126   22.545160 H          1 MOL1         0.0829
       7    C3      19.887277   18.849282   21.279272 C.3        1 MOL1         0.1211
       8    H5      20.563171   18.086931   20.868564 H          1 MOL1         0.0786
       9    C4      20.508415   19.681971   22.441155 C.3        1 MOL1        -0.1768
      10    H6      19.997580   20.629242   22.653550 H          1 MOL1         0.0829
      11    H7      21.584894   19.871922   22.367648 H          1 MOL1         0.0829
      12    O1      19.300235   19.600812   20.243705 O.3        1 MOL1        -0.5515
      13    H8      18.711921   20.260139   20.667844 H          1 MOL1         0.3773
@<TRIPOS>BOND
    1     1     2    1
    2     1     3    1
    3     1     4    1
    4     4     5    1
    5     4     6    1
    6     4     7    1
    7     7     8    1
    8     1     9    1
    9     7     9    1
   10     9    10    1
   11     9    11    1
   12     7    12    1
   13    12    13    1
@<TRIPOS>SUBSTRUCTURE
       1 MOL1            1 RESIDUE      1      MOL     
@<SCITEGIC>MOL_PROPERTY
VConf Rank
SciTegic.value.IntegerValue
474

@<SCITEGIC>MOL_PROPERTY
Conf_Id
SciTegic.value.IntegerValue
24

@<SCITEGIC>MOL_PROPERTY
Delta U+W
SciTegic.value.DoubleValue
0.356

@<SCITEGIC>MOL_PROPERTY
U+W
SciTegic.value.DoubleValue
-2.775

@<SCITEGIC>MOL_PROPERTY
Grad RMS
SciTegic.value.DoubleValue
0.000000

@<SCITEGIC>MOL_PROPERTY
U
SciTegic.value.DoubleValue
-0.184

@<SCITEGIC>MOL_PROPERTY
W
SciTegic.value.DoubleValue
-2.591

@<SCITEGIC>MOL_PROPERTY
W(PB)
SciTegic.value.DoubleValue
-4.184

@<SCITEGIC>MOL_PROPERTY
W(SA)
SciTegic.value.DoubleValue
1.593

@<SCITEGIC>MOL_PROPERTY
Valence
SciTegic.value.DoubleValue
6.840

@<SCITEGIC>MOL_PROPERTY
Coulomb
SciTegic.value.DoubleValue
-7.916

@<SCITEGIC>MOL_PROPERTY
VdW
SciTegic.value.DoubleValue
0.893

@<SCITEGIC>MOL_PROPERTY
VdW6
SciTegic.value.DoubleValue
-2.167

@<SCITEGIC>MOL_PROPERTY
VdW12
SciTegic.value.DoubleValue
3.060

@<SCITEGIC>MOL_PROPERTY
Bond
SciTegic.value.DoubleValue
0.059

@<SCITEGIC>MOL_PROPERTY
Angle
SciTegic.value.DoubleValue
0.918

@<SCITEGIC>MOL_PROPERTY
Pdih
SciTegic.value.DoubleValue
5.862

@<SCITEGIC>MOL_PROPERTY
Idih
SciTegic.value.DoubleValue
0.000

@<SCITEGIC>MOL_PROPERTY
Tether
SciTegic.value.DoubleValue
0.000

@<TRIPOS>MOLECULE
guest-s16_confgen4.mol2 : confsearch ligand conformer 475
          13          13           1
SMALL
USER_CHARGES
 
@<TRIPOS>ATOM
       1    C1      19.753857   19.418942   21.179018 C.3        1 MOL1        -0.1693
       2    H1      19.808319   20.344499   20.593568 H          1 MOL1         0.0829
       3    H2      19.760357   18.568954   20.484919 H          1 MOL1         0.0829
       4    C2      18.636244   19.366590   22.273704 C.3        1 MOL1        -0.1768
       5    H3      18.383901   20.340354   22.710877 H          1 MOL1         0.0829
       6    H4      17.706399   18.860372   21.991143 H          1 MOL1         0.0829
       7    C3      19.637951   18.526970   23.125533 C.3        1 MOL1         0.1211
       8    H5      19.593977   18.714597   24.205973 H          1 MOL1         0.0786
       9    C4      20.761536   19.303209   22.371212 C.3        1 MOL1        -0.1768
      10    H6      21.030285   20.261434   22.832291 H          1 MOL1         0.0829
      11    H7      21.681578   18.741827   22.173521 H          1 MOL1         0.0829
      12    O1      19.608006   17.138331   22.875506 O.3        1 MOL1        -0.5515
      13    H8      19.649447   17.031890   21.902743 H          1 MOL1         0.3773
@<TRIPOS>BOND
    1     1     2    1
    2     1     3    1
    3     1     4    1
    4     4     5    1
    5     4     6    1
    6     4     7    1
    7     7     8    1
    8     1     9    1
    9     7     9    1
   10     9    10    1
   11     9    11    1
   12     7    12    1
   13    12    13    1
@<TRIPOS>SUBSTRUCTURE
       1 MOL1            1 RESIDUE      1      MOL     
@<SCITEGIC>MOL_PROPERTY
VConf Rank
SciTegic.value.IntegerValue
475

@<SCITEGIC>MOL_PROPERTY
Conf_Id
SciTegic.value.IntegerValue
44

@<SCITEGIC>MOL_PROPERTY
Delta U+W
SciTegic.value.DoubleValue
0.823

@<SCITEGIC>MOL_PROPERTY
U+W
SciTegic.value.DoubleValue
-2.308

@<SCITEGIC>MOL_PROPERTY
Grad RMS
SciTegic.value.DoubleValue
0.000000

@<SCITEGIC>MOL_PROPERTY
U
SciTegic.value.DoubleValue
0.039

@<SCITEGIC>MOL_PROPERTY
W
SciTegic.value.DoubleValue
-2.348

@<SCITEGIC>MOL_PROPERTY
W(PB)
SciTegic.value.DoubleValue
-3.918

@<SCITEGIC>MOL_PROPERTY
W(SA)
SciTegic.value.DoubleValue
1.571

@<SCITEGIC>MOL_PROPERTY
Valence
SciTegic.value.DoubleValue
7.320

@<SCITEGIC>MOL_PROPERTY
Coulomb
SciTegic.value.DoubleValue
-8.530

@<SCITEGIC>MOL_PROPERTY
VdW
SciTegic.value.DoubleValue
1.249

@<SCITEGIC>MOL_PROPERTY
VdW6
SciTegic.value.DoubleValue
-2.615

@<SCITEGIC>MOL_PROPERTY
VdW12
SciTegic.value.DoubleValue
3.864

@<SCITEGIC>MOL_PROPERTY
Bond
SciTegic.value.DoubleValue
0.056

@<SCITEGIC>MOL_PROPERTY
Angle
SciTegic.value.DoubleValue
0.694

@<SCITEGIC>MOL_PROPERTY
Pdih
SciTegic.value.DoubleValue
6.570

@<SCITEGIC>MOL_PROPERTY
Idih
SciTegic.value.DoubleValue
0.000

@<SCITEGIC>MOL_PROPERTY
Tether
SciTegic.value.DoubleValue
0.000

@<TRIPOS>MOLECULE
guest-s16_confgen4.mol2 : confsearch ligand conformer 476
          13          13           1
SMALL
USER_CHARGES
 
@<TRIPOS>ATOM
       1    C1      20.524551   19.013628   23.250959 C.3        1 MOL1        -0.1693
       2    H1      20.324920   19.772786   24.018691 H          1 MOL1         0.0829
       3    H2      21.373925   18.401196   23.576271 H          1 MOL1         0.0829
       4    C2      20.595115   19.564644   21.788527 C.3        1 MOL1        -0.1768
       5    H3      20.988043   20.580615   21.672893 H          1 MOL1         0.0829
       6    H4      21.103229   18.906180   21.073103 H          1 MOL1         0.0829
       7    C3      19.042021   19.435370   21.794374 C.3        1 MOL1         0.1211
       8    H5      18.528305   20.289503   22.256558 H          1 MOL1         0.0786
       9    C4      19.261847   18.231607   22.759686 C.3        1 MOL1        -0.1768
      10    H6      18.476158   18.067197   23.505228 H          1 MOL1         0.0829
      11    H7      19.478616   17.279629   22.259143 H          1 MOL1         0.0829
      12    O1      18.459774   19.113662   20.552586 O.3        1 MOL1        -0.5515
      13    H8      17.516224   18.901888   20.720123 H          1 MOL1         0.3773
@<TRIPOS>BOND
    1     1     2    1
    2     1     3    1
    3     1     4    1
    4     4     5    1
    5     4     6    1
    6     4     7    1
    7     7     8    1
    8     1     9    1
    9     7     9    1
   10     9    10    1
   11     9    11    1
   12     7    12    1
   13    12    13    1
@<TRIPOS>SUBSTRUCTURE
       1 MOL1            1 RESIDUE      1      MOL     
@<SCITEGIC>MOL_PROPERTY
VConf Rank
SciTegic.value.IntegerValue
476

@<SCITEGIC>MOL_PROPERTY
Conf_Id
SciTegic.value.IntegerValue
22

@<SCITEGIC>MOL_PROPERTY
Delta U+W
SciTegic.value.DoubleValue
0.000

@<SCITEGIC>MOL_PROPERTY
U+W
SciTegic.value.DoubleValue
-3.131

@<SCITEGIC>MOL_PROPERTY
Grad RMS
SciTegic.value.DoubleValue
0.000000

@<SCITEGIC>MOL_PROPERTY
U
SciTegic.value.DoubleValue
-0.154

@<SCITEGIC>MOL_PROPERTY
W
SciTegic.value.DoubleValue
-2.978

@<SCITEGIC>MOL_PROPERTY
W(PB)
SciTegic.value.DoubleValue
-4.579

@<SCITEGIC>MOL_PROPERTY
W(SA)
SciTegic.value.DoubleValue
1.601

@<SCITEGIC>MOL_PROPERTY
Valence
SciTegic.value.DoubleValue
6.333

@<SCITEGIC>MOL_PROPERTY
Coulomb
SciTegic.value.DoubleValue
-7.439

@<SCITEGIC>MOL_PROPERTY
VdW
SciTegic.value.DoubleValue
0.952

@<SCITEGIC>MOL_PROPERTY
VdW6
SciTegic.value.DoubleValue
-2.120

@<SCITEGIC>MOL_PROPERTY
VdW12
SciTegic.value.DoubleValue
3.072

@<SCITEGIC>MOL_PROPERTY
Bond
SciTegic.value.DoubleValue
0.065

@<SCITEGIC>MOL_PROPERTY
Angle
SciTegic.value.DoubleValue
0.931

@<SCITEGIC>MOL_PROPERTY
Pdih
SciTegic.value.DoubleValue
5.338

@<SCITEGIC>MOL_PROPERTY
Idih
SciTegic.value.DoubleValue
0.000

@<SCITEGIC>MOL_PROPERTY
Tether
SciTegic.value.DoubleValue
0.000

@<TRIPOS>MOLECULE
guest-s16_confgen4.mol2 : confsearch ligand conformer 477
          13          13           1
SMALL
USER_CHARGES
 
@<TRIPOS>ATOM
       1    C1      20.812823   18.922126   21.662148 C.3        1 MOL1        -0.1693
       2    H1      21.643358   19.102331   22.357364 H          1 MOL1         0.0829
       3    H2      21.217699   18.839459   20.646481 H          1 MOL1         0.0829
       4    C2      19.591100   19.883145   21.838682 C.3        1 MOL1        -0.1768
       5    H3      18.920284   19.935274   20.972032 H          1 MOL1         0.0829
       6    H4      19.822732   20.902258   22.167209 H          1 MOL1         0.0829
       7    C3      19.131709   18.896893   22.954684 C.3        1 MOL1         0.1211
       8    H5      19.610628   19.070639   23.928085 H          1 MOL1         0.0786
       9    C4      19.824800   17.791772   22.101938 C.3        1 MOL1        -0.1768
      10    H6      19.203640   17.384287   21.294658 H          1 MOL1         0.0829
      11    H7      20.261511   16.959663   22.664823 H          1 MOL1         0.0829
      12    O1      17.737352   18.759047   23.100690 O.3        1 MOL1        -0.5515
      13    H8      17.404462   19.587485   23.508216 H          1 MOL1         0.3773
@<TRIPOS>BOND
    1     1     2    1
    2     1     3    1
    3     1     4    1
    4     4     5    1
    5     4     6    1
    6     4     7    1
    7     7     8    1
    8     1     9    1
    9     7     9    1
   10     9    10    1
   11     9    11    1
   12     7    12    1
   13    12    13    1
@<TRIPOS>SUBSTRUCTURE
       1 MOL1            1 RESIDUE      1      MOL     
@<SCITEGIC>MOL_PROPERTY
VConf Rank
SciTegic.value.IntegerValue
477

@<SCITEGIC>MOL_PROPERTY
Conf_Id
SciTegic.value.IntegerValue
19

@<SCITEGIC>MOL_PROPERTY
Delta U+W
SciTegic.value.DoubleValue
-0.011

@<SCITEGIC>MOL_PROPERTY
U+W
SciTegic.value.DoubleValue
-3.142

@<SCITEGIC>MOL_PROPERTY
Grad RMS
SciTegic.value.DoubleValue
0.000000

@<SCITEGIC>MOL_PROPERTY
U
SciTegic.value.DoubleValue
-0.154

@<SCITEGIC>MOL_PROPERTY
W
SciTegic.value.DoubleValue
-2.989

@<SCITEGIC>MOL_PROPERTY
W(PB)
SciTegic.value.DoubleValue
-4.588

@<SCITEGIC>MOL_PROPERTY
W(SA)
SciTegic.value.DoubleValue
1.599

@<SCITEGIC>MOL_PROPERTY
Valence
SciTegic.value.DoubleValue
6.334

@<SCITEGIC>MOL_PROPERTY
Coulomb
SciTegic.value.DoubleValue
-7.439

@<SCITEGIC>MOL_PROPERTY
VdW
SciTegic.value.DoubleValue
0.951

@<SCITEGIC>MOL_PROPERTY
VdW6
SciTegic.value.DoubleValue
-2.120

@<SCITEGIC>MOL_PROPERTY
VdW12
SciTegic.value.DoubleValue
3.072

@<SCITEGIC>MOL_PROPERTY
Bond
SciTegic.value.DoubleValue
0.065

@<SCITEGIC>MOL_PROPERTY
Angle
SciTegic.value.DoubleValue
0.930

@<SCITEGIC>MOL_PROPERTY
Pdih
SciTegic.value.DoubleValue
5.339

@<SCITEGIC>MOL_PROPERTY
Idih
SciTegic.value.DoubleValue
0.000

@<SCITEGIC>MOL_PROPERTY
Tether
SciTegic.value.DoubleValue
0.000

@<TRIPOS>MOLECULE
guest-s16_confgen4.mol2 : confsearch ligand conformer 478
          13          13           1
SMALL
USER_CHARGES
 
@<TRIPOS>ATOM
       1    C1      20.768863   19.070428   21.805091 C.3        1 MOL1        -0.1693
       2    H1      21.536715   18.482419   21.288733 H          1 MOL1         0.0829
       3    H2      21.119817   20.107002   21.892000 H          1 MOL1         0.0829
       4    C2      20.211746   18.459764   23.133881 C.3        1 MOL1        -0.1768
       5    H3      20.202433   17.363458   23.162015 H          1 MOL1         0.0829
       6    H4      20.664005   18.830296   24.060468 H          1 MOL1         0.0829
       7    C3      18.843562   19.101000   22.743602 C.3        1 MOL1         0.1211
       8    H5      17.963917   18.507663   23.024647 H          1 MOL1         0.0786
       9    C4      19.307998   18.921508   21.264353 C.3        1 MOL1        -0.1768
      10    H6      18.975588   19.692146   20.560099 H          1 MOL1         0.0829
      11    H7      19.079799   17.936802   20.838616 H          1 MOL1         0.0829
      12    O1      18.675282   20.441855   23.158253 O.3        1 MOL1        -0.5515
      13    H8      17.871961   20.785356   22.712342 H          1 MOL1         0.3773
@<TRIPOS>BOND
    1     1     2    1
    2     1     3    1
    3     1     4    1
    4     4     5    1
    5     4     6    1
    6     4     7    1
    7     7     8    1
    8     1     9    1
    9     7     9    1
   10     9    10    1
   11     9    11    1
   12     7    12    1
   13    12    13    1
@<TRIPOS>SUBSTRUCTURE
       1 MOL1            1 RESIDUE      1      MOL     
@<SCITEGIC>MOL_PROPERTY
VConf Rank
SciTegic.value.IntegerValue
478

@<SCITEGIC>MOL_PROPERTY
Conf_Id
SciTegic.value.IntegerValue
20

@<SCITEGIC>MOL_PROPERTY
Delta U+W
SciTegic.value.DoubleValue
1.030

@<SCITEGIC>MOL_PROPERTY
U+W
SciTegic.value.DoubleValue
-2.101

@<SCITEGIC>MOL_PROPERTY
Grad RMS
SciTegic.value.DoubleValue
0.000000

@<SCITEGIC>MOL_PROPERTY
U
SciTegic.value.DoubleValue
0.841

@<SCITEGIC>MOL_PROPERTY
W
SciTegic.value.DoubleValue
-2.942

@<SCITEGIC>MOL_PROPERTY
W(PB)
SciTegic.value.DoubleValue
-4.530

@<SCITEGIC>MOL_PROPERTY
W(SA)
SciTegic.value.DoubleValue
1.587

@<SCITEGIC>MOL_PROPERTY
Valence
SciTegic.value.DoubleValue
6.736

@<SCITEGIC>MOL_PROPERTY
Coulomb
SciTegic.value.DoubleValue
-7.246

@<SCITEGIC>MOL_PROPERTY
VdW
SciTegic.value.DoubleValue
1.352

@<SCITEGIC>MOL_PROPERTY
VdW6
SciTegic.value.DoubleValue
-2.500

@<SCITEGIC>MOL_PROPERTY
VdW12
SciTegic.value.DoubleValue
3.851

@<SCITEGIC>MOL_PROPERTY
Bond
SciTegic.value.DoubleValue
0.063

@<SCITEGIC>MOL_PROPERTY
Angle
SciTegic.value.DoubleValue
0.687

@<SCITEGIC>MOL_PROPERTY
Pdih
SciTegic.value.DoubleValue
5.986

@<SCITEGIC>MOL_PROPERTY
Idih
SciTegic.value.DoubleValue
0.000

@<SCITEGIC>MOL_PROPERTY
Tether
SciTegic.value.DoubleValue
0.000

@<TRIPOS>MOLECULE
guest-s16_confgen4.mol2 : confsearch ligand conformer 479
          13          13           1
SMALL
USER_CHARGES
 
@<TRIPOS>ATOM
       1    C1      19.651063   18.468892   23.394940 C.3        1 MOL1        -0.1693
       2    H1      20.140512   19.010835   24.214944 H          1 MOL1         0.0829
       3    H2      19.160945   17.578783   23.807144 H          1 MOL1         0.0829
       4    C2      20.549966   18.237367   22.135684 C.3        1 MOL1        -0.1768
       5    H3      21.620574   18.103143   22.325617 H          1 MOL1         0.0829
       6    H4      20.207334   17.435425   21.470192 H          1 MOL1         0.0829
       7    C3      20.112558   19.671906   21.711506 C.3        1 MOL1         0.1211
       8    H5      20.702658   20.472333   22.178188 H          1 MOL1         0.0786
       9    C4      18.777022   19.360047   22.451939 C.3        1 MOL1        -0.1768
      10    H6      18.038115   18.809037   21.857134 H          1 MOL1         0.0829
      11    H7      18.281850   20.217320   22.921171 H          1 MOL1         0.0829
      12    O1      19.999397   19.883945   20.324404 O.3        1 MOL1        -0.5515
      13    H8      19.466609   19.143804   19.965171 H          1 MOL1         0.3773
@<TRIPOS>BOND
    1     1     2    1
    2     1     3    1
    3     1     4    1
    4     4     5    1
    5     4     6    1
    6     4     7    1
    7     7     8    1
    8     1     9    1
    9     7     9    1
   10     9    10    1
   11     9    11    1
   12     7    12    1
   13    12    13    1
@<TRIPOS>SUBSTRUCTURE
       1 MOL1            1 RESIDUE      1      MOL     
@<SCITEGIC>MOL_PROPERTY
VConf Rank
SciTegic.value.IntegerValue
479

@<SCITEGIC>MOL_PROPERTY
Conf_Id
SciTegic.value.IntegerValue
24

@<SCITEGIC>MOL_PROPERTY
Delta U+W
SciTegic.value.DoubleValue
0.356

@<SCITEGIC>MOL_PROPERTY
U+W
SciTegic.value.DoubleValue
-2.775

@<SCITEGIC>MOL_PROPERTY
Grad RMS
SciTegic.value.DoubleValue
0.000000

@<SCITEGIC>MOL_PROPERTY
U
SciTegic.value.DoubleValue
-0.184

@<SCITEGIC>MOL_PROPERTY
W
SciTegic.value.DoubleValue
-2.591

@<SCITEGIC>MOL_PROPERTY
W(PB)
SciTegic.value.DoubleValue
-4.184

@<SCITEGIC>MOL_PROPERTY
W(SA)
SciTegic.value.DoubleValue
1.593

@<SCITEGIC>MOL_PROPERTY
Valence
SciTegic.value.DoubleValue
6.840

@<SCITEGIC>MOL_PROPERTY
Coulomb
SciTegic.value.DoubleValue
-7.916

@<SCITEGIC>MOL_PROPERTY
VdW
SciTegic.value.DoubleValue
0.893

@<SCITEGIC>MOL_PROPERTY
VdW6
SciTegic.value.DoubleValue
-2.167

@<SCITEGIC>MOL_PROPERTY
VdW12
SciTegic.value.DoubleValue
3.060

@<SCITEGIC>MOL_PROPERTY
Bond
SciTegic.value.DoubleValue
0.059

@<SCITEGIC>MOL_PROPERTY
Angle
SciTegic.value.DoubleValue
0.918

@<SCITEGIC>MOL_PROPERTY
Pdih
SciTegic.value.DoubleValue
5.862

@<SCITEGIC>MOL_PROPERTY
Idih
SciTegic.value.DoubleValue
0.000

@<SCITEGIC>MOL_PROPERTY
Tether
SciTegic.value.DoubleValue
0.000

@<TRIPOS>MOLECULE
guest-s16_confgen4.mol2 : confsearch ligand conformer 480
          13          13           1
SMALL
USER_CHARGES
 
@<TRIPOS>ATOM
       1    C1      19.978448   19.042156   23.295299 C.3        1 MOL1        -0.1693
       2    H1      20.331417   18.497227   24.178949 H          1 MOL1         0.0829
       3    H2      19.842786   20.096084   23.569392 H          1 MOL1         0.0829
       4    C2      18.772268   18.399798   22.531986 C.3        1 MOL1        -0.1768
       5    H3      18.731459   17.305169   22.588002 H          1 MOL1         0.0829
       6    H4      17.780351   18.797950   22.773408 H          1 MOL1         0.0829
       7    C3      19.426759   18.946167   21.225420 C.3        1 MOL1         0.1211
       8    H5      19.314819   18.296871   20.347712 H          1 MOL1         0.0786
       9    C4      20.786849   18.803634   21.976310 C.3        1 MOL1        -0.1768
      10    H6      21.239985   17.808021   21.896083 H          1 MOL1         0.0829
      11    H7      21.548453   19.553290   21.734064 H          1 MOL1         0.0829
      12    O1      19.069856   20.270786   20.894161 O.3        1 MOL1        -0.5515
      13    H8      19.188407   20.800819   21.709222 H          1 MOL1         0.3773
@<TRIPOS>BOND
    1     1     2    1
    2     1     3    1
    3     1     4    1
    4     4     5    1
    5     4     6    1
    6     4     7    1
    7     7     8    1
    8     1     9    1
    9     7     9    1
   10     9    10    1
   11     9    11    1
   12     7    12    1
   13    12    13    1
@<TRIPOS>SUBSTRUCTURE
       1 MOL1            1 RESIDUE      1      MOL     
@<SCITEGIC>MOL_PROPERTY
VConf Rank
SciTegic.value.IntegerValue
480

@<SCITEGIC>MOL_PROPERTY
Conf_Id
SciTegic.value.IntegerValue
44

@<SCITEGIC>MOL_PROPERTY
Delta U+W
SciTegic.value.DoubleValue
0.823

@<SCITEGIC>MOL_PROPERTY
U+W
SciTegic.value.DoubleValue
-2.308

@<SCITEGIC>MOL_PROPERTY
Grad RMS
SciTegic.value.DoubleValue
0.000000

@<SCITEGIC>MOL_PROPERTY
U
SciTegic.value.DoubleValue
0.039

@<SCITEGIC>MOL_PROPERTY
W
SciTegic.value.DoubleValue
-2.348

@<SCITEGIC>MOL_PROPERTY
W(PB)
SciTegic.value.DoubleValue
-3.918

@<SCITEGIC>MOL_PROPERTY
W(SA)
SciTegic.value.DoubleValue
1.571

@<SCITEGIC>MOL_PROPERTY
Valence
SciTegic.value.DoubleValue
7.320

@<SCITEGIC>MOL_PROPERTY
Coulomb
SciTegic.value.DoubleValue
-8.530

@<SCITEGIC>MOL_PROPERTY
VdW
SciTegic.value.DoubleValue
1.249

@<SCITEGIC>MOL_PROPERTY
VdW6
SciTegic.value.DoubleValue
-2.615

@<SCITEGIC>MOL_PROPERTY
VdW12
SciTegic.value.DoubleValue
3.864

@<SCITEGIC>MOL_PROPERTY
Bond
SciTegic.value.DoubleValue
0.056

@<SCITEGIC>MOL_PROPERTY
Angle
SciTegic.value.DoubleValue
0.694

@<SCITEGIC>MOL_PROPERTY
Pdih
SciTegic.value.DoubleValue
6.570

@<SCITEGIC>MOL_PROPERTY
Idih
SciTegic.value.DoubleValue
0.000

@<SCITEGIC>MOL_PROPERTY
Tether
SciTegic.value.DoubleValue
0.000

@<TRIPOS>MOLECULE
guest-s16_confgen4.mol2 : confsearch ligand conformer 481
          13          13           1
SMALL
USER_CHARGES
 
@<TRIPOS>ATOM
       1    C1      18.621950   18.918333   21.452465 C.3        1 MOL1        -0.1693
       2    H1      18.888489   18.843365   20.389958 H          1 MOL1         0.0829
       3    H2      17.534725   18.813830   21.549206 H          1 MOL1         0.0829
       4    C2      19.265268   20.129818   22.204630 C.3        1 MOL1        -0.1768
       5    H3      19.425261   21.037233   21.612211 H          1 MOL1         0.0829
       6    H4      18.768626   20.404328   23.143553 H          1 MOL1         0.0829
       7    C3      20.508263   19.205825   22.377977 C.3        1 MOL1         0.1211
       8    H5      21.175993   19.193517   21.505597 H          1 MOL1         0.0786
       9    C4      19.485294   18.030319   22.408182 C.3        1 MOL1        -0.1768
      10    H6      19.838079   17.079029   21.994950 H          1 MOL1         0.0829
      11    H7      19.034908   17.843157   23.390993 H          1 MOL1         0.0829
      12    O1      21.240688   19.398150   23.565878 O.3        1 MOL1        -0.5515
      13    H8      21.885183   18.661004   23.632542 H          1 MOL1         0.3773
@<TRIPOS>BOND
    1     1     2    1
    2     1     3    1
    3     1     4    1
    4     4     5    1
    5     4     6    1
    6     4     7    1
    7     7     8    1
    8     1     9    1
    9     7     9    1
   10     9    10    1
   11     9    11    1
   12     7    12    1
   13    12    13    1
@<TRIPOS>SUBSTRUCTURE
       1 MOL1            1 RESIDUE      1      MOL     
@<SCITEGIC>MOL_PROPERTY
VConf Rank
SciTegic.value.IntegerValue
481

@<SCITEGIC>MOL_PROPERTY
Conf_Id
SciTegic.value.IntegerValue
22

@<SCITEGIC>MOL_PROPERTY
Delta U+W
SciTegic.value.DoubleValue
0.000

@<SCITEGIC>MOL_PROPERTY
U+W
SciTegic.value.DoubleValue
-3.131

@<SCITEGIC>MOL_PROPERTY
Grad RMS
SciTegic.value.DoubleValue
0.000000

@<SCITEGIC>MOL_PROPERTY
U
SciTegic.value.DoubleValue
-0.154

@<SCITEGIC>MOL_PROPERTY
W
SciTegic.value.DoubleValue
-2.978

@<SCITEGIC>MOL_PROPERTY
W(PB)
SciTegic.value.DoubleValue
-4.579

@<SCITEGIC>MOL_PROPERTY
W(SA)
SciTegic.value.DoubleValue
1.601

@<SCITEGIC>MOL_PROPERTY
Valence
SciTegic.value.DoubleValue
6.333

@<SCITEGIC>MOL_PROPERTY
Coulomb
SciTegic.value.DoubleValue
-7.439

@<SCITEGIC>MOL_PROPERTY
VdW
SciTegic.value.DoubleValue
0.952

@<SCITEGIC>MOL_PROPERTY
VdW6
SciTegic.value.DoubleValue
-2.120

@<SCITEGIC>MOL_PROPERTY
VdW12
SciTegic.value.DoubleValue
3.072

@<SCITEGIC>MOL_PROPERTY
Bond
SciTegic.value.DoubleValue
0.065

@<SCITEGIC>MOL_PROPERTY
Angle
SciTegic.value.DoubleValue
0.931

@<SCITEGIC>MOL_PROPERTY
Pdih
SciTegic.value.DoubleValue
5.338

@<SCITEGIC>MOL_PROPERTY
Idih
SciTegic.value.DoubleValue
0.000

@<SCITEGIC>MOL_PROPERTY
Tether
SciTegic.value.DoubleValue
0.000

@<TRIPOS>MOLECULE
guest-s16_confgen4.mol2 : confsearch ligand conformer 482
          13          13           1
SMALL
USER_CHARGES
 
@<TRIPOS>ATOM
       1    C1      18.592201   18.429382   21.598470 C.3        1 MOL1        -0.1693
       2    H1      18.305883   19.017132   20.716338 H          1 MOL1         0.0829
       3    H2      17.879518   17.604433   21.716288 H          1 MOL1         0.0829
       4    C2      18.882923   19.274825   22.882228 C.3        1 MOL1        -0.1768
       5    H3      18.845025   18.709166   23.821583 H          1 MOL1         0.0829
       6    H4      18.295322   20.192042   22.998891 H          1 MOL1         0.0829
       7    C3      20.314169   19.454701   22.291996 C.3        1 MOL1         0.1211
       8    H5      20.392616   20.261875   21.550796 H          1 MOL1         0.0786
       9    C4      20.106796   18.043402   21.664240 C.3        1 MOL1        -0.1768
      10    H6      20.339696   17.208326   22.336542 H          1 MOL1         0.0829
      11    H7      20.604323   17.871677   20.703543 H          1 MOL1         0.0829
      12    O1      21.350812   19.545038   23.241606 O.3        1 MOL1        -0.5515
      13    H8      21.272815   20.422381   23.674490 H          1 MOL1         0.3773
@<TRIPOS>BOND
    1     1     2    1
    2     1     3    1
    3     1     4    1
    4     4     5    1
    5     4     6    1
    6     4     7    1
    7     7     8    1
    8     1     9    1
    9     7     9    1
   10     9    10    1
   11     9    11    1
   12     7    12    1
   13    12    13    1
@<TRIPOS>SUBSTRUCTURE
       1 MOL1            1 RESIDUE      1      MOL     
@<SCITEGIC>MOL_PROPERTY
VConf Rank
SciTegic.value.IntegerValue
482

@<SCITEGIC>MOL_PROPERTY
Conf_Id
SciTegic.value.IntegerValue
19

@<SCITEGIC>MOL_PROPERTY
Delta U+W
SciTegic.value.DoubleValue
-0.011

@<SCITEGIC>MOL_PROPERTY
U+W
SciTegic.value.DoubleValue
-3.142

@<SCITEGIC>MOL_PROPERTY
Grad RMS
SciTegic.value.DoubleValue
0.000000

@<SCITEGIC>MOL_PROPERTY
U
SciTegic.value.DoubleValue
-0.154

@<SCITEGIC>MOL_PROPERTY
W
SciTegic.value.DoubleValue
-2.989

@<SCITEGIC>MOL_PROPERTY
W(PB)
SciTegic.value.DoubleValue
-4.588

@<SCITEGIC>MOL_PROPERTY
W(SA)
SciTegic.value.DoubleValue
1.599

@<SCITEGIC>MOL_PROPERTY
Valence
SciTegic.value.DoubleValue
6.334

@<SCITEGIC>MOL_PROPERTY
Coulomb
SciTegic.value.DoubleValue
-7.439

@<SCITEGIC>MOL_PROPERTY
VdW
SciTegic.value.DoubleValue
0.951

@<SCITEGIC>MOL_PROPERTY
VdW6
SciTegic.value.DoubleValue
-2.120

@<SCITEGIC>MOL_PROPERTY
VdW12
SciTegic.value.DoubleValue
3.072

@<SCITEGIC>MOL_PROPERTY
Bond
SciTegic.value.DoubleValue
0.065

@<SCITEGIC>MOL_PROPERTY
Angle
SciTegic.value.DoubleValue
0.930

@<SCITEGIC>MOL_PROPERTY
Pdih
SciTegic.value.DoubleValue
5.339

@<SCITEGIC>MOL_PROPERTY
Idih
SciTegic.value.DoubleValue
0.000

@<SCITEGIC>MOL_PROPERTY
Tether
SciTegic.value.DoubleValue
0.000

@<TRIPOS>MOLECULE
guest-s16_confgen4.mol2 : confsearch ligand conformer 483
          13          13           1
SMALL
USER_CHARGES
 
@<TRIPOS>ATOM
       1    C1      20.091776   19.899885   21.511703 C.3        1 MOL1        -0.1693
       2    H1      20.826509   20.705263   21.395471 H          1 MOL1         0.0829
       3    H2      19.596484   19.734441   20.546032 H          1 MOL1         0.0829
       4    C2      19.116124   20.028315   22.728495 C.3        1 MOL1        -0.1768
       5    H3      19.541172   20.539897   23.600495 H          1 MOL1         0.0829
       6    H4      18.132803   20.460907   22.513233 H          1 MOL1         0.0829
       7    C3      19.167902   18.470869   22.812815 C.3        1 MOL1         0.1211
       8    H5      19.130203   18.066797   23.832676 H          1 MOL1         0.0786
       9    C4      20.602932   18.597271   22.212143 C.3        1 MOL1        -0.1768
      10    H6      20.917806   17.785924   21.546619 H          1 MOL1         0.0829
      11    H7      21.389156   18.762111   22.958905 H          1 MOL1         0.0829
      12    O1      18.233687   17.799365   21.991554 O.3        1 MOL1        -0.5515
      13    H8      18.475132   16.848653   21.993957 H          1 MOL1         0.3773
@<TRIPOS>BOND
    1     1     2    1
    2     1     3    1
    3     1     4    1
    4     4     5    1
    5     4     6    1
    6     4     7    1
    7     7     8    1
    8     1     9    1
    9     7     9    1
   10     9    10    1
   11     9    11    1
   12     7    12    1
   13    12    13    1
@<TRIPOS>SUBSTRUCTURE
       1 MOL1            1 RESIDUE      1      MOL     
@<SCITEGIC>MOL_PROPERTY
VConf Rank
SciTegic.value.IntegerValue
483

@<SCITEGIC>MOL_PROPERTY
Conf_Id
SciTegic.value.IntegerValue
20

@<SCITEGIC>MOL_PROPERTY
Delta U+W
SciTegic.value.DoubleValue
1.030

@<SCITEGIC>MOL_PROPERTY
U+W
SciTegic.value.DoubleValue
-2.101

@<SCITEGIC>MOL_PROPERTY
Grad RMS
SciTegic.value.DoubleValue
0.000000

@<SCITEGIC>MOL_PROPERTY
U
SciTegic.value.DoubleValue
0.841

@<SCITEGIC>MOL_PROPERTY
W
SciTegic.value.DoubleValue
-2.942

@<SCITEGIC>MOL_PROPERTY
W(PB)
SciTegic.value.DoubleValue
-4.530

@<SCITEGIC>MOL_PROPERTY
W(SA)
SciTegic.value.DoubleValue
1.587

@<SCITEGIC>MOL_PROPERTY
Valence
SciTegic.value.DoubleValue
6.736

@<SCITEGIC>MOL_PROPERTY
Coulomb
SciTegic.value.DoubleValue
-7.246

@<SCITEGIC>MOL_PROPERTY
VdW
SciTegic.value.DoubleValue
1.352

@<SCITEGIC>MOL_PROPERTY
VdW6
SciTegic.value.DoubleValue
-2.500

@<SCITEGIC>MOL_PROPERTY
VdW12
SciTegic.value.DoubleValue
3.851

@<SCITEGIC>MOL_PROPERTY
Bond
SciTegic.value.DoubleValue
0.063

@<SCITEGIC>MOL_PROPERTY
Angle
SciTegic.value.DoubleValue
0.687

@<SCITEGIC>MOL_PROPERTY
Pdih
SciTegic.value.DoubleValue
5.986

@<SCITEGIC>MOL_PROPERTY
Idih
SciTegic.value.DoubleValue
0.000

@<SCITEGIC>MOL_PROPERTY
Tether
SciTegic.value.DoubleValue
0.000

@<TRIPOS>MOLECULE
guest-s16_confgen4.mol2 : confsearch ligand conformer 484
          13          13           1
SMALL
USER_CHARGES
 
@<TRIPOS>ATOM
       1    C1      20.160170   18.935064   20.999062 C.3        1 MOL1        -0.1693
       2    H1      19.726603   19.658502   20.295978 H          1 MOL1         0.0829
       3    H2      20.895987   18.323853   20.462951 H          1 MOL1         0.0829
       4    C2      19.114464   18.153218   21.860789 C.3        1 MOL1        -0.1768
       5    H3      18.150869   17.948735   21.381244 H          1 MOL1         0.0829
       6    H4      19.491028   17.223401   22.304668 H          1 MOL1         0.0829
       7    C3      19.150506   19.391680   22.806340 C.3        1 MOL1         0.1211
       8    H5      18.500116   20.215980   22.483513 H          1 MOL1         0.0786
       9    C4      20.635016   19.547674   22.357954 C.3        1 MOL1        -0.1768
      10    H6      21.351442   18.929535   22.912955 H          1 MOL1         0.0829
      11    H7      21.014299   20.574707   22.317484 H          1 MOL1         0.0829
      12    O1      18.957848   19.114492   24.173039 O.3        1 MOL1        -0.5515
      13    H8      19.560255   18.375997   24.402059 H          1 MOL1         0.3773
@<TRIPOS>BOND
    1     1     2    1
    2     1     3    1
    3     1     4    1
    4     4     5    1
    5     4     6    1
    6     4     7    1
    7     7     8    1
    8     1     9    1
    9     7     9    1
   10     9    10    1
   11     9    11    1
   12     7    12    1
   13    12    13    1
@<TRIPOS>SUBSTRUCTURE
       1 MOL1            1 RESIDUE      1      MOL     
@<SCITEGIC>MOL_PROPERTY
VConf Rank
SciTegic.value.IntegerValue
484

@<SCITEGIC>MOL_PROPERTY
Conf_Id
SciTegic.value.IntegerValue
24

@<SCITEGIC>MOL_PROPERTY
Delta U+W
SciTegic.value.DoubleValue
0.356

@<SCITEGIC>MOL_PROPERTY
U+W
SciTegic.value.DoubleValue
-2.775

@<SCITEGIC>MOL_PROPERTY
Grad RMS
SciTegic.value.DoubleValue
0.000000

@<SCITEGIC>MOL_PROPERTY
U
SciTegic.value.DoubleValue
-0.184

@<SCITEGIC>MOL_PROPERTY
W
SciTegic.value.DoubleValue
-2.591

@<SCITEGIC>MOL_PROPERTY
W(PB)
SciTegic.value.DoubleValue
-4.184

@<SCITEGIC>MOL_PROPERTY
W(SA)
SciTegic.value.DoubleValue
1.593

@<SCITEGIC>MOL_PROPERTY
Valence
SciTegic.value.DoubleValue
6.840

@<SCITEGIC>MOL_PROPERTY
Coulomb
SciTegic.value.DoubleValue
-7.916

@<SCITEGIC>MOL_PROPERTY
VdW
SciTegic.value.DoubleValue
0.893

@<SCITEGIC>MOL_PROPERTY
VdW6
SciTegic.value.DoubleValue
-2.167

@<SCITEGIC>MOL_PROPERTY
VdW12
SciTegic.value.DoubleValue
3.060

@<SCITEGIC>MOL_PROPERTY
Bond
SciTegic.value.DoubleValue
0.059

@<SCITEGIC>MOL_PROPERTY
Angle
SciTegic.value.DoubleValue
0.918

@<SCITEGIC>MOL_PROPERTY
Pdih
SciTegic.value.DoubleValue
5.862

@<SCITEGIC>MOL_PROPERTY
Idih
SciTegic.value.DoubleValue
0.000

@<SCITEGIC>MOL_PROPERTY
Tether
SciTegic.value.DoubleValue
0.000

@<TRIPOS>MOLECULE
guest-s16_confgen4.mol2 : confsearch ligand conformer 485
          13          13           1
SMALL
USER_CHARGES
 
@<TRIPOS>ATOM
       1    C1      20.772269   19.218046   22.008120 C.3        1 MOL1        -0.1693
       2    H1      21.735575   19.502561   22.447967 H          1 MOL1         0.0829
       3    H2      20.897977   19.137600   20.920912 H          1 MOL1         0.0829
       4    C2      19.535134   20.059881   22.467412 C.3        1 MOL1        -0.1768
       5    H3      19.608311   20.453163   23.488681 H          1 MOL1         0.0829
       6    H4      19.231235   20.875180   21.801349 H          1 MOL1         0.0829
       7    C3      18.710055   18.740908   22.351025 C.3        1 MOL1         0.1211
       8    H5      17.921736   18.622531   23.105365 H          1 MOL1         0.0786
       9    C4      20.045823   18.004397   22.678545 C.3        1 MOL1        -0.1768
      10    H6      20.244215   17.893705   23.751580 H          1 MOL1         0.0829
      11    H7      20.186438   17.030573   22.196256 H          1 MOL1         0.0829
      12    O1      18.190363   18.479714   21.065169 O.3        1 MOL1        -0.5515
      13    H8      18.932727   18.599712   20.437627 H          1 MOL1         0.3773
@<TRIPOS>BOND
    1     1     2    1
    2     1     3    1
    3     1     4    1
    4     4     5    1
    5     4     6    1
    6     4     7    1
    7     7     8    1
    8     1     9    1
    9     7     9    1
   10     9    10    1
   11     9    11    1
   12     7    12    1
   13    12    13    1
@<TRIPOS>SUBSTRUCTURE
       1 MOL1            1 RESIDUE      1      MOL     
@<SCITEGIC>MOL_PROPERTY
VConf Rank
SciTegic.value.IntegerValue
485

@<SCITEGIC>MOL_PROPERTY
Conf_Id
SciTegic.value.IntegerValue
44

@<SCITEGIC>MOL_PROPERTY
Delta U+W
SciTegic.value.DoubleValue
0.823

@<SCITEGIC>MOL_PROPERTY
U+W
SciTegic.value.DoubleValue
-2.308

@<SCITEGIC>MOL_PROPERTY
Grad RMS
SciTegic.value.DoubleValue
0.000000

@<SCITEGIC>MOL_PROPERTY
U
SciTegic.value.DoubleValue
0.039

@<SCITEGIC>MOL_PROPERTY
W
SciTegic.value.DoubleValue
-2.348

@<SCITEGIC>MOL_PROPERTY
W(PB)
SciTegic.value.DoubleValue
-3.918

@<SCITEGIC>MOL_PROPERTY
W(SA)
SciTegic.value.DoubleValue
1.571

@<SCITEGIC>MOL_PROPERTY
Valence
SciTegic.value.DoubleValue
7.320

@<SCITEGIC>MOL_PROPERTY
Coulomb
SciTegic.value.DoubleValue
-8.530

@<SCITEGIC>MOL_PROPERTY
VdW
SciTegic.value.DoubleValue
1.249

@<SCITEGIC>MOL_PROPERTY
VdW6
SciTegic.value.DoubleValue
-2.615

@<SCITEGIC>MOL_PROPERTY
VdW12
SciTegic.value.DoubleValue
3.864

@<SCITEGIC>MOL_PROPERTY
Bond
SciTegic.value.DoubleValue
0.056

@<SCITEGIC>MOL_PROPERTY
Angle
SciTegic.value.DoubleValue
0.694

@<SCITEGIC>MOL_PROPERTY
Pdih
SciTegic.value.DoubleValue
6.570

@<SCITEGIC>MOL_PROPERTY
Idih
SciTegic.value.DoubleValue
0.000

@<SCITEGIC>MOL_PROPERTY
Tether
SciTegic.value.DoubleValue
0.000

@<TRIPOS>MOLECULE
guest-s16_confgen4.mol2 : confsearch ligand conformer 486
          13          13           1
SMALL
USER_CHARGES
 
@<TRIPOS>ATOM
       1    C1      20.317103   18.701594   21.151801 C.3        1 MOL1        -0.1693
       2    H1      20.405639   17.615546   21.016719 H          1 MOL1         0.0829
       3    H2      20.764334   19.200288   20.283684 H          1 MOL1         0.0829
       4    C2      20.770645   19.225736   22.554257 C.3        1 MOL1        -0.1768
       5    H3      21.587334   18.676312   23.035001 H          1 MOL1         0.0829
       6    H4      20.996155   20.298682   22.593214 H          1 MOL1         0.0829
       7    C3      19.332830   18.850806   23.024325 C.3        1 MOL1         0.1211
       8    H5      19.215071   17.790401   23.286501 H          1 MOL1         0.0786
       9    C4      18.892630   19.195344   21.569433 C.3        1 MOL1        -0.1768
      10    H6      18.047996   18.618840   21.176485 H          1 MOL1         0.0829
      11    H7      18.706500   20.261617   21.389956 H          1 MOL1         0.0829
      12    O1      18.792967   19.677492   24.029155 O.3        1 MOL1        -0.5515
      13    H8      17.843524   19.445251   24.117612 H          1 MOL1         0.3773
@<TRIPOS>BOND
    1     1     2    1
    2     1     3    1
    3     1     4    1
    4     4     5    1
    5     4     6    1
    6     4     7    1
    7     7     8    1
    8     1     9    1
    9     7     9    1
   10     9    10    1
   11     9    11    1
   12     7    12    1
   13    12    13    1
@<TRIPOS>SUBSTRUCTURE
       1 MOL1            1 RESIDUE      1      MOL     
@<SCITEGIC>MOL_PROPERTY
VConf Rank
SciTegic.value.IntegerValue
486

@<SCITEGIC>MOL_PROPERTY
Conf_Id
SciTegic.value.IntegerValue
22

@<SCITEGIC>MOL_PROPERTY
Delta U+W
SciTegic.value.DoubleValue
0.000

@<SCITEGIC>MOL_PROPERTY
U+W
SciTegic.value.DoubleValue
-3.131

@<SCITEGIC>MOL_PROPERTY
Grad RMS
SciTegic.value.DoubleValue
0.000000

@<SCITEGIC>MOL_PROPERTY
U
SciTegic.value.DoubleValue
-0.154

@<SCITEGIC>MOL_PROPERTY
W
SciTegic.value.DoubleValue
-2.978

@<SCITEGIC>MOL_PROPERTY
W(PB)
SciTegic.value.DoubleValue
-4.579

@<SCITEGIC>MOL_PROPERTY
W(SA)
SciTegic.value.DoubleValue
1.601

@<SCITEGIC>MOL_PROPERTY
Valence
SciTegic.value.DoubleValue
6.333

@<SCITEGIC>MOL_PROPERTY
Coulomb
SciTegic.value.DoubleValue
-7.439

@<SCITEGIC>MOL_PROPERTY
VdW
SciTegic.value.DoubleValue
0.952

@<SCITEGIC>MOL_PROPERTY
VdW6
SciTegic.value.DoubleValue
-2.120

@<SCITEGIC>MOL_PROPERTY
VdW12
SciTegic.value.DoubleValue
3.072

@<SCITEGIC>MOL_PROPERTY
Bond
SciTegic.value.DoubleValue
0.065

@<SCITEGIC>MOL_PROPERTY
Angle
SciTegic.value.DoubleValue
0.931

@<SCITEGIC>MOL_PROPERTY
Pdih
SciTegic.value.DoubleValue
5.338

@<SCITEGIC>MOL_PROPERTY
Idih
SciTegic.value.DoubleValue
0.000

@<SCITEGIC>MOL_PROPERTY
Tether
SciTegic.value.DoubleValue
0.000

@<TRIPOS>MOLECULE
guest-s16_confgen4.mol2 : confsearch ligand conformer 487
          13          13           1
SMALL
USER_CHARGES
 
@<TRIPOS>ATOM
       1    C1      20.252352   20.007766   21.818822 C.3        1 MOL1        -0.1693
       2    H1      20.501177   20.714129   22.621769 H          1 MOL1         0.0829
       3    H2      20.558582   20.444330   20.860713 H          1 MOL1         0.0829
       4    C2      18.798191   19.434071   21.878967 C.3        1 MOL1        -0.1768
       5    H3      18.435883   19.004439   20.936660 H          1 MOL1         0.0829
       6    H4      18.030749   20.106216   22.278253 H          1 MOL1         0.0829
       7    C3      19.380392   18.394031   22.883234 C.3        1 MOL1         0.1211
       8    H5      19.447635   18.761232   23.916531 H          1 MOL1         0.0786
       9    C4      20.708070   18.534049   22.079175 C.3        1 MOL1        -0.1768
      10    H6      20.764579   17.904973   21.182150 H          1 MOL1         0.0829
      11    H7      21.630249   18.407827   22.656768 H          1 MOL1         0.0829
      12    O1      18.783893   17.118430   22.843460 O.3        1 MOL1        -0.5515
      13    H8      17.890347   17.202888   23.240507 H          1 MOL1         0.3773
@<TRIPOS>BOND
    1     1     2    1
    2     1     3    1
    3     1     4    1
    4     4     5    1
    5     4     6    1
    6     4     7    1
    7     7     8    1
    8     1     9    1
    9     7     9    1
   10     9    10    1
   11     9    11    1
   12     7    12    1
   13    12    13    1
@<TRIPOS>SUBSTRUCTURE
       1 MOL1            1 RESIDUE      1      MOL     
@<SCITEGIC>MOL_PROPERTY
VConf Rank
SciTegic.value.IntegerValue
487

@<SCITEGIC>MOL_PROPERTY
Conf_Id
SciTegic.value.IntegerValue
19

@<SCITEGIC>MOL_PROPERTY
Delta U+W
SciTegic.value.DoubleValue
-0.011

@<SCITEGIC>MOL_PROPERTY
U+W
SciTegic.value.DoubleValue
-3.142

@<SCITEGIC>MOL_PROPERTY
Grad RMS
SciTegic.value.DoubleValue
0.000000

@<SCITEGIC>MOL_PROPERTY
U
SciTegic.value.DoubleValue
-0.154

@<SCITEGIC>MOL_PROPERTY
W
SciTegic.value.DoubleValue
-2.989

@<SCITEGIC>MOL_PROPERTY
W(PB)
SciTegic.value.DoubleValue
-4.588

@<SCITEGIC>MOL_PROPERTY
W(SA)
SciTegic.value.DoubleValue
1.599

@<SCITEGIC>MOL_PROPERTY
Valence
SciTegic.value.DoubleValue
6.334

@<SCITEGIC>MOL_PROPERTY
Coulomb
SciTegic.value.DoubleValue
-7.439

@<SCITEGIC>MOL_PROPERTY
VdW
SciTegic.value.DoubleValue
0.951

@<SCITEGIC>MOL_PROPERTY
VdW6
SciTegic.value.DoubleValue
-2.120

@<SCITEGIC>MOL_PROPERTY
VdW12
SciTegic.value.DoubleValue
3.072

@<SCITEGIC>MOL_PROPERTY
Bond
SciTegic.value.DoubleValue
0.065

@<SCITEGIC>MOL_PROPERTY
Angle
SciTegic.value.DoubleValue
0.930

@<SCITEGIC>MOL_PROPERTY
Pdih
SciTegic.value.DoubleValue
5.339

@<SCITEGIC>MOL_PROPERTY
Idih
SciTegic.value.DoubleValue
0.000

@<SCITEGIC>MOL_PROPERTY
Tether
SciTegic.value.DoubleValue
0.000

@<TRIPOS>MOLECULE
guest-s16_confgen4.mol2 : confsearch ligand conformer 488
          13          13           1
SMALL
USER_CHARGES
 
@<TRIPOS>ATOM
       1    C1      19.395680   19.824254   23.211958 C.3        1 MOL1        -0.1693
       2    H1      19.755944   20.212760   24.171775 H          1 MOL1         0.0829
       3    H2      18.487233   20.372394   22.930046 H          1 MOL1         0.0829
       4    C2      19.276137   18.267904   23.100352 C.3        1 MOL1        -0.1768
       5    H3      20.005782   17.711290   23.700822 H          1 MOL1         0.0829
       6    H4      18.280492   17.847631   23.280507 H          1 MOL1         0.0829
       7    C3      19.678727   18.439457   21.602381 C.3        1 MOL1         0.1211
       8    H5      20.305853   17.632339   21.202272 H          1 MOL1         0.0786
       9    C4      20.462575   19.704250   22.073523 C.3        1 MOL1        -0.1768
      10    H6      20.502070   20.536869   21.362511 H          1 MOL1         0.0829
      11    H7      21.480362   19.496273   22.425417 H          1 MOL1         0.0829
      12    O1      18.602423   18.697038   20.722969 O.3        1 MOL1        -0.5515
      13    H8      18.988408   18.957238   19.859565 H          1 MOL1         0.3773
@<TRIPOS>BOND
    1     1     2    1
    2     1     3    1
    3     1     4    1
    4     4     5    1
    5     4     6    1
    6     4     7    1
    7     7     8    1
    8     1     9    1
    9     7     9    1
   10     9    10    1
   11     9    11    1
   12     7    12    1
   13    12    13    1
@<TRIPOS>SUBSTRUCTURE
       1 MOL1            1 RESIDUE      1      MOL     
@<SCITEGIC>MOL_PROPERTY
VConf Rank
SciTegic.value.IntegerValue
488

@<SCITEGIC>MOL_PROPERTY
Conf_Id
SciTegic.value.IntegerValue
20

@<SCITEGIC>MOL_PROPERTY
Delta U+W
SciTegic.value.DoubleValue
1.030

@<SCITEGIC>MOL_PROPERTY
U+W
SciTegic.value.DoubleValue
-2.101

@<SCITEGIC>MOL_PROPERTY
Grad RMS
SciTegic.value.DoubleValue
0.000000

@<SCITEGIC>MOL_PROPERTY
U
SciTegic.value.DoubleValue
0.841

@<SCITEGIC>MOL_PROPERTY
W
SciTegic.value.DoubleValue
-2.942

@<SCITEGIC>MOL_PROPERTY
W(PB)
SciTegic.value.DoubleValue
-4.530

@<SCITEGIC>MOL_PROPERTY
W(SA)
SciTegic.value.DoubleValue
1.587

@<SCITEGIC>MOL_PROPERTY
Valence
SciTegic.value.DoubleValue
6.736

@<SCITEGIC>MOL_PROPERTY
Coulomb
SciTegic.value.DoubleValue
-7.246

@<SCITEGIC>MOL_PROPERTY
VdW
SciTegic.value.DoubleValue
1.352

@<SCITEGIC>MOL_PROPERTY
VdW6
SciTegic.value.DoubleValue
-2.500

@<SCITEGIC>MOL_PROPERTY
VdW12
SciTegic.value.DoubleValue
3.851

@<SCITEGIC>MOL_PROPERTY
Bond
SciTegic.value.DoubleValue
0.063

@<SCITEGIC>MOL_PROPERTY
Angle
SciTegic.value.DoubleValue
0.687

@<SCITEGIC>MOL_PROPERTY
Pdih
SciTegic.value.DoubleValue
5.986

@<SCITEGIC>MOL_PROPERTY
Idih
SciTegic.value.DoubleValue
0.000

@<SCITEGIC>MOL_PROPERTY
Tether
SciTegic.value.DoubleValue
0.000

@<TRIPOS>MOLECULE
guest-s16_confgen4.mol2 : confsearch ligand conformer 489
          13          13           1
SMALL
USER_CHARGES
 
@<TRIPOS>ATOM
       1    C1      20.557278   19.897001   21.903348 C.3        1 MOL1        -0.1693
       2    H1      21.074030   19.836697   20.936394 H          1 MOL1         0.0829
       3    H2      20.876807   20.813064   22.414378 H          1 MOL1         0.0829
       4    C2      20.604048   18.584180   22.752859 C.3        1 MOL1        -0.1768
       5    H3      21.506507   17.972344   22.645545 H          1 MOL1         0.0829
       6    H4      20.398012   18.723077   23.821337 H          1 MOL1         0.0829
       7    C3      19.377360   18.135761   21.902381 C.3        1 MOL1         0.1211
       8    H5      19.646159   17.700929   20.930083 H          1 MOL1         0.0786
       9    C4      19.013947   19.649948   21.836629 C.3        1 MOL1        -0.1768
      10    H6      18.452504   20.027057   22.700319 H          1 MOL1         0.0829
      11    H7      18.512103   19.979346   20.920146 H          1 MOL1         0.0829
      12    O1      18.445202   17.318874   22.569910 O.3        1 MOL1        -0.5515
      13    H8      18.244648   17.754560   23.424706 H          1 MOL1         0.3773
@<TRIPOS>BOND
    1     1     2    1
    2     1     3    1
    3     1     4    1
    4     4     5    1
    5     4     6    1
    6     4     7    1
    7     7     8    1
    8     1     9    1
    9     7     9    1
   10     9    10    1
   11     9    11    1
   12     7    12    1
   13    12    13    1
@<TRIPOS>SUBSTRUCTURE
       1 MOL1            1 RESIDUE      1      MOL     
@<SCITEGIC>MOL_PROPERTY
VConf Rank
SciTegic.value.IntegerValue
489

@<SCITEGIC>MOL_PROPERTY
Conf_Id
SciTegic.value.IntegerValue
24

@<SCITEGIC>MOL_PROPERTY
Delta U+W
SciTegic.value.DoubleValue
0.356

@<SCITEGIC>MOL_PROPERTY
U+W
SciTegic.value.DoubleValue
-2.775

@<SCITEGIC>MOL_PROPERTY
Grad RMS
SciTegic.value.DoubleValue
0.000000

@<SCITEGIC>MOL_PROPERTY
U
SciTegic.value.DoubleValue
-0.184

@<SCITEGIC>MOL_PROPERTY
W
SciTegic.value.DoubleValue
-2.591

@<SCITEGIC>MOL_PROPERTY
W(PB)
SciTegic.value.DoubleValue
-4.184

@<SCITEGIC>MOL_PROPERTY
W(SA)
SciTegic.value.DoubleValue
1.593

@<SCITEGIC>MOL_PROPERTY
Valence
SciTegic.value.DoubleValue
6.840

@<SCITEGIC>MOL_PROPERTY
Coulomb
SciTegic.value.DoubleValue
-7.916

@<SCITEGIC>MOL_PROPERTY
VdW
SciTegic.value.DoubleValue
0.893

@<SCITEGIC>MOL_PROPERTY
VdW6
SciTegic.value.DoubleValue
-2.167

@<SCITEGIC>MOL_PROPERTY
VdW12
SciTegic.value.DoubleValue
3.060

@<SCITEGIC>MOL_PROPERTY
Bond
SciTegic.value.DoubleValue
0.059

@<SCITEGIC>MOL_PROPERTY
Angle
SciTegic.value.DoubleValue
0.918

@<SCITEGIC>MOL_PROPERTY
Pdih
SciTegic.value.DoubleValue
5.862

@<SCITEGIC>MOL_PROPERTY
Idih
SciTegic.value.DoubleValue
0.000

@<SCITEGIC>MOL_PROPERTY
Tether
SciTegic.value.DoubleValue
0.000

@<TRIPOS>MOLECULE
guest-s16_confgen4.mol2 : confsearch ligand conformer 490
          13          13           1
SMALL
USER_CHARGES
 
@<TRIPOS>ATOM
       1    C1      19.493775   17.870104   22.332176 C.3        1 MOL1        -0.1693
       2    H1      18.748388   17.069078   22.260558 H          1 MOL1         0.0829
       3    H2      20.444923   17.430278   22.658007 H          1 MOL1         0.0829
       4    C2      19.052820   19.146172   23.124229 C.3        1 MOL1        -0.1768
       5    H3      17.978543   19.361785   23.074692 H          1 MOL1         0.0829
       6    H4      19.370463   19.198564   24.171638 H          1 MOL1         0.0829
       7    C3      19.912907   19.961191   22.109346 C.3        1 MOL1         0.1211
       8    H5      19.502247   20.943121   21.841653 H          1 MOL1         0.0786
       9    C4      19.598101   18.820397   21.092743 C.3        1 MOL1        -0.1768
      10    H6      18.657519   18.956134   20.545116 H          1 MOL1         0.0829
      11    H7      20.390364   18.589229   20.371917 H          1 MOL1         0.0829
      12    O1      21.275478   20.086174   22.455042 O.3        1 MOL1        -0.5515
      13    H8      21.586329   19.185746   22.682890 H          1 MOL1         0.3773
@<TRIPOS>BOND
    1     1     2    1
    2     1     3    1
    3     1     4    1
    4     4     5    1
    5     4     6    1
    6     4     7    1
    7     7     8    1
    8     1     9    1
    9     7     9    1
   10     9    10    1
   11     9    11    1
   12     7    12    1
   13    12    13    1
@<TRIPOS>SUBSTRUCTURE
       1 MOL1            1 RESIDUE      1      MOL     
@<SCITEGIC>MOL_PROPERTY
VConf Rank
SciTegic.value.IntegerValue
490

@<SCITEGIC>MOL_PROPERTY
Conf_Id
SciTegic.value.IntegerValue
44

@<SCITEGIC>MOL_PROPERTY
Delta U+W
SciTegic.value.DoubleValue
0.823

@<SCITEGIC>MOL_PROPERTY
U+W
SciTegic.value.DoubleValue
-2.308

@<SCITEGIC>MOL_PROPERTY
Grad RMS
SciTegic.value.DoubleValue
0.000000

@<SCITEGIC>MOL_PROPERTY
U
SciTegic.value.DoubleValue
0.039

@<SCITEGIC>MOL_PROPERTY
W
SciTegic.value.DoubleValue
-2.348

@<SCITEGIC>MOL_PROPERTY
W(PB)
SciTegic.value.DoubleValue
-3.918

@<SCITEGIC>MOL_PROPERTY
W(SA)
SciTegic.value.DoubleValue
1.571

@<SCITEGIC>MOL_PROPERTY
Valence
SciTegic.value.DoubleValue
7.320

@<SCITEGIC>MOL_PROPERTY
Coulomb
SciTegic.value.DoubleValue
-8.530

@<SCITEGIC>MOL_PROPERTY
VdW
SciTegic.value.DoubleValue
1.249

@<SCITEGIC>MOL_PROPERTY
VdW6
SciTegic.value.DoubleValue
-2.615

@<SCITEGIC>MOL_PROPERTY
VdW12
SciTegic.value.DoubleValue
3.864

@<SCITEGIC>MOL_PROPERTY
Bond
SciTegic.value.DoubleValue
0.056

@<SCITEGIC>MOL_PROPERTY
Angle
SciTegic.value.DoubleValue
0.694

@<SCITEGIC>MOL_PROPERTY
Pdih
SciTegic.value.DoubleValue
6.570

@<SCITEGIC>MOL_PROPERTY
Idih
SciTegic.value.DoubleValue
0.000

@<SCITEGIC>MOL_PROPERTY
Tether
SciTegic.value.DoubleValue
0.000

@<TRIPOS>MOLECULE
guest-s16_confgen4.mol2 : confsearch ligand conformer 491
          13          13           1
SMALL
USER_CHARGES
 
@<TRIPOS>ATOM
       1    C1      19.847077   20.038741   23.095233 C.3        1 MOL1        -0.1693
       2    H1      19.008009   20.178713   23.789465 H          1 MOL1         0.0829
       3    H2      20.635573   20.757157   23.349184 H          1 MOL1         0.0829
       4    C2      19.442618   19.967737   21.585703 C.3        1 MOL1        -0.1768
       5    H3      18.576835   20.569264   21.288137 H          1 MOL1         0.0829
       6    H4      20.262006   20.155692   20.880819 H          1 MOL1         0.0829
       7    C3      19.158609   18.459778   21.858184 C.3        1 MOL1         0.1211
       8    H5      18.168049   18.267185   22.292649 H          1 MOL1         0.0786
       9    C4      20.303772   18.553848   22.911250 C.3        1 MOL1        -0.1768
      10    H6      20.200954   17.905503   23.788319 H          1 MOL1         0.0829
      11    H7      21.313279   18.432794   22.498896 H          1 MOL1         0.0829
      12    O1      19.406157   17.594836   20.774145 O.3        1 MOL1        -0.5515
      13    H8      19.349787   16.676656   21.116158 H          1 MOL1         0.3773
@<TRIPOS>BOND
    1     1     2    1
    2     1     3    1
    3     1     4    1
    4     4     5    1
    5     4     6    1
    6     4     7    1
    7     7     8    1
    8     1     9    1
    9     7     9    1
   10     9    10    1
   11     9    11    1
   12     7    12    1
   13    12    13    1
@<TRIPOS>SUBSTRUCTURE
       1 MOL1            1 RESIDUE      1      MOL     
@<SCITEGIC>MOL_PROPERTY
VConf Rank
SciTegic.value.IntegerValue
491

@<SCITEGIC>MOL_PROPERTY
Conf_Id
SciTegic.value.IntegerValue
22

@<SCITEGIC>MOL_PROPERTY
Delta U+W
SciTegic.value.DoubleValue
0.000

@<SCITEGIC>MOL_PROPERTY
U+W
SciTegic.value.DoubleValue
-3.131

@<SCITEGIC>MOL_PROPERTY
Grad RMS
SciTegic.value.DoubleValue
0.000000

@<SCITEGIC>MOL_PROPERTY
U
SciTegic.value.DoubleValue
-0.154

@<SCITEGIC>MOL_PROPERTY
W
SciTegic.value.DoubleValue
-2.978

@<SCITEGIC>MOL_PROPERTY
W(PB)
SciTegic.value.DoubleValue
-4.579

@<SCITEGIC>MOL_PROPERTY
W(SA)
SciTegic.value.DoubleValue
1.601

@<SCITEGIC>MOL_PROPERTY
Valence
SciTegic.value.DoubleValue
6.333

@<SCITEGIC>MOL_PROPERTY
Coulomb
SciTegic.value.DoubleValue
-7.439

@<SCITEGIC>MOL_PROPERTY
VdW
SciTegic.value.DoubleValue
0.952

@<SCITEGIC>MOL_PROPERTY
VdW6
SciTegic.value.DoubleValue
-2.120

@<SCITEGIC>MOL_PROPERTY
VdW12
SciTegic.value.DoubleValue
3.072

@<SCITEGIC>MOL_PROPERTY
Bond
SciTegic.value.DoubleValue
0.065

@<SCITEGIC>MOL_PROPERTY
Angle
SciTegic.value.DoubleValue
0.931

@<SCITEGIC>MOL_PROPERTY
Pdih
SciTegic.value.DoubleValue
5.338

@<SCITEGIC>MOL_PROPERTY
Idih
SciTegic.value.DoubleValue
0.000

@<SCITEGIC>MOL_PROPERTY
Tether
SciTegic.value.DoubleValue
0.000

@<TRIPOS>MOLECULE
guest-s16_confgen4.mol2 : confsearch ligand conformer 492
          13          13           1
SMALL
USER_CHARGES
 
@<TRIPOS>ATOM
       1    C1      19.384794   17.662462   21.953239 C.3        1 MOL1        -0.1693
       2    H1      19.598748   16.973074   22.780617 H          1 MOL1         0.0829
       3    H2      19.068564   17.076684   21.081919 H          1 MOL1         0.0829
       4    C2      20.491632   18.737117   21.693707 C.3        1 MOL1        -0.1768
       5    H3      20.454502   19.202436   20.700785 H          1 MOL1         0.0829
       6    H4      21.522097   18.427561   21.899837 H          1 MOL1         0.0829
       7    C3      19.789553   19.555611   22.819028 C.3        1 MOL1         0.1211
       8    H5      20.088483   19.263956   23.835217 H          1 MOL1         0.0786
       9    C4      18.473997   18.876662   22.332014 C.3        1 MOL1        -0.1768
      10    H6      17.993931   19.374604   21.480441 H          1 MOL1         0.0829
      11    H7      17.718959   18.692625   23.104030 H          1 MOL1         0.0829
      12    O1      19.837438   20.955171   22.665772 O.3        1 MOL1        -0.5515
      13    H8      20.759401   21.236417   22.850404 H          1 MOL1         0.3773
@<TRIPOS>BOND
    1     1     2    1
    2     1     3    1
    3     1     4    1
    4     4     5    1
    5     4     6    1
    6     4     7    1
    7     7     8    1
    8     1     9    1
    9     7     9    1
   10     9    10    1
   11     9    11    1
   12     7    12    1
   13    12    13    1
@<TRIPOS>SUBSTRUCTURE
       1 MOL1            1 RESIDUE      1      MOL     
@<SCITEGIC>MOL_PROPERTY
VConf Rank
SciTegic.value.IntegerValue
492

@<SCITEGIC>MOL_PROPERTY
Conf_Id
SciTegic.value.IntegerValue
19

@<SCITEGIC>MOL_PROPERTY
Delta U+W
SciTegic.value.DoubleValue
-0.011

@<SCITEGIC>MOL_PROPERTY
U+W
SciTegic.value.DoubleValue
-3.142

@<SCITEGIC>MOL_PROPERTY
Grad RMS
SciTegic.value.DoubleValue
0.000000

@<SCITEGIC>MOL_PROPERTY
U
SciTegic.value.DoubleValue
-0.154

@<SCITEGIC>MOL_PROPERTY
W
SciTegic.value.DoubleValue
-2.989

@<SCITEGIC>MOL_PROPERTY
W(PB)
SciTegic.value.DoubleValue
-4.588

@<SCITEGIC>MOL_PROPERTY
W(SA)
SciTegic.value.DoubleValue
1.599

@<SCITEGIC>MOL_PROPERTY
Valence
SciTegic.value.DoubleValue
6.334

@<SCITEGIC>MOL_PROPERTY
Coulomb
SciTegic.value.DoubleValue
-7.439

@<SCITEGIC>MOL_PROPERTY
VdW
SciTegic.value.DoubleValue
0.951

@<SCITEGIC>MOL_PROPERTY
VdW6
SciTegic.value.DoubleValue
-2.120

@<SCITEGIC>MOL_PROPERTY
VdW12
SciTegic.value.DoubleValue
3.072

@<SCITEGIC>MOL_PROPERTY
Bond
SciTegic.value.DoubleValue
0.065

@<SCITEGIC>MOL_PROPERTY
Angle
SciTegic.value.DoubleValue
0.930

@<SCITEGIC>MOL_PROPERTY
Pdih
SciTegic.value.DoubleValue
5.339

@<SCITEGIC>MOL_PROPERTY
Idih
SciTegic.value.DoubleValue
0.000

@<SCITEGIC>MOL_PROPERTY
Tether
SciTegic.value.DoubleValue
0.000

@<TRIPOS>MOLECULE
guest-s16_confgen4.mol2 : confsearch ligand conformer 493
          13          13           1
SMALL
USER_CHARGES
 
@<TRIPOS>ATOM
       1    C1      20.441205   19.970766   22.129693 C.3        1 MOL1        -0.1693
       2    H1      21.148670   20.638437   22.635347 H          1 MOL1         0.0829
       3    H2      20.510986   20.140099   21.047259 H          1 MOL1         0.0829
       4    C2      18.981124   19.960886   22.692755 C.3        1 MOL1        -0.1768
       5    H3      18.907267   20.156887   23.769274 H          1 MOL1         0.0829
       6    H4      18.259532   20.598499   22.170120 H          1 MOL1         0.0829
       7    C3      18.946867   18.447193   22.314618 C.3        1 MOL1         0.1211
       8    H5      18.379738   17.815040   23.010002 H          1 MOL1         0.0786
       9    C4      20.488607   18.466167   22.557051 C.3        1 MOL1        -0.1768
      10    H6      21.083085   17.803835   21.918096 H          1 MOL1         0.0829
      11    H7      20.780868   18.299867   23.601034 H          1 MOL1         0.0829
      12    O1      18.554804   18.175252   20.984024 O.3        1 MOL1        -0.5515
      13    H8      18.738935   17.226768   20.814828 H          1 MOL1         0.3773
@<TRIPOS>BOND
    1     1     2    1
    2     1     3    1
    3     1     4    1
    4     4     5    1
    5     4     6    1
    6     4     7    1
    7     7     8    1
    8     1     9    1
    9     7     9    1
   10     9    10    1
   11     9    11    1
   12     7    12    1
   13    12    13    1
@<TRIPOS>SUBSTRUCTURE
       1 MOL1            1 RESIDUE      1      MOL     
@<SCITEGIC>MOL_PROPERTY
VConf Rank
SciTegic.value.IntegerValue
493

@<SCITEGIC>MOL_PROPERTY
Conf_Id
SciTegic.value.IntegerValue
20

@<SCITEGIC>MOL_PROPERTY
Delta U+W
SciTegic.value.DoubleValue
1.030

@<SCITEGIC>MOL_PROPERTY
U+W
SciTegic.value.DoubleValue
-2.101

@<SCITEGIC>MOL_PROPERTY
Grad RMS
SciTegic.value.DoubleValue
0.000000

@<SCITEGIC>MOL_PROPERTY
U
SciTegic.value.DoubleValue
0.841

@<SCITEGIC>MOL_PROPERTY
W
SciTegic.value.DoubleValue
-2.942

@<SCITEGIC>MOL_PROPERTY
W(PB)
SciTegic.value.DoubleValue
-4.530

@<SCITEGIC>MOL_PROPERTY
W(SA)
SciTegic.value.DoubleValue
1.587

@<SCITEGIC>MOL_PROPERTY
Valence
SciTegic.value.DoubleValue
6.736

@<SCITEGIC>MOL_PROPERTY
Coulomb
SciTegic.value.DoubleValue
-7.246

@<SCITEGIC>MOL_PROPERTY
VdW
SciTegic.value.DoubleValue
1.352

@<SCITEGIC>MOL_PROPERTY
VdW6
SciTegic.value.DoubleValue
-2.500

@<SCITEGIC>MOL_PROPERTY
VdW12
SciTegic.value.DoubleValue
3.851

@<SCITEGIC>MOL_PROPERTY
Bond
SciTegic.value.DoubleValue
0.063

@<SCITEGIC>MOL_PROPERTY
Angle
SciTegic.value.DoubleValue
0.687

@<SCITEGIC>MOL_PROPERTY
Pdih
SciTegic.value.DoubleValue
5.986

@<SCITEGIC>MOL_PROPERTY
Idih
SciTegic.value.DoubleValue
0.000

@<SCITEGIC>MOL_PROPERTY
Tether
SciTegic.value.DoubleValue
0.000

@<TRIPOS>MOLECULE
guest-s16_confgen4.mol2 : confsearch ligand conformer 494
          13          13           1
SMALL
USER_CHARGES
 
@<TRIPOS>ATOM
       1    C1      19.637649   20.011304   21.496969 C.3        1 MOL1        -0.1693
       2    H1      19.766728   19.914714   20.410839 H          1 MOL1         0.0829
       3    H2      19.431343   21.062135   21.732796 H          1 MOL1         0.0829
       4    C2      20.751185   19.320963   22.351852 C.3        1 MOL1        -0.1768
       5    H3      21.755208   19.305268   21.913692 H          1 MOL1         0.0829
       6    H4      20.823831   19.681319   23.385416 H          1 MOL1         0.0829
       7    C3      19.912829   18.019785   22.169504 C.3        1 MOL1         0.1211
       8    H5      20.101057   17.499545   21.220497 H          1 MOL1         0.0786
       9    C4      18.670858   18.960840   22.136654 C.3        1 MOL1        -0.1768
      10    H6      18.278525   19.240705   23.122118 H          1 MOL1         0.0829
      11    H7      17.837635   18.627099   21.508443 H          1 MOL1         0.0829
      12    O1      19.957799   17.115713   23.247673 O.3        1 MOL1        -0.5515
      13    H8      19.783955   17.633448   24.061582 H          1 MOL1         0.3773
@<TRIPOS>BOND
    1     1     2    1
    2     1     3    1
    3     1     4    1
    4     4     5    1
    5     4     6    1
    6     4     7    1
    7     7     8    1
    8     1     9    1
    9     7     9    1
   10     9    10    1
   11     9    11    1
   12     7    12    1
   13    12    13    1
@<TRIPOS>SUBSTRUCTURE
       1 MOL1            1 RESIDUE      1      MOL     
@<SCITEGIC>MOL_PROPERTY
VConf Rank
SciTegic.value.IntegerValue
494

@<SCITEGIC>MOL_PROPERTY
Conf_Id
SciTegic.value.IntegerValue
24

@<SCITEGIC>MOL_PROPERTY
Delta U+W
SciTegic.value.DoubleValue
0.356

@<SCITEGIC>MOL_PROPERTY
U+W
SciTegic.value.DoubleValue
-2.775

@<SCITEGIC>MOL_PROPERTY
Grad RMS
SciTegic.value.DoubleValue
0.000000

@<SCITEGIC>MOL_PROPERTY
U
SciTegic.value.DoubleValue
-0.184

@<SCITEGIC>MOL_PROPERTY
W
SciTegic.value.DoubleValue
-2.591

@<SCITEGIC>MOL_PROPERTY
W(PB)
SciTegic.value.DoubleValue
-4.184

@<SCITEGIC>MOL_PROPERTY
W(SA)
SciTegic.value.DoubleValue
1.593

@<SCITEGIC>MOL_PROPERTY
Valence
SciTegic.value.DoubleValue
6.840

@<SCITEGIC>MOL_PROPERTY
Coulomb
SciTegic.value.DoubleValue
-7.916

@<SCITEGIC>MOL_PROPERTY
VdW
SciTegic.value.DoubleValue
0.893

@<SCITEGIC>MOL_PROPERTY
VdW6
SciTegic.value.DoubleValue
-2.167

@<SCITEGIC>MOL_PROPERTY
VdW12
SciTegic.value.DoubleValue
3.060

@<SCITEGIC>MOL_PROPERTY
Bond
SciTegic.value.DoubleValue
0.059

@<SCITEGIC>MOL_PROPERTY
Angle
SciTegic.value.DoubleValue
0.918

@<SCITEGIC>MOL_PROPERTY
Pdih
SciTegic.value.DoubleValue
5.862

@<SCITEGIC>MOL_PROPERTY
Idih
SciTegic.value.DoubleValue
0.000

@<SCITEGIC>MOL_PROPERTY
Tether
SciTegic.value.DoubleValue
0.000

@<TRIPOS>MOLECULE
guest-s16_confgen4.mol2 : confsearch ligand conformer 495
          13          13           1
SMALL
USER_CHARGES
 
@<TRIPOS>ATOM
       1    C1      20.613144   19.145627   22.833030 C.3        1 MOL1        -0.1693
       2    H1      21.081057   19.766733   23.606113 H          1 MOL1         0.0829
       3    H2      21.327161   18.367622   22.534392 H          1 MOL1         0.0829
       4    C2      19.946019   19.917758   21.646061 C.3        1 MOL1        -0.1768
       5    H3      19.545045   20.902774   21.914350 H          1 MOL1         0.0829
       6    H4      20.550130   20.023376   20.737983 H          1 MOL1         0.0829
       7    C3      18.878682   18.780042   21.626398 C.3        1 MOL1         0.1211
       8    H5      17.860106   19.108060   21.382689 H          1 MOL1         0.0786
       9    C4      19.170560   18.628227   23.151440 C.3        1 MOL1        -0.1768
      10    H6      18.579456   19.297068   23.788827 H          1 MOL1         0.0829
      11    H7      19.099700   17.611419   23.553669 H          1 MOL1         0.0829
      12    O1      19.224419   17.657994   20.843326 O.3        1 MOL1        -0.5515
      13    H8      20.136378   17.411270   21.101730 H          1 MOL1         0.3773
@<TRIPOS>BOND
    1     1     2    1
    2     1     3    1
    3     1     4    1
    4     4     5    1
    5     4     6    1
    6     4     7    1
    7     7     8    1
    8     1     9    1
    9     7     9    1
   10     9    10    1
   11     9    11    1
   12     7    12    1
   13    12    13    1
@<TRIPOS>SUBSTRUCTURE
       1 MOL1            1 RESIDUE      1      MOL     
@<SCITEGIC>MOL_PROPERTY
VConf Rank
SciTegic.value.IntegerValue
495

@<SCITEGIC>MOL_PROPERTY
Conf_Id
SciTegic.value.IntegerValue
44

@<SCITEGIC>MOL_PROPERTY
Delta U+W
SciTegic.value.DoubleValue
0.823

@<SCITEGIC>MOL_PROPERTY
U+W
SciTegic.value.DoubleValue
-2.308

@<SCITEGIC>MOL_PROPERTY
Grad RMS
SciTegic.value.DoubleValue
0.000000

@<SCITEGIC>MOL_PROPERTY
U
SciTegic.value.DoubleValue
0.039

@<SCITEGIC>MOL_PROPERTY
W
SciTegic.value.DoubleValue
-2.348

@<SCITEGIC>MOL_PROPERTY
W(PB)
SciTegic.value.DoubleValue
-3.918

@<SCITEGIC>MOL_PROPERTY
W(SA)
SciTegic.value.DoubleValue
1.571

@<SCITEGIC>MOL_PROPERTY
Valence
SciTegic.value.DoubleValue
7.320

@<SCITEGIC>MOL_PROPERTY
Coulomb
SciTegic.value.DoubleValue
-8.530

@<SCITEGIC>MOL_PROPERTY
VdW
SciTegic.value.DoubleValue
1.249

@<SCITEGIC>MOL_PROPERTY
VdW6
SciTegic.value.DoubleValue
-2.615

@<SCITEGIC>MOL_PROPERTY
VdW12
SciTegic.value.DoubleValue
3.864

@<SCITEGIC>MOL_PROPERTY
Bond
SciTegic.value.DoubleValue
0.056

@<SCITEGIC>MOL_PROPERTY
Angle
SciTegic.value.DoubleValue
0.694

@<SCITEGIC>MOL_PROPERTY
Pdih
SciTegic.value.DoubleValue
6.570

@<SCITEGIC>MOL_PROPERTY
Idih
SciTegic.value.DoubleValue
0.000

@<SCITEGIC>MOL_PROPERTY
Tether
SciTegic.value.DoubleValue
0.000

@<TRIPOS>MOLECULE
guest-s16_confgen4.mol2 : confsearch ligand conformer 496
          13          13           1
SMALL
USER_CHARGES
 
@<TRIPOS>ATOM
       1    C1      18.760085   19.980042   22.449245 C.3        1 MOL1        -0.1693
       2    H1      18.639936   20.252163   23.506174 H          1 MOL1         0.0829
       3    H2      18.107281   20.621907   21.845760 H          1 MOL1         0.0829
       4    C2      18.677434   18.445795   22.155030 C.3        1 MOL1        -0.1768
       5    H3      18.009377   17.864894   22.800178 H          1 MOL1         0.0829
       6    H4      18.469420   18.188777   21.108963 H          1 MOL1         0.0829
       7    C3      20.187393   18.414144   22.539567 C.3        1 MOL1         0.1211
       8    H5      20.367612   18.354342   23.621698 H          1 MOL1         0.0786
       9    C4      20.244014   19.863042   21.968004 C.3        1 MOL1        -0.1768
      10    H6      20.961145   20.538281   22.447532 H          1 MOL1         0.0829
      11    H7      20.378726   19.919129   20.880576 H          1 MOL1         0.0829
      12    O1      20.964772   17.463222   21.849659 O.3        1 MOL1        -0.5515
      13    H8      21.905531   17.652170   22.055756 H          1 MOL1         0.3773
@<TRIPOS>BOND
    1     1     2    1
    2     1     3    1
    3     1     4    1
    4     4     5    1
    5     4     6    1
    6     4     7    1
    7     7     8    1
    8     1     9    1
    9     7     9    1
   10     9    10    1
   11     9    11    1
   12     7    12    1
   13    12    13    1
@<TRIPOS>SUBSTRUCTURE
       1 MOL1            1 RESIDUE      1      MOL     
@<SCITEGIC>MOL_PROPERTY
VConf Rank
SciTegic.value.IntegerValue
496

@<SCITEGIC>MOL_PROPERTY
Conf_Id
SciTegic.value.IntegerValue
22

@<SCITEGIC>MOL_PROPERTY
Delta U+W
SciTegic.value.DoubleValue
0.000

@<SCITEGIC>MOL_PROPERTY
U+W
SciTegic.value.DoubleValue
-3.131

@<SCITEGIC>MOL_PROPERTY
Grad RMS
SciTegic.value.DoubleValue
0.000000

@<SCITEGIC>MOL_PROPERTY
U
SciTegic.value.DoubleValue
-0.154

@<SCITEGIC>MOL_PROPERTY
W
SciTegic.value.DoubleValue
-2.978

@<SCITEGIC>MOL_PROPERTY
W(PB)
SciTegic.value.DoubleValue
-4.579

@<SCITEGIC>MOL_PROPERTY
W(SA)
SciTegic.value.DoubleValue
1.601

@<SCITEGIC>MOL_PROPERTY
Valence
SciTegic.value.DoubleValue
6.333

@<SCITEGIC>MOL_PROPERTY
Coulomb
SciTegic.value.DoubleValue
-7.439

@<SCITEGIC>MOL_PROPERTY
VdW
SciTegic.value.DoubleValue
0.952

@<SCITEGIC>MOL_PROPERTY
VdW6
SciTegic.value.DoubleValue
-2.120

@<SCITEGIC>MOL_PROPERTY
VdW12
SciTegic.value.DoubleValue
3.072

@<SCITEGIC>MOL_PROPERTY
Bond
SciTegic.value.DoubleValue
0.065

@<SCITEGIC>MOL_PROPERTY
Angle
SciTegic.value.DoubleValue
0.931

@<SCITEGIC>MOL_PROPERTY
Pdih
SciTegic.value.DoubleValue
5.338

@<SCITEGIC>MOL_PROPERTY
Idih
SciTegic.value.DoubleValue
0.000

@<SCITEGIC>MOL_PROPERTY
Tether
SciTegic.value.DoubleValue
0.000

@<TRIPOS>MOLECULE
guest-s16_confgen4.mol2 : confsearch ligand conformer 497
          13          13           1
SMALL
USER_CHARGES
 
@<TRIPOS>ATOM
       1    C1      19.884632   17.631702   22.204905 C.3        1 MOL1        -0.1693
       2    H1      19.448594   17.127940   21.332162 H          1 MOL1         0.0829
       3    H2      20.377337   16.880260   22.833327 H          1 MOL1         0.0829
       4    C2      18.919037   18.617505   22.941892 C.3        1 MOL1        -0.1768
       5    H3      19.214315   18.865847   23.968990 H          1 MOL1         0.0829
       6    H4      17.857328   18.347491   22.935640 H          1 MOL1         0.0829
       7    C3      19.361882   19.659660   21.870912 C.3        1 MOL1         0.1211
       8    H5      18.814406   19.583397   20.921431 H          1 MOL1         0.0786
       9    C4      20.726680   18.907217   21.871259 C.3        1 MOL1        -0.1768
      10    H6      21.418581   19.221360   22.662570 H          1 MOL1         0.0829
      11    H7      21.264481   18.895779   20.917005 H          1 MOL1         0.0829
      12    O1      19.410773   20.995929   22.314245 O.3        1 MOL1        -0.5515
      13    H8      18.484053   21.300293   22.422671 H          1 MOL1         0.3773
@<TRIPOS>BOND
    1     1     2    1
    2     1     3    1
    3     1     4    1
    4     4     5    1
    5     4     6    1
    6     4     7    1
    7     7     8    1
    8     1     9    1
    9     7     9    1
   10     9    10    1
   11     9    11    1
   12     7    12    1
   13    12    13    1
@<TRIPOS>SUBSTRUCTURE
       1 MOL1            1 RESIDUE      1      MOL     
@<SCITEGIC>MOL_PROPERTY
VConf Rank
SciTegic.value.IntegerValue
497

@<SCITEGIC>MOL_PROPERTY
Conf_Id
SciTegic.value.IntegerValue
19

@<SCITEGIC>MOL_PROPERTY
Delta U+W
SciTegic.value.DoubleValue
-0.011

@<SCITEGIC>MOL_PROPERTY
U+W
SciTegic.value.DoubleValue
-3.142

@<SCITEGIC>MOL_PROPERTY
Grad RMS
SciTegic.value.DoubleValue
0.000000

@<SCITEGIC>MOL_PROPERTY
U
SciTegic.value.DoubleValue
-0.154

@<SCITEGIC>MOL_PROPERTY
W
SciTegic.value.DoubleValue
-2.989

@<SCITEGIC>MOL_PROPERTY
W(PB)
SciTegic.value.DoubleValue
-4.588

@<SCITEGIC>MOL_PROPERTY
W(SA)
SciTegic.value.DoubleValue
1.599

@<SCITEGIC>MOL_PROPERTY
Valence
SciTegic.value.DoubleValue
6.334

@<SCITEGIC>MOL_PROPERTY
Coulomb
SciTegic.value.DoubleValue
-7.439

@<SCITEGIC>MOL_PROPERTY
VdW
SciTegic.value.DoubleValue
0.951

@<SCITEGIC>MOL_PROPERTY
VdW6
SciTegic.value.DoubleValue
-2.120

@<SCITEGIC>MOL_PROPERTY
VdW12
SciTegic.value.DoubleValue
3.072

@<SCITEGIC>MOL_PROPERTY
Bond
SciTegic.value.DoubleValue
0.065

@<SCITEGIC>MOL_PROPERTY
Angle
SciTegic.value.DoubleValue
0.930

@<SCITEGIC>MOL_PROPERTY
Pdih
SciTegic.value.DoubleValue
5.339

@<SCITEGIC>MOL_PROPERTY
Idih
SciTegic.value.DoubleValue
0.000

@<SCITEGIC>MOL_PROPERTY
Tether
SciTegic.value.DoubleValue
0.000

@<TRIPOS>MOLECULE
guest-s16_confgen4.mol2 : confsearch ligand conformer 498
          13          13           1
SMALL
USER_CHARGES
 
@<TRIPOS>ATOM
       1    C1      18.557078   19.285450   21.725764 C.3        1 MOL1        -0.1693
       2    H1      17.466528   19.212684   21.811691 H          1 MOL1         0.0829
       3    H2      18.801089   19.829972   20.804265 H          1 MOL1         0.0829
       4    C2      19.353698   17.953003   21.923132 C.3        1 MOL1        -0.1768
       5    H3      18.884286   17.239945   22.611584 H          1 MOL1         0.0829
       6    H4      19.637102   17.421727   21.007806 H          1 MOL1         0.0829
       7    C3      20.470769   18.828090   22.572598 C.3        1 MOL1         0.1211
       8    H5      21.000905   18.348411   23.405471 H          1 MOL1         0.0786
       9    C4      19.316098   19.787969   22.998582 C.3        1 MOL1        -0.1768
      10    H6      19.562741   20.855222   23.020689 H          1 MOL1         0.0829
      11    H7      18.836946   19.520009   23.948100 H          1 MOL1         0.0829
      12    O1      21.399954   19.379230   21.661004 O.3        1 MOL1        -0.5515
      13    H8      21.934493   20.037983   22.153415 H          1 MOL1         0.3773
@<TRIPOS>BOND
    1     1     2    1
    2     1     3    1
    3     1     4    1
    4     4     5    1
    5     4     6    1
    6     4     7    1
    7     7     8    1
    8     1     9    1
    9     7     9    1
   10     9    10    1
   11     9    11    1
   12     7    12    1
   13    12    13    1
@<TRIPOS>SUBSTRUCTURE
       1 MOL1            1 RESIDUE      1      MOL     
@<SCITEGIC>MOL_PROPERTY
VConf Rank
SciTegic.value.IntegerValue
498

@<SCITEGIC>MOL_PROPERTY
Conf_Id
SciTegic.value.IntegerValue
20

@<SCITEGIC>MOL_PROPERTY
Delta U+W
SciTegic.value.DoubleValue
1.030

@<SCITEGIC>MOL_PROPERTY
U+W
SciTegic.value.DoubleValue
-2.101

@<SCITEGIC>MOL_PROPERTY
Grad RMS
SciTegic.value.DoubleValue
0.000000

@<SCITEGIC>MOL_PROPERTY
U
SciTegic.value.DoubleValue
0.841

@<SCITEGIC>MOL_PROPERTY
W
SciTegic.value.DoubleValue
-2.942

@<SCITEGIC>MOL_PROPERTY
W(PB)
SciTegic.value.DoubleValue
-4.530

@<SCITEGIC>MOL_PROPERTY
W(SA)
SciTegic.value.DoubleValue
1.587

@<SCITEGIC>MOL_PROPERTY
Valence
SciTegic.value.DoubleValue
6.736

@<SCITEGIC>MOL_PROPERTY
Coulomb
SciTegic.value.DoubleValue
-7.246

@<SCITEGIC>MOL_PROPERTY
VdW
SciTegic.value.DoubleValue
1.352

@<SCITEGIC>MOL_PROPERTY
VdW6
SciTegic.value.DoubleValue
-2.500

@<SCITEGIC>MOL_PROPERTY
VdW12
SciTegic.value.DoubleValue
3.851

@<SCITEGIC>MOL_PROPERTY
Bond
SciTegic.value.DoubleValue
0.063

@<SCITEGIC>MOL_PROPERTY
Angle
SciTegic.value.DoubleValue
0.687

@<SCITEGIC>MOL_PROPERTY
Pdih
SciTegic.value.DoubleValue
5.986

@<SCITEGIC>MOL_PROPERTY
Idih
SciTegic.value.DoubleValue
0.000

@<SCITEGIC>MOL_PROPERTY
Tether
SciTegic.value.DoubleValue
0.000

@<TRIPOS>MOLECULE
guest-s16_confgen4.mol2 : confsearch ligand conformer 499
          13          13           1
SMALL
USER_CHARGES
 
@<TRIPOS>ATOM
       1    C1      19.231371   18.359846   23.224544 C.3        1 MOL1        -0.1693
       2    H1      18.385017   18.843747   23.729710 H          1 MOL1         0.0829
       3    H2      19.453568   17.417305   23.739001 H          1 MOL1         0.0829
       4    C2      20.452987   19.298036   22.951026 C.3        1 MOL1        -0.1768
       5    H3      20.628234   20.088874   23.688695 H          1 MOL1         0.0829
       6    H4      21.398943   18.774796   22.764545 H          1 MOL1         0.0829
       7    C3      19.678884   19.728338   21.668543 C.3        1 MOL1         0.1211
       8    H5      18.923114   20.505570   21.845789 H          1 MOL1         0.0786
       9    C4      19.104458   18.279480   21.667370 C.3        1 MOL1        -0.1768
      10    H6      19.749001   17.528580   21.193976 H          1 MOL1         0.0829
      11    H7      18.088750   18.170779   21.271373 H          1 MOL1         0.0829
      12    O1      20.481719   20.061139   20.561062 O.3        1 MOL1        -0.5515
      13    H8      21.132556   19.336348   20.452400 H          1 MOL1         0.3773
@<TRIPOS>BOND
    1     1     2    1
    2     1     3    1
    3     1     4    1
    4     4     5    1
    5     4     6    1
    6     4     7    1
    7     7     8    1
    8     1     9    1
    9     7     9    1
   10     9    10    1
   11     9    11    1
   12     7    12    1
   13    12    13    1
@<TRIPOS>SUBSTRUCTURE
       1 MOL1            1 RESIDUE      1      MOL     
@<SCITEGIC>MOL_PROPERTY
VConf Rank
SciTegic.value.IntegerValue
499

@<SCITEGIC>MOL_PROPERTY
Conf_Id
SciTegic.value.IntegerValue
24

@<SCITEGIC>MOL_PROPERTY
Delta U+W
SciTegic.value.DoubleValue
0.356

@<SCITEGIC>MOL_PROPERTY
U+W
SciTegic.value.DoubleValue
-2.775

@<SCITEGIC>MOL_PROPERTY
Grad RMS
SciTegic.value.DoubleValue
0.000000

@<SCITEGIC>MOL_PROPERTY
U
SciTegic.value.DoubleValue
-0.184

@<SCITEGIC>MOL_PROPERTY
W
SciTegic.value.DoubleValue
-2.591

@<SCITEGIC>MOL_PROPERTY
W(PB)
SciTegic.value.DoubleValue
-4.184

@<SCITEGIC>MOL_PROPERTY
W(SA)
SciTegic.value.DoubleValue
1.593

@<SCITEGIC>MOL_PROPERTY
Valence
SciTegic.value.DoubleValue
6.840

@<SCITEGIC>MOL_PROPERTY
Coulomb
SciTegic.value.DoubleValue
-7.916

@<SCITEGIC>MOL_PROPERTY
VdW
SciTegic.value.DoubleValue
0.893

@<SCITEGIC>MOL_PROPERTY
VdW6
SciTegic.value.DoubleValue
-2.167

@<SCITEGIC>MOL_PROPERTY
VdW12
SciTegic.value.DoubleValue
3.060

@<SCITEGIC>MOL_PROPERTY
Bond
SciTegic.value.DoubleValue
0.059

@<SCITEGIC>MOL_PROPERTY
Angle
SciTegic.value.DoubleValue
0.918

@<SCITEGIC>MOL_PROPERTY
Pdih
SciTegic.value.DoubleValue
5.862

@<SCITEGIC>MOL_PROPERTY
Idih
SciTegic.value.DoubleValue
0.000

@<SCITEGIC>MOL_PROPERTY
Tether
SciTegic.value.DoubleValue
0.000

@<TRIPOS>MOLECULE
guest-s16_confgen4.mol2 : confsearch ligand conformer 500
          13          13           1
SMALL
USER_CHARGES
 
@<TRIPOS>ATOM
       1    C1      19.390067   17.920611   22.476831 C.3        1 MOL1        -0.1693
       2    H1      18.557346   17.250995   22.722925 H          1 MOL1         0.0829
       3    H2      20.320118   17.338419   22.495643 H          1 MOL1         0.0829
       4    C2      19.441151   19.268999   23.270165 C.3        1 MOL1        -0.1768
       5    H3      18.459623   19.656379   23.569422 H          1 MOL1         0.0829
       6    H4      20.104974   19.292057   24.141667 H          1 MOL1         0.0829
       7    C3      20.007047   19.909395   21.964927 C.3        1 MOL1         0.1211
       8    H5      19.677299   20.939076   21.776482 H          1 MOL1         0.0786
       9    C4      19.197547   18.813112   21.205409 C.3        1 MOL1        -0.1768
      10    H6      18.156291   19.088713   20.998419 H          1 MOL1         0.0829
      11    H7      19.649332   18.439357   20.279717 H          1 MOL1         0.0829
      12    O1      21.407849   19.817355   21.819983 O.3        1 MOL1        -0.5515
      13    H8      21.643212   18.883504   21.998420 H          1 MOL1         0.3773
@<TRIPOS>BOND
    1     1     2    1
    2     1     3    1
    3     1     4    1
    4     4     5    1
    5     4     6    1
    6     4     7    1
    7     7     8    1
    8     1     9    1
    9     7     9    1
   10     9    10    1
   11     9    11    1
   12     7    12    1
   13    12    13    1
@<TRIPOS>SUBSTRUCTURE
       1 MOL1            1 RESIDUE      1      MOL     
@<SCITEGIC>MOL_PROPERTY
VConf Rank
SciTegic.value.IntegerValue
500

@<SCITEGIC>MOL_PROPERTY
Conf_Id
SciTegic.value.IntegerValue
44

@<SCITEGIC>MOL_PROPERTY
Delta U+W
SciTegic.value.DoubleValue
0.823

@<SCITEGIC>MOL_PROPERTY
U+W
SciTegic.value.DoubleValue
-2.308

@<SCITEGIC>MOL_PROPERTY
Grad RMS
SciTegic.value.DoubleValue
0.000000

@<SCITEGIC>MOL_PROPERTY
U
SciTegic.value.DoubleValue
0.039

@<SCITEGIC>MOL_PROPERTY
W
SciTegic.value.DoubleValue
-2.348

@<SCITEGIC>MOL_PROPERTY
W(PB)
SciTegic.value.DoubleValue
-3.918

@<SCITEGIC>MOL_PROPERTY
W(SA)
SciTegic.value.DoubleValue
1.571

@<SCITEGIC>MOL_PROPERTY
Valence
SciTegic.value.DoubleValue
7.320

@<SCITEGIC>MOL_PROPERTY
Coulomb
SciTegic.value.DoubleValue
-8.530

@<SCITEGIC>MOL_PROPERTY
VdW
SciTegic.value.DoubleValue
1.249

@<SCITEGIC>MOL_PROPERTY
VdW6
SciTegic.value.DoubleValue
-2.615

@<SCITEGIC>MOL_PROPERTY
VdW12
SciTegic.value.DoubleValue
3.864

@<SCITEGIC>MOL_PROPERTY
Bond
SciTegic.value.DoubleValue
0.056

@<SCITEGIC>MOL_PROPERTY
Angle
SciTegic.value.DoubleValue
0.694

@<SCITEGIC>MOL_PROPERTY
Pdih
SciTegic.value.DoubleValue
6.570

@<SCITEGIC>MOL_PROPERTY
Idih
SciTegic.value.DoubleValue
0.000

@<SCITEGIC>MOL_PROPERTY
Tether
SciTegic.value.DoubleValue
0.000

@<TRIPOS>MOLECULE
guest-s16_confgen4.mol2 : confsearch ligand conformer 501
          13          13           1
SMALL
USER_CHARGES
 
@<TRIPOS>ATOM
       1    C1      19.078813   18.220005   21.400965 C.3        1 MOL1        -0.1693
       2    H1      19.261215   17.160331   21.623244 H          1 MOL1         0.0829
       3    H2      18.398820   18.286130   20.543309 H          1 MOL1         0.0829
       4    C2      20.367237   19.104106   21.325892 C.3        1 MOL1        -0.1768
       5    H3      21.270989   18.611096   20.951548 H          1 MOL1         0.0829
       6    H4      20.240661   20.057300   20.797701 H          1 MOL1         0.0829
       7    C3      20.242324   19.203583   22.876166 C.3        1 MOL1         0.1211
       8    H5      20.674105   18.346580   23.411117 H          1 MOL1         0.0786
       9    C4      18.705125   19.094526   22.643099 C.3        1 MOL1        -0.1768
      10    H6      18.136422   18.591985   23.433164 H          1 MOL1         0.0829
      11    H7      18.212002   20.044707   22.402728 H          1 MOL1         0.0829
      12    O1      20.681967   20.417805   23.439126 O.3        1 MOL1        -0.5515
      13    H8      20.403049   20.419753   24.380085 H          1 MOL1         0.3773
@<TRIPOS>BOND
    1     1     2    1
    2     1     3    1
    3     1     4    1
    4     4     5    1
    5     4     6    1
    6     4     7    1
    7     7     8    1
    8     1     9    1
    9     7     9    1
   10     9    10    1
   11     9    11    1
   12     7    12    1
   13    12    13    1
@<TRIPOS>SUBSTRUCTURE
       1 MOL1            1 RESIDUE      1      MOL     
@<SCITEGIC>MOL_PROPERTY
VConf Rank
SciTegic.value.IntegerValue
501

@<SCITEGIC>MOL_PROPERTY
Conf_Id
SciTegic.value.IntegerValue
22

@<SCITEGIC>MOL_PROPERTY
Delta U+W
SciTegic.value.DoubleValue
0.000

@<SCITEGIC>MOL_PROPERTY
U+W
SciTegic.value.DoubleValue
-3.131

@<SCITEGIC>MOL_PROPERTY
Grad RMS
SciTegic.value.DoubleValue
0.000000

@<SCITEGIC>MOL_PROPERTY
U
SciTegic.value.DoubleValue
-0.154

@<SCITEGIC>MOL_PROPERTY
W
SciTegic.value.DoubleValue
-2.978

@<SCITEGIC>MOL_PROPERTY
W(PB)
SciTegic.value.DoubleValue
-4.579

@<SCITEGIC>MOL_PROPERTY
W(SA)
SciTegic.value.DoubleValue
1.601

@<SCITEGIC>MOL_PROPERTY
Valence
SciTegic.value.DoubleValue
6.333

@<SCITEGIC>MOL_PROPERTY
Coulomb
SciTegic.value.DoubleValue
-7.439

@<SCITEGIC>MOL_PROPERTY
VdW
SciTegic.value.DoubleValue
0.952

@<SCITEGIC>MOL_PROPERTY
VdW6
SciTegic.value.DoubleValue
-2.120

@<SCITEGIC>MOL_PROPERTY
VdW12
SciTegic.value.DoubleValue
3.072

@<SCITEGIC>MOL_PROPERTY
Bond
SciTegic.value.DoubleValue
0.065

@<SCITEGIC>MOL_PROPERTY
Angle
SciTegic.value.DoubleValue
0.931

@<SCITEGIC>MOL_PROPERTY
Pdih
SciTegic.value.DoubleValue
5.338

@<SCITEGIC>MOL_PROPERTY
Idih
SciTegic.value.DoubleValue
0.000

@<SCITEGIC>MOL_PROPERTY
Tether
SciTegic.value.DoubleValue
0.000

@<TRIPOS>MOLECULE
guest-s16_confgen4.mol2 : confsearch ligand conformer 502
          13          13           1
SMALL
USER_CHARGES
 
@<TRIPOS>ATOM
       1    C1      20.837468   19.453455   22.187891 C.3        1 MOL1        -0.1693
       2    H1      20.966658   20.322340   22.846627 H          1 MOL1         0.0829
       3    H2      21.762988   19.304242   21.619133 H          1 MOL1         0.0829
       4    C2      19.512433   19.453725   21.356257 C.3        1 MOL1        -0.1768
       5    H3      19.520830   18.792282   20.480920 H          1 MOL1         0.0829
       6    H4      19.133915   20.435893   21.052544 H          1 MOL1         0.0829
       7    C3      18.856985   18.836074   22.628299 C.3        1 MOL1         0.1211
       8    H5      18.567699   19.577591   23.385615 H          1 MOL1         0.0786
       9    C4      20.248602   18.183949   22.887103 C.3        1 MOL1        -0.1768
      10    H6      20.416646   17.242913   22.348775 H          1 MOL1         0.0829
      11    H7      20.519631   18.041500   23.938869 H          1 MOL1         0.0829
      12    O1      17.804120   17.932173   22.385426 O.3        1 MOL1        -0.5515
      13    H8      17.034124   18.458245   22.079551 H          1 MOL1         0.3773
@<TRIPOS>BOND
    1     1     2    1
    2     1     3    1
    3     1     4    1
    4     4     5    1
    5     4     6    1
    6     4     7    1
    7     7     8    1
    8     1     9    1
    9     7     9    1
   10     9    10    1
   11     9    11    1
   12     7    12    1
   13    12    13    1
@<TRIPOS>SUBSTRUCTURE
       1 MOL1            1 RESIDUE      1      MOL     
@<SCITEGIC>MOL_PROPERTY
VConf Rank
SciTegic.value.IntegerValue
502

@<SCITEGIC>MOL_PROPERTY
Conf_Id
SciTegic.value.IntegerValue
19

@<SCITEGIC>MOL_PROPERTY
Delta U+W
SciTegic.value.DoubleValue
-0.011

@<SCITEGIC>MOL_PROPERTY
U+W
SciTegic.value.DoubleValue
-3.142

@<SCITEGIC>MOL_PROPERTY
Grad RMS
SciTegic.value.DoubleValue
0.000000

@<SCITEGIC>MOL_PROPERTY
U
SciTegic.value.DoubleValue
-0.154

@<SCITEGIC>MOL_PROPERTY
W
SciTegic.value.DoubleValue
-2.989

@<SCITEGIC>MOL_PROPERTY
W(PB)
SciTegic.value.DoubleValue
-4.588

@<SCITEGIC>MOL_PROPERTY
W(SA)
SciTegic.value.DoubleValue
1.599

@<SCITEGIC>MOL_PROPERTY
Valence
SciTegic.value.DoubleValue
6.334

@<SCITEGIC>MOL_PROPERTY
Coulomb
SciTegic.value.DoubleValue
-7.439

@<SCITEGIC>MOL_PROPERTY
VdW
SciTegic.value.DoubleValue
0.951

@<SCITEGIC>MOL_PROPERTY
VdW6
SciTegic.value.DoubleValue
-2.120

@<SCITEGIC>MOL_PROPERTY
VdW12
SciTegic.value.DoubleValue
3.072

@<SCITEGIC>MOL_PROPERTY
Bond
SciTegic.value.DoubleValue
0.065

@<SCITEGIC>MOL_PROPERTY
Angle
SciTegic.value.DoubleValue
0.930

@<SCITEGIC>MOL_PROPERTY
Pdih
SciTegic.value.DoubleValue
5.339

@<SCITEGIC>MOL_PROPERTY
Idih
SciTegic.value.DoubleValue
0.000

@<SCITEGIC>MOL_PROPERTY
Tether
SciTegic.value.DoubleValue
0.000

@<TRIPOS>MOLECULE
guest-s16_confgen4.mol2 : confsearch ligand conformer 503
          13          13           1
SMALL
USER_CHARGES
 
@<TRIPOS>ATOM
       1    C1      18.837952   19.718612   22.946967 C.3        1 MOL1        -0.1693
       2    H1      17.789608   19.831647   23.247258 H          1 MOL1         0.0829
       3    H2      19.441475   20.453509   23.495504 H          1 MOL1         0.0829
       4    C2      19.111911   19.672906   21.406893 C.3        1 MOL1        -0.1768
       5    H3      18.300403   19.235032   20.813186 H          1 MOL1         0.0829
       6    H4      19.414153   20.618658   20.943647 H          1 MOL1         0.0829
       7    C3      20.269329   18.679944   21.738312 C.3        1 MOL1         0.1211
       8    H5      20.420358   17.888705   20.992696 H          1 MOL1         0.0786
       9    C4      19.407736   18.261393   22.970614 C.3        1 MOL1        -0.1768
      10    H6      19.963866   17.977635   23.870921 H          1 MOL1         0.0829
      11    H7      18.667369   17.481045   22.756398 H          1 MOL1         0.0829
      12    O1      21.504854   19.290344   22.053011 O.3        1 MOL1        -0.5515
      13    H8      22.092674   18.590265   22.408694 H          1 MOL1         0.3773
@<TRIPOS>BOND
    1     1     2    1
    2     1     3    1
    3     1     4    1
    4     4     5    1
    5     4     6    1
    6     4     7    1
    7     7     8    1
    8     1     9    1
    9     7     9    1
   10     9    10    1
   11     9    11    1
   12     7    12    1
   13    12    13    1
@<TRIPOS>SUBSTRUCTURE
       1 MOL1            1 RESIDUE      1      MOL     
@<SCITEGIC>MOL_PROPERTY
VConf Rank
SciTegic.value.IntegerValue
503

@<SCITEGIC>MOL_PROPERTY
Conf_Id
SciTegic.value.IntegerValue
20

@<SCITEGIC>MOL_PROPERTY
Delta U+W
SciTegic.value.DoubleValue
1.030

@<SCITEGIC>MOL_PROPERTY
U+W
SciTegic.value.DoubleValue
-2.101

@<SCITEGIC>MOL_PROPERTY
Grad RMS
SciTegic.value.DoubleValue
0.000000

@<SCITEGIC>MOL_PROPERTY
U
SciTegic.value.DoubleValue
0.841

@<SCITEGIC>MOL_PROPERTY
W
SciTegic.value.DoubleValue
-2.942

@<SCITEGIC>MOL_PROPERTY
W(PB)
SciTegic.value.DoubleValue
-4.530

@<SCITEGIC>MOL_PROPERTY
W(SA)
SciTegic.value.DoubleValue
1.587

@<SCITEGIC>MOL_PROPERTY
Valence
SciTegic.value.DoubleValue
6.736

@<SCITEGIC>MOL_PROPERTY
Coulomb
SciTegic.value.DoubleValue
-7.246

@<SCITEGIC>MOL_PROPERTY
VdW
SciTegic.value.DoubleValue
1.352

@<SCITEGIC>MOL_PROPERTY
VdW6
SciTegic.value.DoubleValue
-2.500

@<SCITEGIC>MOL_PROPERTY
VdW12
SciTegic.value.DoubleValue
3.851

@<SCITEGIC>MOL_PROPERTY
Bond
SciTegic.value.DoubleValue
0.063

@<SCITEGIC>MOL_PROPERTY
Angle
SciTegic.value.DoubleValue
0.687

@<SCITEGIC>MOL_PROPERTY
Pdih
SciTegic.value.DoubleValue
5.986

@<SCITEGIC>MOL_PROPERTY
Idih
SciTegic.value.DoubleValue
0.000

@<SCITEGIC>MOL_PROPERTY
Tether
SciTegic.value.DoubleValue
0.000

@<TRIPOS>MOLECULE
guest-s16_confgen4.mol2 : confsearch ligand conformer 504
          13          13           1
SMALL
USER_CHARGES
 
@<TRIPOS>ATOM
       1    C1      19.083914   17.863165   22.334513 C.3        1 MOL1        -0.1693
       2    H1      19.646917   16.929665   22.465941 H          1 MOL1         0.0829
       3    H2      18.012602   17.629301   22.338863 H          1 MOL1         0.0829
       4    C2      19.584730   18.769354   21.161754 C.3        1 MOL1        -0.1768
       5    H3      20.000335   18.247410   20.292766 H          1 MOL1         0.0829
       6    H4      18.854722   19.509592   20.811721 H          1 MOL1         0.0829
       7    C3      20.625709   19.310738   22.187629 C.3        1 MOL1         0.1211
       8    H5      21.519287   18.679844   22.288551 H          1 MOL1         0.0786
       9    C4      19.535111   19.035778   23.266585 C.3        1 MOL1        -0.1768
      10    H6      18.794012   19.835565   23.387008 H          1 MOL1         0.0829
      11    H7      19.906895   18.749129   24.256484 H          1 MOL1         0.0829
      12    O1      20.988344   20.661272   22.025233 O.3        1 MOL1        -0.5515
      13    H8      20.156026   21.172026   21.940987 H          1 MOL1         0.3773
@<TRIPOS>BOND
    1     1     2    1
    2     1     3    1
    3     1     4    1
    4     4     5    1
    5     4     6    1
    6     4     7    1
    7     7     8    1
    8     1     9    1
    9     7     9    1
   10     9    10    1
   11     9    11    1
   12     7    12    1
   13    12    13    1
@<TRIPOS>SUBSTRUCTURE
       1 MOL1            1 RESIDUE      1      MOL     
@<SCITEGIC>MOL_PROPERTY
VConf Rank
SciTegic.value.IntegerValue
504

@<SCITEGIC>MOL_PROPERTY
Conf_Id
SciTegic.value.IntegerValue
24

@<SCITEGIC>MOL_PROPERTY
Delta U+W
SciTegic.value.DoubleValue
0.356

@<SCITEGIC>MOL_PROPERTY
U+W
SciTegic.value.DoubleValue
-2.775

@<SCITEGIC>MOL_PROPERTY
Grad RMS
SciTegic.value.DoubleValue
0.000000

@<SCITEGIC>MOL_PROPERTY
U
SciTegic.value.DoubleValue
-0.184

@<SCITEGIC>MOL_PROPERTY
W
SciTegic.value.DoubleValue
-2.591

@<SCITEGIC>MOL_PROPERTY
W(PB)
SciTegic.value.DoubleValue
-4.184

@<SCITEGIC>MOL_PROPERTY
W(SA)
SciTegic.value.DoubleValue
1.593

@<SCITEGIC>MOL_PROPERTY
Valence
SciTegic.value.DoubleValue
6.840

@<SCITEGIC>MOL_PROPERTY
Coulomb
SciTegic.value.DoubleValue
-7.916

@<SCITEGIC>MOL_PROPERTY
VdW
SciTegic.value.DoubleValue
0.893

@<SCITEGIC>MOL_PROPERTY
VdW6
SciTegic.value.DoubleValue
-2.167

@<SCITEGIC>MOL_PROPERTY
VdW12
SciTegic.value.DoubleValue
3.060

@<SCITEGIC>MOL_PROPERTY
Bond
SciTegic.value.DoubleValue
0.059

@<SCITEGIC>MOL_PROPERTY
Angle
SciTegic.value.DoubleValue
0.918

@<SCITEGIC>MOL_PROPERTY
Pdih
SciTegic.value.DoubleValue
5.862

@<SCITEGIC>MOL_PROPERTY
Idih
SciTegic.value.DoubleValue
0.000

@<SCITEGIC>MOL_PROPERTY
Tether
SciTegic.value.DoubleValue
0.000

@<TRIPOS>MOLECULE
guest-s16_confgen4.mol2 : confsearch ligand conformer 505
          13          13           1
SMALL
USER_CHARGES
 
@<TRIPOS>ATOM
       1    C1      19.094140   18.167183   21.697745 C.3        1 MOL1        -0.1693
       2    H1      18.278584   17.949607   20.997814 H          1 MOL1         0.0829
       3    H2      19.506503   17.215404   22.056033 H          1 MOL1         0.0829
       4    C2      18.772532   19.209604   22.820271 C.3        1 MOL1        -0.1768
       5    H3      18.040997   19.974504   22.532521 H          1 MOL1         0.0829
       6    H4      18.481272   18.797819   23.793055 H          1 MOL1         0.0829
       7    C3      20.257853   19.669215   22.691547 C.3        1 MOL1         0.1211
       8    H5      20.420216   20.746193   22.826615 H          1 MOL1         0.0786
       9    C4      20.159750   19.202927   21.205968 C.3        1 MOL1        -0.1768
      10    H6      19.768340   19.966189   20.522414 H          1 MOL1         0.0829
      11    H7      21.075944   18.785330   20.773637 H          1 MOL1         0.0829
      12    O1      21.173089   18.940689   23.481054 O.3        1 MOL1        -0.5515
      13    H8      20.982639   17.993307   23.321333 H          1 MOL1         0.3773
@<TRIPOS>BOND
    1     1     2    1
    2     1     3    1
    3     1     4    1
    4     4     5    1
    5     4     6    1
    6     4     7    1
    7     7     8    1
    8     1     9    1
    9     7     9    1
   10     9    10    1
   11     9    11    1
   12     7    12    1
   13    12    13    1
@<TRIPOS>SUBSTRUCTURE
       1 MOL1            1 RESIDUE      1      MOL     
@<SCITEGIC>MOL_PROPERTY
VConf Rank
SciTegic.value.IntegerValue
505

@<SCITEGIC>MOL_PROPERTY
Conf_Id
SciTegic.value.IntegerValue
44

@<SCITEGIC>MOL_PROPERTY
Delta U+W
SciTegic.value.DoubleValue
0.823

@<SCITEGIC>MOL_PROPERTY
U+W
SciTegic.value.DoubleValue
-2.308

@<SCITEGIC>MOL_PROPERTY
Grad RMS
SciTegic.value.DoubleValue
0.000000

@<SCITEGIC>MOL_PROPERTY
U
SciTegic.value.DoubleValue
0.039

@<SCITEGIC>MOL_PROPERTY
W
SciTegic.value.DoubleValue
-2.348

@<SCITEGIC>MOL_PROPERTY
W(PB)
SciTegic.value.DoubleValue
-3.918

@<SCITEGIC>MOL_PROPERTY
W(SA)
SciTegic.value.DoubleValue
1.571

@<SCITEGIC>MOL_PROPERTY
Valence
SciTegic.value.DoubleValue
7.320

@<SCITEGIC>MOL_PROPERTY
Coulomb
SciTegic.value.DoubleValue
-8.530

@<SCITEGIC>MOL_PROPERTY
VdW
SciTegic.value.DoubleValue
1.249

@<SCITEGIC>MOL_PROPERTY
VdW6
SciTegic.value.DoubleValue
-2.615

@<SCITEGIC>MOL_PROPERTY
VdW12
SciTegic.value.DoubleValue
3.864

@<SCITEGIC>MOL_PROPERTY
Bond
SciTegic.value.DoubleValue
0.056

@<SCITEGIC>MOL_PROPERTY
Angle
SciTegic.value.DoubleValue
0.694

@<SCITEGIC>MOL_PROPERTY
Pdih
SciTegic.value.DoubleValue
6.570

@<SCITEGIC>MOL_PROPERTY
Idih
SciTegic.value.DoubleValue
0.000

@<SCITEGIC>MOL_PROPERTY
Tether
SciTegic.value.DoubleValue
0.000

@<TRIPOS>MOLECULE
guest-s16_confgen4.mol2 : confsearch ligand conformer 506
          13          13           1
SMALL
USER_CHARGES
 
@<TRIPOS>ATOM
       1    C1      20.534834   19.056290   21.254222 C.3        1 MOL1        -0.1693
       2    H1      20.659722   18.078637   20.770298 H          1 MOL1         0.0829
       3    H2      21.148774   19.792063   20.721256 H          1 MOL1         0.0829
       4    C2      20.680716   19.038957   22.811696 C.3        1 MOL1        -0.1768
       5    H3      21.384131   18.307111   23.223484 H          1 MOL1         0.0829
       6    H4      20.883130   20.017077   23.265453 H          1 MOL1         0.0829
       7    C3      19.180003   18.618833   22.825994 C.3        1 MOL1         0.1211
       8    H5      19.019982   17.542574   22.673932 H          1 MOL1         0.0786
       9    C4      19.050030   19.467639   21.525291 C.3        1 MOL1        -0.1768
      10    H6      18.311438   19.115683   20.796744 H          1 MOL1         0.0829
      11    H7      18.895552   20.540590   21.694721 H          1 MOL1         0.0829
      12    O1      18.434601   19.084793   23.926813 O.3        1 MOL1        -0.5515
      13    H8      17.489814   18.897658   23.738239 H          1 MOL1         0.3773
@<TRIPOS>BOND
    1     1     2    1
    2     1     3    1
    3     1     4    1
    4     4     5    1
    5     4     6    1
    6     4     7    1
    7     7     8    1
    8     1     9    1
    9     7     9    1
   10     9    10    1
   11     9    11    1
   12     7    12    1
   13    12    13    1
@<TRIPOS>SUBSTRUCTURE
       1 MOL1            1 RESIDUE      1      MOL     
@<SCITEGIC>MOL_PROPERTY
VConf Rank
SciTegic.value.IntegerValue
506

@<SCITEGIC>MOL_PROPERTY
Conf_Id
SciTegic.value.IntegerValue
22

@<SCITEGIC>MOL_PROPERTY
Delta U+W
SciTegic.value.DoubleValue
0.000

@<SCITEGIC>MOL_PROPERTY
U+W
SciTegic.value.DoubleValue
-3.131

@<SCITEGIC>MOL_PROPERTY
Grad RMS
SciTegic.value.DoubleValue
0.000000

@<SCITEGIC>MOL_PROPERTY
U
SciTegic.value.DoubleValue
-0.154

@<SCITEGIC>MOL_PROPERTY
W
SciTegic.value.DoubleValue
-2.978

@<SCITEGIC>MOL_PROPERTY
W(PB)
SciTegic.value.DoubleValue
-4.579

@<SCITEGIC>MOL_PROPERTY
W(SA)
SciTegic.value.DoubleValue
1.601

@<SCITEGIC>MOL_PROPERTY
Valence
SciTegic.value.DoubleValue
6.333

@<SCITEGIC>MOL_PROPERTY
Coulomb
SciTegic.value.DoubleValue
-7.439

@<SCITEGIC>MOL_PROPERTY
VdW
SciTegic.value.DoubleValue
0.952

@<SCITEGIC>MOL_PROPERTY
VdW6
SciTegic.value.DoubleValue
-2.120

@<SCITEGIC>MOL_PROPERTY
VdW12
SciTegic.value.DoubleValue
3.072

@<SCITEGIC>MOL_PROPERTY
Bond
SciTegic.value.DoubleValue
0.065

@<SCITEGIC>MOL_PROPERTY
Angle
SciTegic.value.DoubleValue
0.931

@<SCITEGIC>MOL_PROPERTY
Pdih
SciTegic.value.DoubleValue
5.338

@<SCITEGIC>MOL_PROPERTY
Idih
SciTegic.value.DoubleValue
0.000

@<SCITEGIC>MOL_PROPERTY
Tether
SciTegic.value.DoubleValue
0.000

@<TRIPOS>MOLECULE
guest-s16_confgen4.mol2 : confsearch ligand conformer 507
          13          13           1
SMALL
USER_CHARGES
 
@<TRIPOS>ATOM
       1    C1      20.849342   18.694376   22.692597 C.3        1 MOL1        -0.1693
       2    H1      21.602031   18.633152   21.895541 H          1 MOL1         0.0829
       3    H2      21.337944   18.488907   23.652487 H          1 MOL1         0.0829
       4    C2      19.530297   17.902314   22.409601 C.3        1 MOL1        -0.1768
       5    H3      18.926902   17.684359   23.299659 H          1 MOL1         0.0829
       6    H4      19.635942   16.984032   21.821579 H          1 MOL1         0.0829
       7    C3      19.083324   19.168634   21.618498 C.3        1 MOL1         0.1211
       8    H5      19.466144   19.209715   20.589506 H          1 MOL1         0.0786
       9    C4      19.944278   19.969346   22.641465 C.3        1 MOL1        -0.1768
      10    H6      19.430055   20.206163   23.581187 H          1 MOL1         0.0829
      11    H7      20.414493   20.881206   22.257576 H          1 MOL1         0.0829
      12    O1      17.701763   19.442264   21.649560 O.3        1 MOL1        -0.5515
      13    H8      17.259583   18.769914   21.087754 H          1 MOL1         0.3773
@<TRIPOS>BOND
    1     1     2    1
    2     1     3    1
    3     1     4    1
    4     4     5    1
    5     4     6    1
    6     4     7    1
    7     7     8    1
    8     1     9    1
    9     7     9    1
   10     9    10    1
   11     9    11    1
   12     7    12    1
   13    12    13    1
@<TRIPOS>SUBSTRUCTURE
       1 MOL1            1 RESIDUE      1      MOL     
@<SCITEGIC>MOL_PROPERTY
VConf Rank
SciTegic.value.IntegerValue
507

@<SCITEGIC>MOL_PROPERTY
Conf_Id
SciTegic.value.IntegerValue
19

@<SCITEGIC>MOL_PROPERTY
Delta U+W
SciTegic.value.DoubleValue
-0.011

@<SCITEGIC>MOL_PROPERTY
U+W
SciTegic.value.DoubleValue
-3.142

@<SCITEGIC>MOL_PROPERTY
Grad RMS
SciTegic.value.DoubleValue
0.000000

@<SCITEGIC>MOL_PROPERTY
U
SciTegic.value.DoubleValue
-0.154

@<SCITEGIC>MOL_PROPERTY
W
SciTegic.value.DoubleValue
-2.989

@<SCITEGIC>MOL_PROPERTY
W(PB)
SciTegic.value.DoubleValue
-4.588

@<SCITEGIC>MOL_PROPERTY
W(SA)
SciTegic.value.DoubleValue
1.599

@<SCITEGIC>MOL_PROPERTY
Valence
SciTegic.value.DoubleValue
6.334

@<SCITEGIC>MOL_PROPERTY
Coulomb
SciTegic.value.DoubleValue
-7.439

@<SCITEGIC>MOL_PROPERTY
VdW
SciTegic.value.DoubleValue
0.951

@<SCITEGIC>MOL_PROPERTY
VdW6
SciTegic.value.DoubleValue
-2.120

@<SCITEGIC>MOL_PROPERTY
VdW12
SciTegic.value.DoubleValue
3.072

@<SCITEGIC>MOL_PROPERTY
Bond
SciTegic.value.DoubleValue
0.065

@<SCITEGIC>MOL_PROPERTY
Angle
SciTegic.value.DoubleValue
0.930

@<SCITEGIC>MOL_PROPERTY
Pdih
SciTegic.value.DoubleValue
5.339

@<SCITEGIC>MOL_PROPERTY
Idih
SciTegic.value.DoubleValue
0.000

@<SCITEGIC>MOL_PROPERTY
Tether
SciTegic.value.DoubleValue
0.000

@<TRIPOS>MOLECULE
guest-s16_confgen4.mol2 : confsearch ligand conformer 508
          13          13           1
SMALL
USER_CHARGES
 
@<TRIPOS>ATOM
       1    C1      20.018888   20.109055   22.785011 C.3        1 MOL1        -0.1693
       2    H1      20.484849   21.082045   22.589698 H          1 MOL1         0.0829
       3    H2      19.724540   20.066552   23.841779 H          1 MOL1         0.0829
       4    C2      20.806080   18.854724   22.279091 C.3        1 MOL1        -0.1768
       5    H3      21.405134   19.026959   21.376741 H          1 MOL1         0.0829
       6    H4      21.430175   18.346292   23.022324 H          1 MOL1         0.0829
       7    C3      19.412259   18.207543   22.007341 C.3        1 MOL1         0.1211
       8    H5      19.372613   17.563521   21.119378 H          1 MOL1         0.0786
       9    C4      18.903652   19.665662   21.780844 C.3        1 MOL1        -0.1768
      10    H6      17.871854   19.867369   22.089162 H          1 MOL1         0.0829
      11    H7      19.041426   20.035178   20.757394 H          1 MOL1         0.0829
      12    O1      18.840089   17.540642   23.114594 O.3        1 MOL1        -0.5515
      13    H8      17.910127   17.334153   22.880742 H          1 MOL1         0.3773
@<TRIPOS>BOND
    1     1     2    1
    2     1     3    1
    3     1     4    1
    4     4     5    1
    5     4     6    1
    6     4     7    1
    7     7     8    1
    8     1     9    1
    9     7     9    1
   10     9    10    1
   11     9    11    1
   12     7    12    1
   13    12    13    1
@<TRIPOS>SUBSTRUCTURE
       1 MOL1            1 RESIDUE      1      MOL     
@<SCITEGIC>MOL_PROPERTY
VConf Rank
SciTegic.value.IntegerValue
508

@<SCITEGIC>MOL_PROPERTY
Conf_Id
SciTegic.value.IntegerValue
20

@<SCITEGIC>MOL_PROPERTY
Delta U+W
SciTegic.value.DoubleValue
1.030

@<SCITEGIC>MOL_PROPERTY
U+W
SciTegic.value.DoubleValue
-2.101

@<SCITEGIC>MOL_PROPERTY
Grad RMS
SciTegic.value.DoubleValue
0.000000

@<SCITEGIC>MOL_PROPERTY
U
SciTegic.value.DoubleValue
0.841

@<SCITEGIC>MOL_PROPERTY
W
SciTegic.value.DoubleValue
-2.942

@<SCITEGIC>MOL_PROPERTY
W(PB)
SciTegic.value.DoubleValue
-4.530

@<SCITEGIC>MOL_PROPERTY
W(SA)
SciTegic.value.DoubleValue
1.587

@<SCITEGIC>MOL_PROPERTY
Valence
SciTegic.value.DoubleValue
6.736

@<SCITEGIC>MOL_PROPERTY
Coulomb
SciTegic.value.DoubleValue
-7.246

@<SCITEGIC>MOL_PROPERTY
VdW
SciTegic.value.DoubleValue
1.352

@<SCITEGIC>MOL_PROPERTY
VdW6
SciTegic.value.DoubleValue
-2.500

@<SCITEGIC>MOL_PROPERTY
VdW12
SciTegic.value.DoubleValue
3.851

@<SCITEGIC>MOL_PROPERTY
Bond
SciTegic.value.DoubleValue
0.063

@<SCITEGIC>MOL_PROPERTY
Angle
SciTegic.value.DoubleValue
0.687

@<SCITEGIC>MOL_PROPERTY
Pdih
SciTegic.value.DoubleValue
5.986

@<SCITEGIC>MOL_PROPERTY
Idih
SciTegic.value.DoubleValue
0.000

@<SCITEGIC>MOL_PROPERTY
Tether
SciTegic.value.DoubleValue
0.000

@<TRIPOS>MOLECULE
guest-s16_confgen4.mol2 : confsearch ligand conformer 509
          13          13           1
SMALL
USER_CHARGES
 
@<TRIPOS>ATOM
       1    C1      20.886736   18.371055   22.146042 C.3        1 MOL1        -0.1693
       2    H1      21.772379   18.992024   21.957087 H          1 MOL1         0.0829
       3    H2      21.205645   17.326175   22.240609 H          1 MOL1         0.0829
       4    C2      19.683362   18.637771   21.182657 C.3        1 MOL1        -0.1768
       5    H3      19.941022   18.936831   20.160665 H          1 MOL1         0.0829
       6    H4      18.945696   17.827136   21.136754 H          1 MOL1         0.0829
       7    C3      19.320099   19.799242   22.156403 C.3        1 MOL1         0.1211
       8    H5      19.877585   20.726955   21.968648 H          1 MOL1         0.0786
       9    C4      19.941340   18.905601   23.272028 C.3        1 MOL1        -0.1768
      10    H6      19.261336   18.154829   23.693126 H          1 MOL1         0.0829
      11    H7      20.426831   19.441196   24.095270 H          1 MOL1         0.0829
      12    O1      17.944587   20.066451   22.291988 O.3        1 MOL1        -0.5515
      13    H8      17.501985   19.207572   22.456759 H          1 MOL1         0.3773
@<TRIPOS>BOND
    1     1     2    1
    2     1     3    1
    3     1     4    1
    4     4     5    1
    5     4     6    1
    6     4     7    1
    7     7     8    1
    8     1     9    1
    9     7     9    1
   10     9    10    1
   11     9    11    1
   12     7    12    1
   13    12    13    1
@<TRIPOS>SUBSTRUCTURE
       1 MOL1            1 RESIDUE      1      MOL     
@<SCITEGIC>MOL_PROPERTY
VConf Rank
SciTegic.value.IntegerValue
509

@<SCITEGIC>MOL_PROPERTY
Conf_Id
SciTegic.value.IntegerValue
24

@<SCITEGIC>MOL_PROPERTY
Delta U+W
SciTegic.value.DoubleValue
0.356

@<SCITEGIC>MOL_PROPERTY
U+W
SciTegic.value.DoubleValue
-2.775

@<SCITEGIC>MOL_PROPERTY
Grad RMS
SciTegic.value.DoubleValue
0.000000

@<SCITEGIC>MOL_PROPERTY
U
SciTegic.value.DoubleValue
-0.184

@<SCITEGIC>MOL_PROPERTY
W
SciTegic.value.DoubleValue
-2.591

@<SCITEGIC>MOL_PROPERTY
W(PB)
SciTegic.value.DoubleValue
-4.184

@<SCITEGIC>MOL_PROPERTY
W(SA)
SciTegic.value.DoubleValue
1.593

@<SCITEGIC>MOL_PROPERTY
Valence
SciTegic.value.DoubleValue
6.840

@<SCITEGIC>MOL_PROPERTY
Coulomb
SciTegic.value.DoubleValue
-7.916

@<SCITEGIC>MOL_PROPERTY
VdW
SciTegic.value.DoubleValue
0.893

@<SCITEGIC>MOL_PROPERTY
VdW6
SciTegic.value.DoubleValue
-2.167

@<SCITEGIC>MOL_PROPERTY
VdW12
SciTegic.value.DoubleValue
3.060

@<SCITEGIC>MOL_PROPERTY
Bond
SciTegic.value.DoubleValue
0.059

@<SCITEGIC>MOL_PROPERTY
Angle
SciTegic.value.DoubleValue
0.918

@<SCITEGIC>MOL_PROPERTY
Pdih
SciTegic.value.DoubleValue
5.862

@<SCITEGIC>MOL_PROPERTY
Idih
SciTegic.value.DoubleValue
0.000

@<SCITEGIC>MOL_PROPERTY
Tether
SciTegic.value.DoubleValue
0.000

@<TRIPOS>MOLECULE
guest-s16_confgen4.mol2 : confsearch ligand conformer 510
          13          13           1
SMALL
USER_CHARGES
 
@<TRIPOS>ATOM
       1    C1      19.083897   18.853773   21.270567 C.3        1 MOL1        -0.1693
       2    H1      18.274929   19.266641   20.656171 H          1 MOL1         0.0829
       3    H2      19.468050   17.951927   20.777216 H          1 MOL1         0.0829
       4    C2      18.768588   18.686939   22.794668 C.3        1 MOL1        -0.1768
       5    H3      18.059882   19.422570   23.194167 H          1 MOL1         0.0829
       6    H4      18.452063   17.688359   23.116165 H          1 MOL1         0.0829
       7    C3      20.266133   19.042465   23.049524 C.3        1 MOL1         0.1211
       8    H5      20.451405   19.635005   23.954542 H          1 MOL1         0.0786
       9    C4      20.181245   19.870942   21.730277 C.3        1 MOL1        -0.1768
      10    H6      19.818901   20.896873   21.868801 H          1 MOL1         0.0829
      11    H7      21.094316   19.902938   21.125309 H          1 MOL1         0.0829
      12    O1      21.151185   17.944194   23.002480 O.3        1 MOL1        -0.5515
      13    H8      20.941264   17.455345   22.180121 H          1 MOL1         0.3773
@<TRIPOS>BOND
    1     1     2    1
    2     1     3    1
    3     1     4    1
    4     4     5    1
    5     4     6    1
    6     4     7    1
    7     7     8    1
    8     1     9    1
    9     7     9    1
   10     9    10    1
   11     9    11    1
   12     7    12    1
   13    12    13    1
@<TRIPOS>SUBSTRUCTURE
       1 MOL1            1 RESIDUE      1      MOL     
@<SCITEGIC>MOL_PROPERTY
VConf Rank
SciTegic.value.IntegerValue
510

@<SCITEGIC>MOL_PROPERTY
Conf_Id
SciTegic.value.IntegerValue
44

@<SCITEGIC>MOL_PROPERTY
Delta U+W
SciTegic.value.DoubleValue
0.823

@<SCITEGIC>MOL_PROPERTY
U+W
SciTegic.value.DoubleValue
-2.308

@<SCITEGIC>MOL_PROPERTY
Grad RMS
SciTegic.value.DoubleValue
0.000000

@<SCITEGIC>MOL_PROPERTY
U
SciTegic.value.DoubleValue
0.039

@<SCITEGIC>MOL_PROPERTY
W
SciTegic.value.DoubleValue
-2.348

@<SCITEGIC>MOL_PROPERTY
W(PB)
SciTegic.value.DoubleValue
-3.918

@<SCITEGIC>MOL_PROPERTY
W(SA)
SciTegic.value.DoubleValue
1.571

@<SCITEGIC>MOL_PROPERTY
Valence
SciTegic.value.DoubleValue
7.320

@<SCITEGIC>MOL_PROPERTY
Coulomb
SciTegic.value.DoubleValue
-8.530

@<SCITEGIC>MOL_PROPERTY
VdW
SciTegic.value.DoubleValue
1.249

@<SCITEGIC>MOL_PROPERTY
VdW6
SciTegic.value.DoubleValue
-2.615

@<SCITEGIC>MOL_PROPERTY
VdW12
SciTegic.value.DoubleValue
3.864

@<SCITEGIC>MOL_PROPERTY
Bond
SciTegic.value.DoubleValue
0.056

@<SCITEGIC>MOL_PROPERTY
Angle
SciTegic.value.DoubleValue
0.694

@<SCITEGIC>MOL_PROPERTY
Pdih
SciTegic.value.DoubleValue
6.570

@<SCITEGIC>MOL_PROPERTY
Idih
SciTegic.value.DoubleValue
0.000

@<SCITEGIC>MOL_PROPERTY
Tether
SciTegic.value.DoubleValue
0.000

@<TRIPOS>MOLECULE
guest-s16_confgen4.mol2 : confsearch ligand conformer 511
          13          13           1
SMALL
USER_CHARGES
 
@<TRIPOS>ATOM
       1    C1      20.293382   18.721632   23.364518 C.3        1 MOL1        -0.1693
       2    H1      21.227144   18.168572   23.197792 H          1 MOL1         0.0829
       3    H2      20.176093   18.894779   24.440901 H          1 MOL1         0.0829
       4    C2      19.045812   18.138140   22.622619 C.3        1 MOL1        -0.1768
       5    H3      19.025377   17.050675   22.492375 H          1 MOL1         0.0829
       6    H4      18.078176   18.463735   23.024185 H          1 MOL1         0.0829
       7    C3      19.544153   18.958404   21.394747 C.3        1 MOL1         0.1211
       8    H5      20.323180   18.450626   20.809649 H          1 MOL1         0.0786
       9    C4      20.098595   19.970337   22.442497 C.3        1 MOL1        -0.1768
      10    H6      21.010850   20.504409   22.154872 H          1 MOL1         0.0829
      11    H7      19.362982   20.698390   22.806650 H          1 MOL1         0.0829
      12    O1      18.531137   19.457221   20.552413 O.3        1 MOL1        -0.5515
      13    H8      18.955846   20.080987   19.924925 H          1 MOL1         0.3773
@<TRIPOS>BOND
    1     1     2    1
    2     1     3    1
    3     1     4    1
    4     4     5    1
    5     4     6    1
    6     4     7    1
    7     7     8    1
    8     1     9    1
    9     7     9    1
   10     9    10    1
   11     9    11    1
   12     7    12    1
   13    12    13    1
@<TRIPOS>SUBSTRUCTURE
       1 MOL1            1 RESIDUE      1      MOL     
@<SCITEGIC>MOL_PROPERTY
VConf Rank
SciTegic.value.IntegerValue
511

@<SCITEGIC>MOL_PROPERTY
Conf_Id
SciTegic.value.IntegerValue
22

@<SCITEGIC>MOL_PROPERTY
Delta U+W
SciTegic.value.DoubleValue
0.000

@<SCITEGIC>MOL_PROPERTY
U+W
SciTegic.value.DoubleValue
-3.131

@<SCITEGIC>MOL_PROPERTY
Grad RMS
SciTegic.value.DoubleValue
0.000000

@<SCITEGIC>MOL_PROPERTY
U
SciTegic.value.DoubleValue
-0.154

@<SCITEGIC>MOL_PROPERTY
W
SciTegic.value.DoubleValue
-2.978

@<SCITEGIC>MOL_PROPERTY
W(PB)
SciTegic.value.DoubleValue
-4.579

@<SCITEGIC>MOL_PROPERTY
W(SA)
SciTegic.value.DoubleValue
1.601

@<SCITEGIC>MOL_PROPERTY
Valence
SciTegic.value.DoubleValue
6.333

@<SCITEGIC>MOL_PROPERTY
Coulomb
SciTegic.value.DoubleValue
-7.439

@<SCITEGIC>MOL_PROPERTY
VdW
SciTegic.value.DoubleValue
0.952

@<SCITEGIC>MOL_PROPERTY
VdW6
SciTegic.value.DoubleValue
-2.120

@<SCITEGIC>MOL_PROPERTY
VdW12
SciTegic.value.DoubleValue
3.072

@<SCITEGIC>MOL_PROPERTY
Bond
SciTegic.value.DoubleValue
0.065

@<SCITEGIC>MOL_PROPERTY
Angle
SciTegic.value.DoubleValue
0.931

@<SCITEGIC>MOL_PROPERTY
Pdih
SciTegic.value.DoubleValue
5.338

@<SCITEGIC>MOL_PROPERTY
Idih
SciTegic.value.DoubleValue
0.000

@<SCITEGIC>MOL_PROPERTY
Tether
SciTegic.value.DoubleValue
0.000

@<TRIPOS>MOLECULE
guest-s16_confgen4.mol2 : confsearch ligand conformer 512
          13          13           1
SMALL
USER_CHARGES
 
@<TRIPOS>ATOM
       1    C1      18.631191   18.958588   21.383468 C.3        1 MOL1        -0.1693
       2    H1      17.913536   18.137986   21.514503 H          1 MOL1         0.0829
       3    H2      18.326581   19.555218   20.515376 H          1 MOL1         0.0829
       4    C2      20.134238   18.527013   21.427306 C.3        1 MOL1        -0.1768
       5    H3      20.831104   19.248229   20.982315 H          1 MOL1         0.0829
       6    H4      20.361140   17.529443   21.035460 H          1 MOL1         0.0829
       7    C3      19.993515   18.633414   22.975877 C.3        1 MOL1         0.1211
       8    H5      19.559553   17.740554   23.446558 H          1 MOL1         0.0786
       9    C4      18.955066   19.759245   22.687829 C.3        1 MOL1        -0.1768
      10    H6      19.394162   20.750784   22.521613 H          1 MOL1         0.0829
      11    H7      18.139662   19.852073   23.413405 H          1 MOL1         0.0829
      12    O1      21.154230   19.045317   23.659709 O.3        1 MOL1        -0.5515
      13    H8      21.788121   18.296516   23.633591 H          1 MOL1         0.3773
@<TRIPOS>BOND
    1     1     2    1
    2     1     3    1
    3     1     4    1
    4     4     5    1
    5     4     6    1
    6     4     7    1
    7     7     8    1
    8     1     9    1
    9     7     9    1
   10     9    10    1
   11     9    11    1
   12     7    12    1
   13    12    13    1
@<TRIPOS>SUBSTRUCTURE
       1 MOL1            1 RESIDUE      1      MOL     
@<SCITEGIC>MOL_PROPERTY
VConf Rank
SciTegic.value.IntegerValue
512

@<SCITEGIC>MOL_PROPERTY
Conf_Id
SciTegic.value.IntegerValue
19

@<SCITEGIC>MOL_PROPERTY
Delta U+W
SciTegic.value.DoubleValue
-0.011

@<SCITEGIC>MOL_PROPERTY
U+W
SciTegic.value.DoubleValue
-3.142

@<SCITEGIC>MOL_PROPERTY
Grad RMS
SciTegic.value.DoubleValue
0.000000

@<SCITEGIC>MOL_PROPERTY
U
SciTegic.value.DoubleValue
-0.154

@<SCITEGIC>MOL_PROPERTY
W
SciTegic.value.DoubleValue
-2.989

@<SCITEGIC>MOL_PROPERTY
W(PB)
SciTegic.value.DoubleValue
-4.588

@<SCITEGIC>MOL_PROPERTY
W(SA)
SciTegic.value.DoubleValue
1.599

@<SCITEGIC>MOL_PROPERTY
Valence
SciTegic.value.DoubleValue
6.334

@<SCITEGIC>MOL_PROPERTY
Coulomb
SciTegic.value.DoubleValue
-7.439

@<SCITEGIC>MOL_PROPERTY
VdW
SciTegic.value.DoubleValue
0.951

@<SCITEGIC>MOL_PROPERTY
VdW6
SciTegic.value.DoubleValue
-2.120

@<SCITEGIC>MOL_PROPERTY
VdW12
SciTegic.value.DoubleValue
3.072

@<SCITEGIC>MOL_PROPERTY
Bond
SciTegic.value.DoubleValue
0.065

@<SCITEGIC>MOL_PROPERTY
Angle
SciTegic.value.DoubleValue
0.930

@<SCITEGIC>MOL_PROPERTY
Pdih
SciTegic.value.DoubleValue
5.339

@<SCITEGIC>MOL_PROPERTY
Idih
SciTegic.value.DoubleValue
0.000

@<SCITEGIC>MOL_PROPERTY
Tether
SciTegic.value.DoubleValue
0.000

@<TRIPOS>MOLECULE
guest-s16_confgen4.mol2 : confsearch ligand conformer 513
          13          13           1
SMALL
USER_CHARGES
 
@<TRIPOS>ATOM
       1    C1      19.122256   18.024932   22.726047 C.3        1 MOL1        -0.1693
       2    H1      18.367998   17.618034   23.409790 H          1 MOL1         0.0829
       3    H2      19.575301   17.194639   22.168758 H          1 MOL1         0.0829
       4    C2      20.150641   19.024955   23.351628 C.3        1 MOL1        -0.1768
       5    H3      19.756943   19.621499   24.183435 H          1 MOL1         0.0829
       6    H4      21.114677   18.599172   23.651190 H          1 MOL1         0.0829
       7    C3      20.131955   19.758001   21.974050 C.3        1 MOL1         0.1211
       8    H5      20.224394   20.849984   22.036031 H          1 MOL1         0.0786
       9    C4      18.668533   19.232188   21.839836 C.3        1 MOL1        -0.1768
      10    H6      18.338401   18.985542   20.824686 H          1 MOL1         0.0829
      11    H7      17.914793   19.878877   22.305285 H          1 MOL1         0.0829
      12    O1      21.039525   19.249198   21.017191 O.3        1 MOL1        -0.5515
      13    H8      20.816269   19.662675   20.156175 H          1 MOL1         0.3773
@<TRIPOS>BOND
    1     1     2    1
    2     1     3    1
    3     1     4    1
    4     4     5    1
    5     4     6    1
    6     4     7    1
    7     7     8    1
    8     1     9    1
    9     7     9    1
   10     9    10    1
   11     9    11    1
   12     7    12    1
   13    12    13    1
@<TRIPOS>SUBSTRUCTURE
       1 MOL1            1 RESIDUE      1      MOL     
@<SCITEGIC>MOL_PROPERTY
VConf Rank
SciTegic.value.IntegerValue
513

@<SCITEGIC>MOL_PROPERTY
Conf_Id
SciTegic.value.IntegerValue
20

@<SCITEGIC>MOL_PROPERTY
Delta U+W
SciTegic.value.DoubleValue
1.030

@<SCITEGIC>MOL_PROPERTY
U+W
SciTegic.value.DoubleValue
-2.101

@<SCITEGIC>MOL_PROPERTY
Grad RMS
SciTegic.value.DoubleValue
0.000000

@<SCITEGIC>MOL_PROPERTY
U
SciTegic.value.DoubleValue
0.841

@<SCITEGIC>MOL_PROPERTY
W
SciTegic.value.DoubleValue
-2.942

@<SCITEGIC>MOL_PROPERTY
W(PB)
SciTegic.value.DoubleValue
-4.530

@<SCITEGIC>MOL_PROPERTY
W(SA)
SciTegic.value.DoubleValue
1.587

@<SCITEGIC>MOL_PROPERTY
Valence
SciTegic.value.DoubleValue
6.736

@<SCITEGIC>MOL_PROPERTY
Coulomb
SciTegic.value.DoubleValue
-7.246

@<SCITEGIC>MOL_PROPERTY
VdW
SciTegic.value.DoubleValue
1.352

@<SCITEGIC>MOL_PROPERTY
VdW6
SciTegic.value.DoubleValue
-2.500

@<SCITEGIC>MOL_PROPERTY
VdW12
SciTegic.value.DoubleValue
3.851

@<SCITEGIC>MOL_PROPERTY
Bond
SciTegic.value.DoubleValue
0.063

@<SCITEGIC>MOL_PROPERTY
Angle
SciTegic.value.DoubleValue
0.687

@<SCITEGIC>MOL_PROPERTY
Pdih
SciTegic.value.DoubleValue
5.986

@<SCITEGIC>MOL_PROPERTY
Idih
SciTegic.value.DoubleValue
0.000

@<SCITEGIC>MOL_PROPERTY
Tether
SciTegic.value.DoubleValue
0.000

@<TRIPOS>MOLECULE
guest-s16_confgen4.mol2 : confsearch ligand conformer 514
          13          13           1
SMALL
USER_CHARGES
 
@<TRIPOS>ATOM
       1    C1      20.706493   18.121016   22.041505 C.3        1 MOL1        -0.1693
       2    H1      20.744008   17.237270   22.692086 H          1 MOL1         0.0829
       3    H2      21.556838   18.083022   21.350207 H          1 MOL1         0.0829
       4    C2      20.490814   19.476731   22.791754 C.3        1 MOL1        -0.1768
       5    H3      20.925140   19.546939   23.795111 H          1 MOL1         0.0829
       6    H4      20.780071   20.367099   22.219947 H          1 MOL1         0.0829
       7    C3      18.973277   19.126115   22.734260 C.3        1 MOL1         0.1211
       8    H5      18.642734   18.451226   23.535484 H          1 MOL1         0.0786
       9    C4      19.308621   18.399615   21.396763 C.3        1 MOL1        -0.1768
      10    H6      19.333643   19.049234   20.513158 H          1 MOL1         0.0829
      11    H7      18.698888   17.518568   21.168130 H          1 MOL1         0.0829
      12    O1      18.102476   20.226586   22.622515 O.3        1 MOL1        -0.5515
      13    H8      18.445601   20.789417   21.897115 H          1 MOL1         0.3773
@<TRIPOS>BOND
    1     1     2    1
    2     1     3    1
    3     1     4    1
    4     4     5    1
    5     4     6    1
    6     4     7    1
    7     7     8    1
    8     1     9    1
    9     7     9    1
   10     9    10    1
   11     9    11    1
   12     7    12    1
   13    12    13    1
@<TRIPOS>SUBSTRUCTURE
       1 MOL1            1 RESIDUE      1      MOL     
@<SCITEGIC>MOL_PROPERTY
VConf Rank
SciTegic.value.IntegerValue
514

@<SCITEGIC>MOL_PROPERTY
Conf_Id
SciTegic.value.IntegerValue
24

@<SCITEGIC>MOL_PROPERTY
Delta U+W
SciTegic.value.DoubleValue
0.356

@<SCITEGIC>MOL_PROPERTY
U+W
SciTegic.value.DoubleValue
-2.775

@<SCITEGIC>MOL_PROPERTY
Grad RMS
SciTegic.value.DoubleValue
0.000000

@<SCITEGIC>MOL_PROPERTY
U
SciTegic.value.DoubleValue
-0.184

@<SCITEGIC>MOL_PROPERTY
W
SciTegic.value.DoubleValue
-2.591

@<SCITEGIC>MOL_PROPERTY
W(PB)
SciTegic.value.DoubleValue
-4.184

@<SCITEGIC>MOL_PROPERTY
W(SA)
SciTegic.value.DoubleValue
1.593

@<SCITEGIC>MOL_PROPERTY
Valence
SciTegic.value.DoubleValue
6.840

@<SCITEGIC>MOL_PROPERTY
Coulomb
SciTegic.value.DoubleValue
-7.916

@<SCITEGIC>MOL_PROPERTY
VdW
SciTegic.value.DoubleValue
0.893

@<SCITEGIC>MOL_PROPERTY
VdW6
SciTegic.value.DoubleValue
-2.167

@<SCITEGIC>MOL_PROPERTY
VdW12
SciTegic.value.DoubleValue
3.060

@<SCITEGIC>MOL_PROPERTY
Bond
SciTegic.value.DoubleValue
0.059

@<SCITEGIC>MOL_PROPERTY
Angle
SciTegic.value.DoubleValue
0.918

@<SCITEGIC>MOL_PROPERTY
Pdih
SciTegic.value.DoubleValue
5.862

@<SCITEGIC>MOL_PROPERTY
Idih
SciTegic.value.DoubleValue
0.000

@<SCITEGIC>MOL_PROPERTY
Tether
SciTegic.value.DoubleValue
0.000

@<TRIPOS>MOLECULE
guest-s16_confgen4.mol2 : confsearch ligand conformer 515
          13          13           1
SMALL
USER_CHARGES
 
@<TRIPOS>ATOM
       1    C1      19.098975   19.021640   23.163320 C.3        1 MOL1        -0.1693
       2    H1      18.531559   18.454453   23.910790 H          1 MOL1         0.0829
       3    H2      19.093143   20.079949   23.453568 H          1 MOL1         0.0829
       4    C2      18.726113   18.746879   21.668122 C.3        1 MOL1        -0.1768
       5    H3      18.369017   17.728989   21.469629 H          1 MOL1         0.0829
       6    H4      18.030842   19.456165   21.205282 H          1 MOL1         0.0829
       7    C3      20.237132   18.965123   21.346902 C.3        1 MOL1         0.1211
       8    H5      20.635073   18.326948   20.547612 H          1 MOL1         0.0786
       9    C4      20.507692   18.447993   22.793749 C.3        1 MOL1        -0.1768
      10    H6      20.587412   17.356822   22.871246 H          1 MOL1         0.0829
      11    H7      21.363133   18.897123   23.310674 H          1 MOL1         0.0829
      12    O1      20.605730   20.308426   21.120185 O.3        1 MOL1        -0.5515
      13    H8      20.226037   20.827464   21.858931 H          1 MOL1         0.3773
@<TRIPOS>BOND
    1     1     2    1
    2     1     3    1
    3     1     4    1
    4     4     5    1
    5     4     6    1
    6     4     7    1
    7     7     8    1
    8     1     9    1
    9     7     9    1
   10     9    10    1
   11     9    11    1
   12     7    12    1
   13    12    13    1
@<TRIPOS>SUBSTRUCTURE
       1 MOL1            1 RESIDUE      1      MOL     
@<SCITEGIC>MOL_PROPERTY
VConf Rank
SciTegic.value.IntegerValue
515

@<SCITEGIC>MOL_PROPERTY
Conf_Id
SciTegic.value.IntegerValue
44

@<SCITEGIC>MOL_PROPERTY
Delta U+W
SciTegic.value.DoubleValue
0.823

@<SCITEGIC>MOL_PROPERTY
U+W
SciTegic.value.DoubleValue
-2.308

@<SCITEGIC>MOL_PROPERTY
Grad RMS
SciTegic.value.DoubleValue
0.000000

@<SCITEGIC>MOL_PROPERTY
U
SciTegic.value.DoubleValue
0.039

@<SCITEGIC>MOL_PROPERTY
W
SciTegic.value.DoubleValue
-2.348

@<SCITEGIC>MOL_PROPERTY
W(PB)
SciTegic.value.DoubleValue
-3.918

@<SCITEGIC>MOL_PROPERTY
W(SA)
SciTegic.value.DoubleValue
1.571

@<SCITEGIC>MOL_PROPERTY
Valence
SciTegic.value.DoubleValue
7.320

@<SCITEGIC>MOL_PROPERTY
Coulomb
SciTegic.value.DoubleValue
-8.530

@<SCITEGIC>MOL_PROPERTY
VdW
SciTegic.value.DoubleValue
1.249

@<SCITEGIC>MOL_PROPERTY
VdW6
SciTegic.value.DoubleValue
-2.615

@<SCITEGIC>MOL_PROPERTY
VdW12
SciTegic.value.DoubleValue
3.864

@<SCITEGIC>MOL_PROPERTY
Bond
SciTegic.value.DoubleValue
0.056

@<SCITEGIC>MOL_PROPERTY
Angle
SciTegic.value.DoubleValue
0.694

@<SCITEGIC>MOL_PROPERTY
Pdih
SciTegic.value.DoubleValue
6.570

@<SCITEGIC>MOL_PROPERTY
Idih
SciTegic.value.DoubleValue
0.000

@<SCITEGIC>MOL_PROPERTY
Tether
SciTegic.value.DoubleValue
0.000

@<TRIPOS>MOLECULE
guest-s16_confgen4.mol2 : confsearch ligand conformer 516
          13          13           1
SMALL
USER_CHARGES
 
@<TRIPOS>ATOM
       1    C1      18.717106   18.832371   23.139628 C.3        1 MOL1        -0.1693
       2    H1      18.152631   17.906740   22.965956 H          1 MOL1         0.0829
       3    H2      18.348392   19.300142   24.060268 H          1 MOL1         0.0829
       4    C2      18.836415   19.769794   21.892908 C.3        1 MOL1        -0.1768
       5    H3      17.987136   19.764917   21.201055 H          1 MOL1         0.0829
       6    H4      19.098072   20.810035   22.123172 H          1 MOL1         0.0829
       7    C3      20.045909   18.874517   21.487385 C.3        1 MOL1         0.1211
       8    H5      19.758587   17.953784   20.961305 H          1 MOL1         0.0786
       9    C4      20.269778   18.684828   23.018102 C.3        1 MOL1        -0.1768
      10    H6      20.687860   17.719512   23.323954 H          1 MOL1         0.0829
      11    H7      20.845061   19.486741   23.497454 H          1 MOL1         0.0829
      12    O1      21.083919   19.537952   20.804059 O.3        1 MOL1        -0.5515
      13    H8      21.841859   18.916572   20.752898 H          1 MOL1         0.3773
@<TRIPOS>BOND
    1     1     2    1
    2     1     3    1
    3     1     4    1
    4     4     5    1
    5     4     6    1
    6     4     7    1
    7     7     8    1
    8     1     9    1
    9     7     9    1
   10     9    10    1
   11     9    11    1
   12     7    12    1
   13    12    13    1
@<TRIPOS>SUBSTRUCTURE
       1 MOL1            1 RESIDUE      1      MOL     
@<SCITEGIC>MOL_PROPERTY
VConf Rank
SciTegic.value.IntegerValue
516

@<SCITEGIC>MOL_PROPERTY
Conf_Id
SciTegic.value.IntegerValue
22

@<SCITEGIC>MOL_PROPERTY
Delta U+W
SciTegic.value.DoubleValue
0.000

@<SCITEGIC>MOL_PROPERTY
U+W
SciTegic.value.DoubleValue
-3.131

@<SCITEGIC>MOL_PROPERTY
Grad RMS
SciTegic.value.DoubleValue
0.000000

@<SCITEGIC>MOL_PROPERTY
U
SciTegic.value.DoubleValue
-0.154

@<SCITEGIC>MOL_PROPERTY
W
SciTegic.value.DoubleValue
-2.978

@<SCITEGIC>MOL_PROPERTY
W(PB)
SciTegic.value.DoubleValue
-4.579

@<SCITEGIC>MOL_PROPERTY
W(SA)
SciTegic.value.DoubleValue
1.601

@<SCITEGIC>MOL_PROPERTY
Valence
SciTegic.value.DoubleValue
6.333

@<SCITEGIC>MOL_PROPERTY
Coulomb
SciTegic.value.DoubleValue
-7.439

@<SCITEGIC>MOL_PROPERTY
VdW
SciTegic.value.DoubleValue
0.952

@<SCITEGIC>MOL_PROPERTY
VdW6
SciTegic.value.DoubleValue
-2.120

@<SCITEGIC>MOL_PROPERTY
VdW12
SciTegic.value.DoubleValue
3.072

@<SCITEGIC>MOL_PROPERTY
Bond
SciTegic.value.DoubleValue
0.065

@<SCITEGIC>MOL_PROPERTY
Angle
SciTegic.value.DoubleValue
0.931

@<SCITEGIC>MOL_PROPERTY
Pdih
SciTegic.value.DoubleValue
5.338

@<SCITEGIC>MOL_PROPERTY
Idih
SciTegic.value.DoubleValue
0.000

@<SCITEGIC>MOL_PROPERTY
Tether
SciTegic.value.DoubleValue
0.000

@<TRIPOS>MOLECULE
guest-s16_confgen4.mol2 : confsearch ligand conformer 517
          13          13           1
SMALL
USER_CHARGES
 
@<TRIPOS>ATOM
       1    C1      18.981585   18.204245   23.140984 C.3        1 MOL1        -0.1693
       2    H1      19.247432   17.139153   23.118820 H          1 MOL1         0.0829
       3    H2      18.194191   18.353365   23.889391 H          1 MOL1         0.0829
       4    C2      18.724910   18.844247   21.736760 C.3        1 MOL1        -0.1768
       5    H3      18.154875   19.781484   21.757762 H          1 MOL1         0.0829
       6    H4      18.290428   18.184102   20.978073 H          1 MOL1         0.0829
       7    C3      20.271288   19.028195   21.672923 C.3        1 MOL1         0.1211
       8    H5      20.813561   18.132244   21.340851 H          1 MOL1         0.0786
       9    C4      20.200528   19.181425   23.222232 C.3        1 MOL1        -0.1768
      10    H6      19.956230   20.193495   23.568088 H          1 MOL1         0.0829
      11    H7      21.073539   18.820625   23.776882 H          1 MOL1         0.0829
      12    O1      20.714317   20.168616   20.974557 O.3        1 MOL1        -0.5515
      13    H8      20.559214   20.003184   20.019686 H          1 MOL1         0.3773
@<TRIPOS>BOND
    1     1     2    1
    2     1     3    1
    3     1     4    1
    4     4     5    1
    5     4     6    1
    6     4     7    1
    7     7     8    1
    8     1     9    1
    9     7     9    1
   10     9    10    1
   11     9    11    1
   12     7    12    1
   13    12    13    1
@<TRIPOS>SUBSTRUCTURE
       1 MOL1            1 RESIDUE      1      MOL     
@<SCITEGIC>MOL_PROPERTY
VConf Rank
SciTegic.value.IntegerValue
517

@<SCITEGIC>MOL_PROPERTY
Conf_Id
SciTegic.value.IntegerValue
19

@<SCITEGIC>MOL_PROPERTY
Delta U+W
SciTegic.value.DoubleValue
-0.011

@<SCITEGIC>MOL_PROPERTY
U+W
SciTegic.value.DoubleValue
-3.142

@<SCITEGIC>MOL_PROPERTY
Grad RMS
SciTegic.value.DoubleValue
0.000000

@<SCITEGIC>MOL_PROPERTY
U
SciTegic.value.DoubleValue
-0.154

@<SCITEGIC>MOL_PROPERTY
W
SciTegic.value.DoubleValue
-2.989

@<SCITEGIC>MOL_PROPERTY
W(PB)
SciTegic.value.DoubleValue
-4.588

@<SCITEGIC>MOL_PROPERTY
W(SA)
SciTegic.value.DoubleValue
1.599

@<SCITEGIC>MOL_PROPERTY
Valence
SciTegic.value.DoubleValue
6.334

@<SCITEGIC>MOL_PROPERTY
Coulomb
SciTegic.value.DoubleValue
-7.439

@<SCITEGIC>MOL_PROPERTY
VdW
SciTegic.value.DoubleValue
0.951

@<SCITEGIC>MOL_PROPERTY
VdW6
SciTegic.value.DoubleValue
-2.120

@<SCITEGIC>MOL_PROPERTY
VdW12
SciTegic.value.DoubleValue
3.072

@<SCITEGIC>MOL_PROPERTY
Bond
SciTegic.value.DoubleValue
0.065

@<SCITEGIC>MOL_PROPERTY
Angle
SciTegic.value.DoubleValue
0.930

@<SCITEGIC>MOL_PROPERTY
Pdih
SciTegic.value.DoubleValue
5.339

@<SCITEGIC>MOL_PROPERTY
Idih
SciTegic.value.DoubleValue
0.000

@<SCITEGIC>MOL_PROPERTY
Tether
SciTegic.value.DoubleValue
0.000

@<TRIPOS>MOLECULE
guest-s16_confgen4.mol2 : confsearch ligand conformer 518
          13          13           1
SMALL
USER_CHARGES
 
@<TRIPOS>ATOM
       1    C1      20.069399   19.347656   23.394004 C.3        1 MOL1        -0.1693
       2    H1      19.879276   19.911185   24.315017 H          1 MOL1         0.0829
       3    H2      20.989540   18.763082   23.523704 H          1 MOL1         0.0829
       4    C2      20.001160   20.164188   22.060741 C.3        1 MOL1        -0.1768
       5    H3      19.296850   21.004683   22.077472 H          1 MOL1         0.0829
       6    H4      20.959079   20.517505   21.663310 H          1 MOL1         0.0829
       7    C3      19.432728   18.866588   21.406105 C.3        1 MOL1         0.1211
       8    H5      18.674536   19.039743   20.631525 H          1 MOL1         0.0786
       9    C4      18.859690   18.537711   22.820164 C.3        1 MOL1        -0.1768
      10    H6      18.822271   17.475952   23.087784 H          1 MOL1         0.0829
      11    H7      17.878239   18.983962   23.021631 H          1 MOL1         0.0829
      12    O1      20.410239   17.961929   20.932597 O.3        1 MOL1        -0.5515
      13    H8      19.948681   17.125514   20.710045 H          1 MOL1         0.3773
@<TRIPOS>BOND
    1     1     2    1
    2     1     3    1
    3     1     4    1
    4     4     5    1
    5     4     6    1
    6     4     7    1
    7     7     8    1
    8     1     9    1
    9     7     9    1
   10     9    10    1
   11     9    11    1
   12     7    12    1
   13    12    13    1
@<TRIPOS>SUBSTRUCTURE
       1 MOL1            1 RESIDUE      1      MOL     
@<SCITEGIC>MOL_PROPERTY
VConf Rank
SciTegic.value.IntegerValue
518

@<SCITEGIC>MOL_PROPERTY
Conf_Id
SciTegic.value.IntegerValue
20

@<SCITEGIC>MOL_PROPERTY
Delta U+W
SciTegic.value.DoubleValue
1.030

@<SCITEGIC>MOL_PROPERTY
U+W
SciTegic.value.DoubleValue
-2.101

@<SCITEGIC>MOL_PROPERTY
Grad RMS
SciTegic.value.DoubleValue
0.000000

@<SCITEGIC>MOL_PROPERTY
U
SciTegic.value.DoubleValue
0.841

@<SCITEGIC>MOL_PROPERTY
W
SciTegic.value.DoubleValue
-2.942

@<SCITEGIC>MOL_PROPERTY
W(PB)
SciTegic.value.DoubleValue
-4.530

@<SCITEGIC>MOL_PROPERTY
W(SA)
SciTegic.value.DoubleValue
1.587

@<SCITEGIC>MOL_PROPERTY
Valence
SciTegic.value.DoubleValue
6.736

@<SCITEGIC>MOL_PROPERTY
Coulomb
SciTegic.value.DoubleValue
-7.246

@<SCITEGIC>MOL_PROPERTY
VdW
SciTegic.value.DoubleValue
1.352

@<SCITEGIC>MOL_PROPERTY
VdW6
SciTegic.value.DoubleValue
-2.500

@<SCITEGIC>MOL_PROPERTY
VdW12
SciTegic.value.DoubleValue
3.851

@<SCITEGIC>MOL_PROPERTY
Bond
SciTegic.value.DoubleValue
0.063

@<SCITEGIC>MOL_PROPERTY
Angle
SciTegic.value.DoubleValue
0.687

@<SCITEGIC>MOL_PROPERTY
Pdih
SciTegic.value.DoubleValue
5.986

@<SCITEGIC>MOL_PROPERTY
Idih
SciTegic.value.DoubleValue
0.000

@<SCITEGIC>MOL_PROPERTY
Tether
SciTegic.value.DoubleValue
0.000

@<TRIPOS>MOLECULE
guest-s16_confgen4.mol2 : confsearch ligand conformer 519
          13          13           1
SMALL
USER_CHARGES
 
@<TRIPOS>ATOM
       1    C1      19.781245   19.161213   23.476426 C.3        1 MOL1        -0.1693
       2    H1      18.830257   19.340179   23.995330 H          1 MOL1         0.0829
       3    H2      20.594318   19.205058   24.210874 H          1 MOL1         0.0829
       4    C2      19.984806   20.004680   22.174703 C.3        1 MOL1        -0.1768
       5    H3      19.532240   21.002409   22.170978 H          1 MOL1         0.0829
       6    H4      21.026968   20.089701   21.842953 H          1 MOL1         0.0829
       7    C3      19.161865   18.885662   21.467791 C.3        1 MOL1         0.1211
       8    H5      18.074226   19.007030   21.562679 H          1 MOL1         0.0786
       9    C4      19.782669   17.921011   22.522877 C.3        1 MOL1        -0.1768
      10    H6      20.779651   17.540307   22.268950 H          1 MOL1         0.0829
      11    H7      19.151586   17.078543   22.826642 H          1 MOL1         0.0829
      12    O1      19.516909   18.627706   20.130174 O.3        1 MOL1        -0.5515
      13    H8      20.491864   18.529338   20.107658 H          1 MOL1         0.3773
@<TRIPOS>BOND
    1     1     2    1
    2     1     3    1
    3     1     4    1
    4     4     5    1
    5     4     6    1
    6     4     7    1
    7     7     8    1
    8     1     9    1
    9     7     9    1
   10     9    10    1
   11     9    11    1
   12     7    12    1
   13    12    13    1
@<TRIPOS>SUBSTRUCTURE
       1 MOL1            1 RESIDUE      1      MOL     
@<SCITEGIC>MOL_PROPERTY
VConf Rank
SciTegic.value.IntegerValue
519

@<SCITEGIC>MOL_PROPERTY
Conf_Id
SciTegic.value.IntegerValue
24

@<SCITEGIC>MOL_PROPERTY
Delta U+W
SciTegic.value.DoubleValue
0.356

@<SCITEGIC>MOL_PROPERTY
U+W
SciTegic.value.DoubleValue
-2.775

@<SCITEGIC>MOL_PROPERTY
Grad RMS
SciTegic.value.DoubleValue
0.000000

@<SCITEGIC>MOL_PROPERTY
U
SciTegic.value.DoubleValue
-0.184

@<SCITEGIC>MOL_PROPERTY
W
SciTegic.value.DoubleValue
-2.591

@<SCITEGIC>MOL_PROPERTY
W(PB)
SciTegic.value.DoubleValue
-4.184

@<SCITEGIC>MOL_PROPERTY
W(SA)
SciTegic.value.DoubleValue
1.593

@<SCITEGIC>MOL_PROPERTY
Valence
SciTegic.value.DoubleValue
6.840

@<SCITEGIC>MOL_PROPERTY
Coulomb
SciTegic.value.DoubleValue
-7.916

@<SCITEGIC>MOL_PROPERTY
VdW
SciTegic.value.DoubleValue
0.893

@<SCITEGIC>MOL_PROPERTY
VdW6
SciTegic.value.DoubleValue
-2.167

@<SCITEGIC>MOL_PROPERTY
VdW12
SciTegic.value.DoubleValue
3.060

@<SCITEGIC>MOL_PROPERTY
Bond
SciTegic.value.DoubleValue
0.059

@<SCITEGIC>MOL_PROPERTY
Angle
SciTegic.value.DoubleValue
0.918

@<SCITEGIC>MOL_PROPERTY
Pdih
SciTegic.value.DoubleValue
5.862

@<SCITEGIC>MOL_PROPERTY
Idih
SciTegic.value.DoubleValue
0.000

@<SCITEGIC>MOL_PROPERTY
Tether
SciTegic.value.DoubleValue
0.000

@<TRIPOS>MOLECULE
guest-s16_confgen4.mol2 : confsearch ligand conformer 520
          13          13           1
SMALL
USER_CHARGES
 
@<TRIPOS>ATOM
       1    C1      19.610097   20.049656   22.517082 C.3        1 MOL1        -0.1693
       2    H1      20.036745   20.855229   23.126506 H          1 MOL1         0.0829
       3    H2      18.740209   20.446257   21.978289 H          1 MOL1         0.0829
       4    C2      19.364673   18.690755   23.254166 C.3        1 MOL1        -0.1768
       5    H3      20.067008   18.484814   24.071068 H          1 MOL1         0.0829
       6    H4      18.346127   18.515599   23.618301 H          1 MOL1         0.0829
       7    C3      19.735443   17.998008   21.906345 C.3        1 MOL1         0.1211
       8    H5      20.287345   17.055015   22.009563 H          1 MOL1         0.0786
       9    C4      20.624376   19.250497   21.632367 C.3        1 MOL1        -0.1768
      10    H6      21.635571   19.181798   22.051628 H          1 MOL1         0.0829
      11    H7      20.702295   19.562550   20.584866 H          1 MOL1         0.0829
      12    O1      18.657367   17.830430   21.011137 O.3        1 MOL1        -0.5515
      13    H8      18.204604   18.697361   20.958690 H          1 MOL1         0.3773
@<TRIPOS>BOND
    1     1     2    1
    2     1     3    1
    3     1     4    1
    4     4     5    1
    5     4     6    1
    6     4     7    1
    7     7     8    1
    8     1     9    1
    9     7     9    1
   10     9    10    1
   11     9    11    1
   12     7    12    1
   13    12    13    1
@<TRIPOS>SUBSTRUCTURE
       1 MOL1            1 RESIDUE      1      MOL     
@<SCITEGIC>MOL_PROPERTY
VConf Rank
SciTegic.value.IntegerValue
520

@<SCITEGIC>MOL_PROPERTY
Conf_Id
SciTegic.value.IntegerValue
44

@<SCITEGIC>MOL_PROPERTY
Delta U+W
SciTegic.value.DoubleValue
0.823

@<SCITEGIC>MOL_PROPERTY
U+W
SciTegic.value.DoubleValue
-2.308

@<SCITEGIC>MOL_PROPERTY
Grad RMS
SciTegic.value.DoubleValue
0.000000

@<SCITEGIC>MOL_PROPERTY
U
SciTegic.value.DoubleValue
0.039

@<SCITEGIC>MOL_PROPERTY
W
SciTegic.value.DoubleValue
-2.348

@<SCITEGIC>MOL_PROPERTY
W(PB)
SciTegic.value.DoubleValue
-3.918

@<SCITEGIC>MOL_PROPERTY
W(SA)
SciTegic.value.DoubleValue
1.571

@<SCITEGIC>MOL_PROPERTY
Valence
SciTegic.value.DoubleValue
7.320

@<SCITEGIC>MOL_PROPERTY
Coulomb
SciTegic.value.DoubleValue
-8.530

@<SCITEGIC>MOL_PROPERTY
VdW
SciTegic.value.DoubleValue
1.249

@<SCITEGIC>MOL_PROPERTY
VdW6
SciTegic.value.DoubleValue
-2.615

@<SCITEGIC>MOL_PROPERTY
VdW12
SciTegic.value.DoubleValue
3.864

@<SCITEGIC>MOL_PROPERTY
Bond
SciTegic.value.DoubleValue
0.056

@<SCITEGIC>MOL_PROPERTY
Angle
SciTegic.value.DoubleValue
0.694

@<SCITEGIC>MOL_PROPERTY
Pdih
SciTegic.value.DoubleValue
6.570

@<SCITEGIC>MOL_PROPERTY
Idih
SciTegic.value.DoubleValue
0.000

@<SCITEGIC>MOL_PROPERTY
Tether
SciTegic.value.DoubleValue
0.000

@<TRIPOS>MOLECULE
guest-s16_confgen4.mol2 : confsearch ligand conformer 521
          13          13           1
SMALL
USER_CHARGES
 
@<TRIPOS>ATOM
       1    C1      20.928814   18.940799   22.621204 C.3        1 MOL1        -0.1693
       2    H1      21.070061   19.009898   23.707878 H          1 MOL1         0.0829
       3    H2      21.901834   18.750711   22.152762 H          1 MOL1         0.0829
       4    C2      20.079923   20.097005   21.996800 C.3        1 MOL1        -0.1768
       5    H3      20.168280   21.076661   22.478908 H          1 MOL1         0.0829
       6    H4      20.202287   20.224200   20.914010 H          1 MOL1         0.0829
       7    C3      18.840914   19.247224   22.411019 C.3        1 MOL1         0.1211
       8    H5      18.540597   19.383785   23.458980 H          1 MOL1         0.0786
       9    C4      19.755887   18.008412   22.171512 C.3        1 MOL1        -0.1768
      10    H6      19.559603   17.139001   22.808511 H          1 MOL1         0.0829
      11    H7      19.809293   17.676290   21.127176 H          1 MOL1         0.0829
      12    O1      17.727307   19.348723   21.554210 O.3        1 MOL1        -0.5515
      13    H8      17.087927   18.655198   21.825172 H          1 MOL1         0.3773
@<TRIPOS>BOND
    1     1     2    1
    2     1     3    1
    3     1     4    1
    4     4     5    1
    5     4     6    1
    6     4     7    1
    7     7     8    1
    8     1     9    1
    9     7     9    1
   10     9    10    1
   11     9    11    1
   12     7    12    1
   13    12    13    1
@<TRIPOS>SUBSTRUCTURE
       1 MOL1            1 RESIDUE      1      MOL     
@<SCITEGIC>MOL_PROPERTY
VConf Rank
SciTegic.value.IntegerValue
521

@<SCITEGIC>MOL_PROPERTY
Conf_Id
SciTegic.value.IntegerValue
22

@<SCITEGIC>MOL_PROPERTY
Delta U+W
SciTegic.value.DoubleValue
0.000

@<SCITEGIC>MOL_PROPERTY
U+W
SciTegic.value.DoubleValue
-3.131

@<SCITEGIC>MOL_PROPERTY
Grad RMS
SciTegic.value.DoubleValue
0.000000

@<SCITEGIC>MOL_PROPERTY
U
SciTegic.value.DoubleValue
-0.154

@<SCITEGIC>MOL_PROPERTY
W
SciTegic.value.DoubleValue
-2.978

@<SCITEGIC>MOL_PROPERTY
W(PB)
SciTegic.value.DoubleValue
-4.579

@<SCITEGIC>MOL_PROPERTY
W(SA)
SciTegic.value.DoubleValue
1.601

@<SCITEGIC>MOL_PROPERTY
Valence
SciTegic.value.DoubleValue
6.333

@<SCITEGIC>MOL_PROPERTY
Coulomb
SciTegic.value.DoubleValue
-7.439

@<SCITEGIC>MOL_PROPERTY
VdW
SciTegic.value.DoubleValue
0.952

@<SCITEGIC>MOL_PROPERTY
VdW6
SciTegic.value.DoubleValue
-2.120

@<SCITEGIC>MOL_PROPERTY
VdW12
SciTegic.value.DoubleValue
3.072

@<SCITEGIC>MOL_PROPERTY
Bond
SciTegic.value.DoubleValue
0.065

@<SCITEGIC>MOL_PROPERTY
Angle
SciTegic.value.DoubleValue
0.931

@<SCITEGIC>MOL_PROPERTY
Pdih
SciTegic.value.DoubleValue
5.338

@<SCITEGIC>MOL_PROPERTY
Idih
SciTegic.value.DoubleValue
0.000

@<SCITEGIC>MOL_PROPERTY
Tether
SciTegic.value.DoubleValue
0.000

@<TRIPOS>MOLECULE
guest-s16_confgen4.mol2 : confsearch ligand conformer 522
          13          13           1
SMALL
USER_CHARGES
 
@<TRIPOS>ATOM
       1    C1      18.552939   19.240867   21.550763 C.3        1 MOL1        -0.1693
       2    H1      18.772511   19.820182   20.644249 H          1 MOL1         0.0829
       3    H2      17.465624   19.133388   21.643132 H          1 MOL1         0.0829
       4    C2      19.307259   19.722212   22.833977 C.3        1 MOL1        -0.1768
       5    H3      18.865256   19.383508   23.779338 H          1 MOL1         0.0829
       6    H4      19.504875   20.797595   22.902319 H          1 MOL1         0.0829
       7    C3      20.488903   18.845030   22.320690 C.3        1 MOL1         0.1211
       8    H5      21.120271   19.341818   21.571264 H          1 MOL1         0.0786
       9    C4      19.388760   17.927701   21.706657 C.3        1 MOL1        -0.1768
      10    H6      18.966811   17.194282   22.404969 H          1 MOL1         0.0829
      11    H7      19.660538   17.414235   20.777975 H          1 MOL1         0.0829
      12    O1      21.278114   18.249850   23.324411 O.3        1 MOL1        -0.5515
      13    H8      21.810236   18.963712   23.737267 H          1 MOL1         0.3773
@<TRIPOS>BOND
    1     1     2    1
    2     1     3    1
    3     1     4    1
    4     4     5    1
    5     4     6    1
    6     4     7    1
    7     7     8    1
    8     1     9    1
    9     7     9    1
   10     9    10    1
   11     9    11    1
   12     7    12    1
   13    12    13    1
@<TRIPOS>SUBSTRUCTURE
       1 MOL1            1 RESIDUE      1      MOL     
@<SCITEGIC>MOL_PROPERTY
VConf Rank
SciTegic.value.IntegerValue
522

@<SCITEGIC>MOL_PROPERTY
Conf_Id
SciTegic.value.IntegerValue
19

@<SCITEGIC>MOL_PROPERTY
Delta U+W
SciTegic.value.DoubleValue
-0.011

@<SCITEGIC>MOL_PROPERTY
U+W
SciTegic.value.DoubleValue
-3.142

@<SCITEGIC>MOL_PROPERTY
Grad RMS
SciTegic.value.DoubleValue
0.000000

@<SCITEGIC>MOL_PROPERTY
U
SciTegic.value.DoubleValue
-0.154

@<SCITEGIC>MOL_PROPERTY
W
SciTegic.value.DoubleValue
-2.989

@<SCITEGIC>MOL_PROPERTY
W(PB)
SciTegic.value.DoubleValue
-4.588

@<SCITEGIC>MOL_PROPERTY
W(SA)
SciTegic.value.DoubleValue
1.599

@<SCITEGIC>MOL_PROPERTY
Valence
SciTegic.value.DoubleValue
6.334

@<SCITEGIC>MOL_PROPERTY
Coulomb
SciTegic.value.DoubleValue
-7.439

@<SCITEGIC>MOL_PROPERTY
VdW
SciTegic.value.DoubleValue
0.951

@<SCITEGIC>MOL_PROPERTY
VdW6
SciTegic.value.DoubleValue
-2.120

@<SCITEGIC>MOL_PROPERTY
VdW12
SciTegic.value.DoubleValue
3.072

@<SCITEGIC>MOL_PROPERTY
Bond
SciTegic.value.DoubleValue
0.065

@<SCITEGIC>MOL_PROPERTY
Angle
SciTegic.value.DoubleValue
0.930

@<SCITEGIC>MOL_PROPERTY
Pdih
SciTegic.value.DoubleValue
5.339

@<SCITEGIC>MOL_PROPERTY
Idih
SciTegic.value.DoubleValue
0.000

@<SCITEGIC>MOL_PROPERTY
Tether
SciTegic.value.DoubleValue
0.000

@<TRIPOS>MOLECULE
guest-s16_confgen4.mol2 : confsearch ligand conformer 523
          13          13           1
SMALL
USER_CHARGES
 
@<TRIPOS>ATOM
       1    C1      20.319361   18.874867   21.273495 C.3        1 MOL1        -0.1693
       2    H1      20.300888   18.693052   20.192487 H          1 MOL1         0.0829
       3    H2      21.362487   19.005529   21.589759 H          1 MOL1         0.0829
       4    C2      19.493827   17.878331   22.153484 C.3        1 MOL1        -0.1768
       5    H3      18.604322   17.466403   21.661691 H          1 MOL1         0.0829
       6    H4      20.057583   17.054652   22.605286 H          1 MOL1         0.0829
       7    C3      19.202562   19.093544   23.088284 C.3        1 MOL1         0.1211
       8    H5      18.203060   19.092032   23.541943 H          1 MOL1         0.0786
       9    C4      19.336603   19.970813   21.804334 C.3        1 MOL1        -0.1768
      10    H6      19.763228   20.969672   21.947947 H          1 MOL1         0.0829
      11    H7      18.408833   20.066445   21.227211 H          1 MOL1         0.0829
      12    O1      20.182980   19.330551   24.078614 O.3        1 MOL1        -0.5515
      13    H8      19.985953   20.203805   24.479565 H          1 MOL1         0.3773
@<TRIPOS>BOND
    1     1     2    1
    2     1     3    1
    3     1     4    1
    4     4     5    1
    5     4     6    1
    6     4     7    1
    7     7     8    1
    8     1     9    1
    9     7     9    1
   10     9    10    1
   11     9    11    1
   12     7    12    1
   13    12    13    1
@<TRIPOS>SUBSTRUCTURE
       1 MOL1            1 RESIDUE      1      MOL     
@<SCITEGIC>MOL_PROPERTY
VConf Rank
SciTegic.value.IntegerValue
523

@<SCITEGIC>MOL_PROPERTY
Conf_Id
SciTegic.value.IntegerValue
20

@<SCITEGIC>MOL_PROPERTY
Delta U+W
SciTegic.value.DoubleValue
1.030

@<SCITEGIC>MOL_PROPERTY
U+W
SciTegic.value.DoubleValue
-2.101

@<SCITEGIC>MOL_PROPERTY
Grad RMS
SciTegic.value.DoubleValue
0.000000

@<SCITEGIC>MOL_PROPERTY
U
SciTegic.value.DoubleValue
0.841

@<SCITEGIC>MOL_PROPERTY
W
SciTegic.value.DoubleValue
-2.942

@<SCITEGIC>MOL_PROPERTY
W(PB)
SciTegic.value.DoubleValue
-4.530

@<SCITEGIC>MOL_PROPERTY
W(SA)
SciTegic.value.DoubleValue
1.587

@<SCITEGIC>MOL_PROPERTY
Valence
SciTegic.value.DoubleValue
6.736

@<SCITEGIC>MOL_PROPERTY
Coulomb
SciTegic.value.DoubleValue
-7.246

@<SCITEGIC>MOL_PROPERTY
VdW
SciTegic.value.DoubleValue
1.352

@<SCITEGIC>MOL_PROPERTY
VdW6
SciTegic.value.DoubleValue
-2.500

@<SCITEGIC>MOL_PROPERTY
VdW12
SciTegic.value.DoubleValue
3.851

@<SCITEGIC>MOL_PROPERTY
Bond
SciTegic.value.DoubleValue
0.063

@<SCITEGIC>MOL_PROPERTY
Angle
SciTegic.value.DoubleValue
0.687

@<SCITEGIC>MOL_PROPERTY
Pdih
SciTegic.value.DoubleValue
5.986

@<SCITEGIC>MOL_PROPERTY
Idih
SciTegic.value.DoubleValue
0.000

@<SCITEGIC>MOL_PROPERTY
Tether
SciTegic.value.DoubleValue
0.000

@<TRIPOS>MOLECULE
guest-s16_confgen4.mol2 : confsearch ligand conformer 524
          13          13           1
SMALL
USER_CHARGES
 
@<TRIPOS>ATOM
       1    C1      19.852849   20.213073   22.423126 C.3        1 MOL1        -0.1693
       2    H1      19.024798   20.860313   22.105193 H          1 MOL1         0.0829
       3    H2      20.630645   20.837939   22.878097 H          1 MOL1         0.0829
       4    C2      20.337139   19.191856   21.341491 C.3        1 MOL1        -0.1768
       5    H3      20.261716   19.521291   20.299341 H          1 MOL1         0.0829
       6    H4      21.343024   18.788365   21.511133 H          1 MOL1         0.0829
       7    C3      19.174442   18.287741   21.851260 C.3        1 MOL1         0.1211
       8    H5      18.197850   18.529344   21.410137 H          1 MOL1         0.0786
       9    C4      19.419992   18.951099   23.240079 C.3        1 MOL1        -0.1768
      10    H6      20.220883   18.493796   23.834079 H          1 MOL1         0.0829
      11    H7      18.534588   19.067905   23.874671 H          1 MOL1         0.0829
      12    O1      19.415783   16.902073   21.792132 O.3        1 MOL1        -0.5515
      13    H8      20.294893   16.748042   22.197297 H          1 MOL1         0.3773
@<TRIPOS>BOND
    1     1     2    1
    2     1     3    1
    3     1     4    1
    4     4     5    1
    5     4     6    1
    6     4     7    1
    7     7     8    1
    8     1     9    1
    9     7     9    1
   10     9    10    1
   11     9    11    1
   12     7    12    1
   13    12    13    1
@<TRIPOS>SUBSTRUCTURE
       1 MOL1            1 RESIDUE      1      MOL     
@<SCITEGIC>MOL_PROPERTY
VConf Rank
SciTegic.value.IntegerValue
524

@<SCITEGIC>MOL_PROPERTY
Conf_Id
SciTegic.value.IntegerValue
24

@<SCITEGIC>MOL_PROPERTY
Delta U+W
SciTegic.value.DoubleValue
0.356

@<SCITEGIC>MOL_PROPERTY
U+W
SciTegic.value.DoubleValue
-2.775

@<SCITEGIC>MOL_PROPERTY
Grad RMS
SciTegic.value.DoubleValue
0.000000

@<SCITEGIC>MOL_PROPERTY
U
SciTegic.value.DoubleValue
-0.184

@<SCITEGIC>MOL_PROPERTY
W
SciTegic.value.DoubleValue
-2.591

@<SCITEGIC>MOL_PROPERTY
W(PB)
SciTegic.value.DoubleValue
-4.184

@<SCITEGIC>MOL_PROPERTY
W(SA)
SciTegic.value.DoubleValue
1.593

@<SCITEGIC>MOL_PROPERTY
Valence
SciTegic.value.DoubleValue
6.840

@<SCITEGIC>MOL_PROPERTY
Coulomb
SciTegic.value.DoubleValue
-7.916

@<SCITEGIC>MOL_PROPERTY
VdW
SciTegic.value.DoubleValue
0.893

@<SCITEGIC>MOL_PROPERTY
VdW6
SciTegic.value.DoubleValue
-2.167

@<SCITEGIC>MOL_PROPERTY
VdW12
SciTegic.value.DoubleValue
3.060

@<SCITEGIC>MOL_PROPERTY
Bond
SciTegic.value.DoubleValue
0.059

@<SCITEGIC>MOL_PROPERTY
Angle
SciTegic.value.DoubleValue
0.918

@<SCITEGIC>MOL_PROPERTY
Pdih
SciTegic.value.DoubleValue
5.862

@<SCITEGIC>MOL_PROPERTY
Idih
SciTegic.value.DoubleValue
0.000

@<SCITEGIC>MOL_PROPERTY
Tether
SciTegic.value.DoubleValue
0.000

@<TRIPOS>MOLECULE
guest-s16_confgen4.mol2 : confsearch ligand conformer 525
          13          13           1
SMALL
USER_CHARGES
 
@<TRIPOS>ATOM
       1    C1      19.219930   18.449222   23.086820 C.3        1 MOL1        -0.1693
       2    H1      19.396091   17.901273   24.020144 H          1 MOL1         0.0829
       3    H2      18.136567   18.530142   22.931664 H          1 MOL1         0.0829
       4    C2      20.028523   17.955769   21.840698 C.3        1 MOL1        -0.1768
       5    H3      21.007750   17.522511   22.078219 H          1 MOL1         0.0829
       6    H4      19.502343   17.275538   21.161633 H          1 MOL1         0.0829
       7    C3      20.084392   19.451196   21.399597 C.3        1 MOL1         0.1211
       8    H5      21.017275   19.751223   20.905431 H          1 MOL1         0.0786
       9    C4      20.010820   19.789764   22.920765 C.3        1 MOL1        -0.1768
      10    H6      20.985706   19.806173   23.423103 H          1 MOL1         0.0829
      11    H7      19.469232   20.705868   23.181809 H          1 MOL1         0.0829
      12    O1      18.975838   19.886436   20.642365 O.3        1 MOL1        -0.5515
      13    H8      18.177392   19.592855   21.127760 H          1 MOL1         0.3773
@<TRIPOS>BOND
    1     1     2    1
    2     1     3    1
    3     1     4    1
    4     4     5    1
    5     4     6    1
    6     4     7    1
    7     7     8    1
    8     1     9    1
    9     7     9    1
   10     9    10    1
   11     9    11    1
   12     7    12    1
   13    12    13    1
@<TRIPOS>SUBSTRUCTURE
       1 MOL1            1 RESIDUE      1      MOL     
@<SCITEGIC>MOL_PROPERTY
VConf Rank
SciTegic.value.IntegerValue
525

@<SCITEGIC>MOL_PROPERTY
Conf_Id
SciTegic.value.IntegerValue
44

@<SCITEGIC>MOL_PROPERTY
Delta U+W
SciTegic.value.DoubleValue
0.823

@<SCITEGIC>MOL_PROPERTY
U+W
SciTegic.value.DoubleValue
-2.308

@<SCITEGIC>MOL_PROPERTY
Grad RMS
SciTegic.value.DoubleValue
0.000000

@<SCITEGIC>MOL_PROPERTY
U
SciTegic.value.DoubleValue
0.039

@<SCITEGIC>MOL_PROPERTY
W
SciTegic.value.DoubleValue
-2.348

@<SCITEGIC>MOL_PROPERTY
W(PB)
SciTegic.value.DoubleValue
-3.918

@<SCITEGIC>MOL_PROPERTY
W(SA)
SciTegic.value.DoubleValue
1.571

@<SCITEGIC>MOL_PROPERTY
Valence
SciTegic.value.DoubleValue
7.320

@<SCITEGIC>MOL_PROPERTY
Coulomb
SciTegic.value.DoubleValue
-8.530

@<SCITEGIC>MOL_PROPERTY
VdW
SciTegic.value.DoubleValue
1.249

@<SCITEGIC>MOL_PROPERTY
VdW6
SciTegic.value.DoubleValue
-2.615

@<SCITEGIC>MOL_PROPERTY
VdW12
SciTegic.value.DoubleValue
3.864

@<SCITEGIC>MOL_PROPERTY
Bond
SciTegic.value.DoubleValue
0.056

@<SCITEGIC>MOL_PROPERTY
Angle
SciTegic.value.DoubleValue
0.694

@<SCITEGIC>MOL_PROPERTY
Pdih
SciTegic.value.DoubleValue
6.570

@<SCITEGIC>MOL_PROPERTY
Idih
SciTegic.value.DoubleValue
0.000

@<SCITEGIC>MOL_PROPERTY
Tether
SciTegic.value.DoubleValue
0.000

@<TRIPOS>MOLECULE
guest-s16_confgen4.mol2 : confsearch ligand conformer 526
          13          13           1
SMALL
USER_CHARGES
 
@<TRIPOS>ATOM
       1    C1      20.048777   18.287666   23.260868 C.3        1 MOL1        -0.1693
       2    H1      19.215236   17.941950   23.886390 H          1 MOL1         0.0829
       3    H2      20.978597   17.849461   23.642639 H          1 MOL1         0.0829
       4    C2      20.073510   19.829486   22.997268 C.3        1 MOL1        -0.1768
       5    H3      19.690807   20.464271   23.803834 H          1 MOL1         0.0829
       6    H4      21.042520   20.224033   22.667213 H          1 MOL1         0.0829
       7    C3      19.072987   19.525157   21.841766 C.3        1 MOL1         0.1211
       8    H5      18.028204   19.441586   22.171170 H          1 MOL1         0.0786
       9    C4      19.809348   18.156855   21.720449 C.3        1 MOL1        -0.1768
      10    H6      19.193821   17.309785   21.398316 H          1 MOL1         0.0829
      11    H7      20.721499   18.182544   21.111258 H          1 MOL1         0.0829
      12    O1      19.177168   20.367488   20.717412 O.3        1 MOL1        -0.5515
      13    H8      18.620253   19.977624   20.009559 H          1 MOL1         0.3773
@<TRIPOS>BOND
    1     1     2    1
    2     1     3    1
    3     1     4    1
    4     4     5    1
    5     4     6    1
    6     4     7    1
    7     7     8    1
    8     1     9    1
    9     7     9    1
   10     9    10    1
   11     9    11    1
   12     7    12    1
   13    12    13    1
@<TRIPOS>SUBSTRUCTURE
       1 MOL1            1 RESIDUE      1      MOL     
@<SCITEGIC>MOL_PROPERTY
VConf Rank
SciTegic.value.IntegerValue
526

@<SCITEGIC>MOL_PROPERTY
Conf_Id
SciTegic.value.IntegerValue
22

@<SCITEGIC>MOL_PROPERTY
Delta U+W
SciTegic.value.DoubleValue
0.000

@<SCITEGIC>MOL_PROPERTY
U+W
SciTegic.value.DoubleValue
-3.131

@<SCITEGIC>MOL_PROPERTY
Grad RMS
SciTegic.value.DoubleValue
0.000000

@<SCITEGIC>MOL_PROPERTY
U
SciTegic.value.DoubleValue
-0.154

@<SCITEGIC>MOL_PROPERTY
W
SciTegic.value.DoubleValue
-2.978

@<SCITEGIC>MOL_PROPERTY
W(PB)
SciTegic.value.DoubleValue
-4.579

@<SCITEGIC>MOL_PROPERTY
W(SA)
SciTegic.value.DoubleValue
1.601

@<SCITEGIC>MOL_PROPERTY
Valence
SciTegic.value.DoubleValue
6.333

@<SCITEGIC>MOL_PROPERTY
Coulomb
SciTegic.value.DoubleValue
-7.439

@<SCITEGIC>MOL_PROPERTY
VdW
SciTegic.value.DoubleValue
0.952

@<SCITEGIC>MOL_PROPERTY
VdW6
SciTegic.value.DoubleValue
-2.120

@<SCITEGIC>MOL_PROPERTY
VdW12
SciTegic.value.DoubleValue
3.072

@<SCITEGIC>MOL_PROPERTY
Bond
SciTegic.value.DoubleValue
0.065

@<SCITEGIC>MOL_PROPERTY
Angle
SciTegic.value.DoubleValue
0.931

@<SCITEGIC>MOL_PROPERTY
Pdih
SciTegic.value.DoubleValue
5.338

@<SCITEGIC>MOL_PROPERTY
Idih
SciTegic.value.DoubleValue
0.000

@<SCITEGIC>MOL_PROPERTY
Tether
SciTegic.value.DoubleValue
0.000

@<TRIPOS>MOLECULE
guest-s16_confgen4.mol2 : confsearch ligand conformer 527
          13          13           1
SMALL
USER_CHARGES
 
@<TRIPOS>ATOM
       1    C1      18.633738   18.631758   23.060524 C.3        1 MOL1        -0.1693
       2    H1      18.382836   17.562925   23.075712 H          1 MOL1         0.0829
       3    H2      17.928949   19.166374   23.708440 H          1 MOL1         0.0829
       4    C2      18.846681   19.233963   21.632472 C.3        1 MOL1        -0.1768
       5    H3      18.770606   20.327254   21.580325 H          1 MOL1         0.0829
       6    H4      18.239805   18.799528   20.830511 H          1 MOL1         0.0829
       7    C3      20.302707   18.691243   21.753454 C.3        1 MOL1         0.1211
       8    H5      20.405609   17.628810   21.493242 H          1 MOL1         0.0786
       9    C4      20.148954   18.951481   23.282335 C.3        1 MOL1        -0.1768
      10    H6      20.360855   19.982594   23.591352 H          1 MOL1         0.0829
      11    H7      20.696546   18.267098   23.939392 H          1 MOL1         0.0829
      12    O1      21.288997   19.462292   21.107492 O.3        1 MOL1        -0.5515
      13    H8      21.175817   19.329062   20.141758 H          1 MOL1         0.3773
@<TRIPOS>BOND
    1     1     2    1
    2     1     3    1
    3     1     4    1
    4     4     5    1
    5     4     6    1
    6     4     7    1
    7     7     8    1
    8     1     9    1
    9     7     9    1
   10     9    10    1
   11     9    11    1
   12     7    12    1
   13    12    13    1
@<TRIPOS>SUBSTRUCTURE
       1 MOL1            1 RESIDUE      1      MOL     
@<SCITEGIC>MOL_PROPERTY
VConf Rank
SciTegic.value.IntegerValue
527

@<SCITEGIC>MOL_PROPERTY
Conf_Id
SciTegic.value.IntegerValue
19

@<SCITEGIC>MOL_PROPERTY
Delta U+W
SciTegic.value.DoubleValue
-0.011

@<SCITEGIC>MOL_PROPERTY
U+W
SciTegic.value.DoubleValue
-3.142

@<SCITEGIC>MOL_PROPERTY
Grad RMS
SciTegic.value.DoubleValue
0.000000

@<SCITEGIC>MOL_PROPERTY
U
SciTegic.value.DoubleValue
-0.154

@<SCITEGIC>MOL_PROPERTY
W
SciTegic.value.DoubleValue
-2.989

@<SCITEGIC>MOL_PROPERTY
W(PB)
SciTegic.value.DoubleValue
-4.588

@<SCITEGIC>MOL_PROPERTY
W(SA)
SciTegic.value.DoubleValue
1.599

@<SCITEGIC>MOL_PROPERTY
Valence
SciTegic.value.DoubleValue
6.334

@<SCITEGIC>MOL_PROPERTY
Coulomb
SciTegic.value.DoubleValue
-7.439

@<SCITEGIC>MOL_PROPERTY
VdW
SciTegic.value.DoubleValue
0.951

@<SCITEGIC>MOL_PROPERTY
VdW6
SciTegic.value.DoubleValue
-2.120

@<SCITEGIC>MOL_PROPERTY
VdW12
SciTegic.value.DoubleValue
3.072

@<SCITEGIC>MOL_PROPERTY
Bond
SciTegic.value.DoubleValue
0.065

@<SCITEGIC>MOL_PROPERTY
Angle
SciTegic.value.DoubleValue
0.930

@<SCITEGIC>MOL_PROPERTY
Pdih
SciTegic.value.DoubleValue
5.339

@<SCITEGIC>MOL_PROPERTY
Idih
SciTegic.value.DoubleValue
0.000

@<SCITEGIC>MOL_PROPERTY
Tether
SciTegic.value.DoubleValue
0.000

@<TRIPOS>MOLECULE
guest-s16_confgen4.mol2 : confsearch ligand conformer 528
          13          13           1
SMALL
USER_CHARGES
 
@<TRIPOS>ATOM
       1    C1      19.883471   19.916819   21.437821 C.3        1 MOL1        -0.1693
       2    H1      20.470976   20.816146   21.218675 H          1 MOL1         0.0829
       3    H2      19.334144   19.627089   20.532557 H          1 MOL1         0.0829
       4    C2      19.014296   19.962205   22.738378 C.3        1 MOL1        -0.1768
       5    H3      19.432403   20.578027   23.543807 H          1 MOL1         0.0829
       6    H4      17.960405   20.229733   22.603705 H          1 MOL1         0.0829
       7    C3      19.314098   18.437084   22.878210 C.3        1 MOL1         0.1211
       8    H5      19.432220   18.087339   23.911911 H          1 MOL1         0.0786
       9    C4      20.651679   18.745481   22.135333 C.3        1 MOL1        -0.1768
      10    H6      21.026648   17.956162   21.474481 H          1 MOL1         0.0829
      11    H7      21.467421   19.066621   22.794429 H          1 MOL1         0.0829
      12    O1      18.424472   17.589518   22.179395 O.3        1 MOL1        -0.5515
      13    H8      18.809453   16.687471   22.195399 H          1 MOL1         0.3773
@<TRIPOS>BOND
    1     1     2    1
    2     1     3    1
    3     1     4    1
    4     4     5    1
    5     4     6    1
    6     4     7    1
    7     7     8    1
    8     1     9    1
    9     7     9    1
   10     9    10    1
   11     9    11    1
   12     7    12    1
   13    12    13    1
@<TRIPOS>SUBSTRUCTURE
       1 MOL1            1 RESIDUE      1      MOL     
@<SCITEGIC>MOL_PROPERTY
VConf Rank
SciTegic.value.IntegerValue
528

@<SCITEGIC>MOL_PROPERTY
Conf_Id
SciTegic.value.IntegerValue
20

@<SCITEGIC>MOL_PROPERTY
Delta U+W
SciTegic.value.DoubleValue
1.030

@<SCITEGIC>MOL_PROPERTY
U+W
SciTegic.value.DoubleValue
-2.101

@<SCITEGIC>MOL_PROPERTY
Grad RMS
SciTegic.value.DoubleValue
0.000000

@<SCITEGIC>MOL_PROPERTY
U
SciTegic.value.DoubleValue
0.841

@<SCITEGIC>MOL_PROPERTY
W
SciTegic.value.DoubleValue
-2.942

@<SCITEGIC>MOL_PROPERTY
W(PB)
SciTegic.value.DoubleValue
-4.530

@<SCITEGIC>MOL_PROPERTY
W(SA)
SciTegic.value.DoubleValue
1.587

@<SCITEGIC>MOL_PROPERTY
Valence
SciTegic.value.DoubleValue
6.736

@<SCITEGIC>MOL_PROPERTY
Coulomb
SciTegic.value.DoubleValue
-7.246

@<SCITEGIC>MOL_PROPERTY
VdW
SciTegic.value.DoubleValue
1.352

@<SCITEGIC>MOL_PROPERTY
VdW6
SciTegic.value.DoubleValue
-2.500

@<SCITEGIC>MOL_PROPERTY
VdW12
SciTegic.value.DoubleValue
3.851

@<SCITEGIC>MOL_PROPERTY
Bond
SciTegic.value.DoubleValue
0.063

@<SCITEGIC>MOL_PROPERTY
Angle
SciTegic.value.DoubleValue
0.687

@<SCITEGIC>MOL_PROPERTY
Pdih
SciTegic.value.DoubleValue
5.986

@<SCITEGIC>MOL_PROPERTY
Idih
SciTegic.value.DoubleValue
0.000

@<SCITEGIC>MOL_PROPERTY
Tether
SciTegic.value.DoubleValue
0.000

@<TRIPOS>MOLECULE
guest-s16_confgen4.mol2 : confsearch ligand conformer 529
          13          13           1
SMALL
USER_CHARGES
 
@<TRIPOS>ATOM
       1    C1      19.632664   20.204738   22.464453 C.3        1 MOL1        -0.1693
       2    H1      19.957932   20.563526   23.449918 H          1 MOL1         0.0829
       3    H2      19.260568   21.058980   21.886321 H          1 MOL1         0.0829
       4    C2      18.707407   18.943795   22.500241 C.3        1 MOL1        -0.1768
       5    H3      18.042648   18.857996   23.366858 H          1 MOL1         0.0829
       6    H4      18.119572   18.781665   21.588347 H          1 MOL1         0.0829
       7    C3      20.031746   18.125881   22.579608 C.3        1 MOL1         0.1211
       8    H5      20.443538   18.044883   23.594774 H          1 MOL1         0.0786
       9    C4      20.658830   19.276033   21.735174 C.3        1 MOL1        -0.1768
      10    H6      20.507161   19.188163   20.652278 H          1 MOL1         0.0829
      11    H7      21.717474   19.483649   21.926119 H          1 MOL1         0.0829
      12    O1      20.001579   16.864645   21.954955 O.3        1 MOL1        -0.5515
      13    H8      19.627483   16.998885   21.058991 H          1 MOL1         0.3773
@<TRIPOS>BOND
    1     1     2    1
    2     1     3    1
    3     1     4    1
    4     4     5    1
    5     4     6    1
    6     4     7    1
    7     7     8    1
    8     1     9    1
    9     7     9    1
   10     9    10    1
   11     9    11    1
   12     7    12    1
   13    12    13    1
@<TRIPOS>SUBSTRUCTURE
       1 MOL1            1 RESIDUE      1      MOL     
@<SCITEGIC>MOL_PROPERTY
VConf Rank
SciTegic.value.IntegerValue
529

@<SCITEGIC>MOL_PROPERTY
Conf_Id
SciTegic.value.IntegerValue
24

@<SCITEGIC>MOL_PROPERTY
Delta U+W
SciTegic.value.DoubleValue
0.356

@<SCITEGIC>MOL_PROPERTY
U+W
SciTegic.value.DoubleValue
-2.775

@<SCITEGIC>MOL_PROPERTY
Grad RMS
SciTegic.value.DoubleValue
0.000000

@<SCITEGIC>MOL_PROPERTY
U
SciTegic.value.DoubleValue
-0.184

@<SCITEGIC>MOL_PROPERTY
W
SciTegic.value.DoubleValue
-2.591

@<SCITEGIC>MOL_PROPERTY
W(PB)
SciTegic.value.DoubleValue
-4.184

@<SCITEGIC>MOL_PROPERTY
W(SA)
SciTegic.value.DoubleValue
1.593

@<SCITEGIC>MOL_PROPERTY
Valence
SciTegic.value.DoubleValue
6.840

@<SCITEGIC>MOL_PROPERTY
Coulomb
SciTegic.value.DoubleValue
-7.916

@<SCITEGIC>MOL_PROPERTY
VdW
SciTegic.value.DoubleValue
0.893

@<SCITEGIC>MOL_PROPERTY
VdW6
SciTegic.value.DoubleValue
-2.167

@<SCITEGIC>MOL_PROPERTY
VdW12
SciTegic.value.DoubleValue
3.060

@<SCITEGIC>MOL_PROPERTY
Bond
SciTegic.value.DoubleValue
0.059

@<SCITEGIC>MOL_PROPERTY
Angle
SciTegic.value.DoubleValue
0.918

@<SCITEGIC>MOL_PROPERTY
Pdih
SciTegic.value.DoubleValue
5.862

@<SCITEGIC>MOL_PROPERTY
Idih
SciTegic.value.DoubleValue
0.000

@<SCITEGIC>MOL_PROPERTY
Tether
SciTegic.value.DoubleValue
0.000

@<TRIPOS>MOLECULE
guest-s16_confgen4.mol2 : confsearch ligand conformer 530
          13          13           1
SMALL
USER_CHARGES
 
@<TRIPOS>ATOM
       1    C1      20.648870   19.409378   22.609524 C.3        1 MOL1        -0.1693
       2    H1      21.743387   19.343826   22.619971 H          1 MOL1         0.0829
       3    H2      20.345649   20.245812   23.251966 H          1 MOL1         0.0829
       4    C2      19.880773   18.069874   22.866229 C.3        1 MOL1        -0.1768
       5    H3      20.407342   17.171939   22.520609 H          1 MOL1         0.0829
       6    H4      19.537526   17.898727   23.892679 H          1 MOL1         0.0829
       7    C3      18.806336   18.601436   21.867720 C.3        1 MOL1         0.1211
       8    H5      18.344876   17.832477   21.235072 H          1 MOL1         0.0786
       9    C4      19.975569   19.386624   21.196625 C.3        1 MOL1        -0.1768
      10    H6      20.525381   18.811537   20.441643 H          1 MOL1         0.0829
      11    H7      19.714836   20.361595   20.769826 H          1 MOL1         0.0829
      12    O1      17.807236   19.410882   22.449376 O.3        1 MOL1        -0.5515
      13    H8      18.274075   20.073863   22.998768 H          1 MOL1         0.3773
@<TRIPOS>BOND
    1     1     2    1
    2     1     3    1
    3     1     4    1
    4     4     5    1
    5     4     6    1
    6     4     7    1
    7     7     8    1
    8     1     9    1
    9     7     9    1
   10     9    10    1
   11     9    11    1
   12     7    12    1
   13    12    13    1
@<TRIPOS>SUBSTRUCTURE
       1 MOL1            1 RESIDUE      1      MOL     
@<SCITEGIC>MOL_PROPERTY
VConf Rank
SciTegic.value.IntegerValue
530

@<SCITEGIC>MOL_PROPERTY
Conf_Id
SciTegic.value.IntegerValue
44

@<SCITEGIC>MOL_PROPERTY
Delta U+W
SciTegic.value.DoubleValue
0.823

@<SCITEGIC>MOL_PROPERTY
U+W
SciTegic.value.DoubleValue
-2.308

@<SCITEGIC>MOL_PROPERTY
Grad RMS
SciTegic.value.DoubleValue
0.000000

@<SCITEGIC>MOL_PROPERTY
U
SciTegic.value.DoubleValue
0.039

@<SCITEGIC>MOL_PROPERTY
W
SciTegic.value.DoubleValue
-2.348

@<SCITEGIC>MOL_PROPERTY
W(PB)
SciTegic.value.DoubleValue
-3.918

@<SCITEGIC>MOL_PROPERTY
W(SA)
SciTegic.value.DoubleValue
1.571

@<SCITEGIC>MOL_PROPERTY
Valence
SciTegic.value.DoubleValue
7.320

@<SCITEGIC>MOL_PROPERTY
Coulomb
SciTegic.value.DoubleValue
-8.530

@<SCITEGIC>MOL_PROPERTY
VdW
SciTegic.value.DoubleValue
1.249

@<SCITEGIC>MOL_PROPERTY
VdW6
SciTegic.value.DoubleValue
-2.615

@<SCITEGIC>MOL_PROPERTY
VdW12
SciTegic.value.DoubleValue
3.864

@<SCITEGIC>MOL_PROPERTY
Bond
SciTegic.value.DoubleValue
0.056

@<SCITEGIC>MOL_PROPERTY
Angle
SciTegic.value.DoubleValue
0.694

@<SCITEGIC>MOL_PROPERTY
Pdih
SciTegic.value.DoubleValue
6.570

@<SCITEGIC>MOL_PROPERTY
Idih
SciTegic.value.DoubleValue
0.000

@<SCITEGIC>MOL_PROPERTY
Tether
SciTegic.value.DoubleValue
0.000

@<TRIPOS>MOLECULE
guest-s16_confgen4.mol2 : confsearch ligand conformer 531
          13          13           1
SMALL
USER_CHARGES
 
@<TRIPOS>ATOM
       1    C1      19.300615   20.302235   22.393549 C.3        1 MOL1        -0.1693
       2    H1      19.312639   20.643045   23.437239 H          1 MOL1         0.0829
       3    H2      19.027788   21.148399   21.751746 H          1 MOL1         0.0829
       4    C2      18.513960   18.972430   22.148395 C.3        1 MOL1        -0.1768
       5    H3      17.646732   18.797372   22.794330 H          1 MOL1         0.0829
       6    H4      18.218670   18.798337   21.106243 H          1 MOL1         0.0829
       7    C3      19.831422   18.256992   22.574176 C.3        1 MOL1         0.1211
       8    H5      19.953984   18.165541   23.662146 H          1 MOL1         0.0786
       9    C4      20.562359   19.487187   21.956482 C.3        1 MOL1        -0.1768
      10    H6      21.507747   19.769918   22.432376 H          1 MOL1         0.0829
      11    H7      20.716629   19.428386   20.871799 H          1 MOL1         0.0829
      12    O1      20.080851   17.025395   21.937387 O.3        1 MOL1        -0.5515
      13    H8      20.999330   16.762669   22.162273 H          1 MOL1         0.3773
@<TRIPOS>BOND
    1     1     2    1
    2     1     3    1
    3     1     4    1
    4     4     5    1
    5     4     6    1
    6     4     7    1
    7     7     8    1
    8     1     9    1
    9     7     9    1
   10     9    10    1
   11     9    11    1
   12     7    12    1
   13    12    13    1
@<TRIPOS>SUBSTRUCTURE
       1 MOL1            1 RESIDUE      1      MOL     
@<SCITEGIC>MOL_PROPERTY
VConf Rank
SciTegic.value.IntegerValue
531

@<SCITEGIC>MOL_PROPERTY
Conf_Id
SciTegic.value.IntegerValue
22

@<SCITEGIC>MOL_PROPERTY
Delta U+W
SciTegic.value.DoubleValue
0.000

@<SCITEGIC>MOL_PROPERTY
U+W
SciTegic.value.DoubleValue
-3.131

@<SCITEGIC>MOL_PROPERTY
Grad RMS
SciTegic.value.DoubleValue
0.000000

@<SCITEGIC>MOL_PROPERTY
U
SciTegic.value.DoubleValue
-0.154

@<SCITEGIC>MOL_PROPERTY
W
SciTegic.value.DoubleValue
-2.978

@<SCITEGIC>MOL_PROPERTY
W(PB)
SciTegic.value.DoubleValue
-4.579

@<SCITEGIC>MOL_PROPERTY
W(SA)
SciTegic.value.DoubleValue
1.601

@<SCITEGIC>MOL_PROPERTY
Valence
SciTegic.value.DoubleValue
6.333

@<SCITEGIC>MOL_PROPERTY
Coulomb
SciTegic.value.DoubleValue
-7.439

@<SCITEGIC>MOL_PROPERTY
VdW
SciTegic.value.DoubleValue
0.952

@<SCITEGIC>MOL_PROPERTY
VdW6
SciTegic.value.DoubleValue
-2.120

@<SCITEGIC>MOL_PROPERTY
VdW12
SciTegic.value.DoubleValue
3.072

@<SCITEGIC>MOL_PROPERTY
Bond
SciTegic.value.DoubleValue
0.065

@<SCITEGIC>MOL_PROPERTY
Angle
SciTegic.value.DoubleValue
0.931

@<SCITEGIC>MOL_PROPERTY
Pdih
SciTegic.value.DoubleValue
5.338

@<SCITEGIC>MOL_PROPERTY
Idih
SciTegic.value.DoubleValue
0.000

@<SCITEGIC>MOL_PROPERTY
Tether
SciTegic.value.DoubleValue
0.000

@<TRIPOS>MOLECULE
guest-s16_confgen4.mol2 : confsearch ligand conformer 532
          13          13           1
SMALL
USER_CHARGES
 
@<TRIPOS>ATOM
       1    C1      18.961019   18.760183   21.120228 C.3        1 MOL1        -0.1693
       2    H1      19.206821   19.505797   20.352616 H          1 MOL1         0.0829
       3    H2      18.170726   18.106082   20.733026 H          1 MOL1         0.0829
       4    C2      18.727564   19.346731   22.551588 C.3        1 MOL1        -0.1768
       5    H3      18.175228   18.687111   23.232484 H          1 MOL1         0.0829
       6    H4      18.286644   20.348616   22.596164 H          1 MOL1         0.0829
       7    C3      20.277601   19.278821   22.699803 C.3        1 MOL1         0.1211
       8    H5      20.805411   20.137225   22.262059 H          1 MOL1         0.0786
       9    C4      20.197568   18.042139   21.754787 C.3        1 MOL1        -0.1768
      10    H6      19.969760   17.096493   22.262176 H          1 MOL1         0.0829
      11    H7      21.059200   17.889781   21.095744 H          1 MOL1         0.0829
      12    O1      20.747623   19.013073   24.000960 O.3        1 MOL1        -0.5515
      13    H8      20.596934   19.822329   24.535375 H          1 MOL1         0.3773
@<TRIPOS>BOND
    1     1     2    1
    2     1     3    1
    3     1     4    1
    4     4     5    1
    5     4     6    1
    6     4     7    1
    7     7     8    1
    8     1     9    1
    9     7     9    1
   10     9    10    1
   11     9    11    1
   12     7    12    1
   13    12    13    1
@<TRIPOS>SUBSTRUCTURE
       1 MOL1            1 RESIDUE      1      MOL     
@<SCITEGIC>MOL_PROPERTY
VConf Rank
SciTegic.value.IntegerValue
532

@<SCITEGIC>MOL_PROPERTY
Conf_Id
SciTegic.value.IntegerValue
19

@<SCITEGIC>MOL_PROPERTY
Delta U+W
SciTegic.value.DoubleValue
-0.011

@<SCITEGIC>MOL_PROPERTY
U+W
SciTegic.value.DoubleValue
-3.142

@<SCITEGIC>MOL_PROPERTY
Grad RMS
SciTegic.value.DoubleValue
0.000000

@<SCITEGIC>MOL_PROPERTY
U
SciTegic.value.DoubleValue
-0.154

@<SCITEGIC>MOL_PROPERTY
W
SciTegic.value.DoubleValue
-2.989

@<SCITEGIC>MOL_PROPERTY
W(PB)
SciTegic.value.DoubleValue
-4.588

@<SCITEGIC>MOL_PROPERTY
W(SA)
SciTegic.value.DoubleValue
1.599

@<SCITEGIC>MOL_PROPERTY
Valence
SciTegic.value.DoubleValue
6.334

@<SCITEGIC>MOL_PROPERTY
Coulomb
SciTegic.value.DoubleValue
-7.439

@<SCITEGIC>MOL_PROPERTY
VdW
SciTegic.value.DoubleValue
0.951

@<SCITEGIC>MOL_PROPERTY
VdW6
SciTegic.value.DoubleValue
-2.120

@<SCITEGIC>MOL_PROPERTY
VdW12
SciTegic.value.DoubleValue
3.072

@<SCITEGIC>MOL_PROPERTY
Bond
SciTegic.value.DoubleValue
0.065

@<SCITEGIC>MOL_PROPERTY
Angle
SciTegic.value.DoubleValue
0.930

@<SCITEGIC>MOL_PROPERTY
Pdih
SciTegic.value.DoubleValue
5.339

@<SCITEGIC>MOL_PROPERTY
Idih
SciTegic.value.DoubleValue
0.000

@<SCITEGIC>MOL_PROPERTY
Tether
SciTegic.value.DoubleValue
0.000

@<TRIPOS>MOLECULE
guest-s16_confgen4.mol2 : confsearch ligand conformer 533
          13          13           1
SMALL
USER_CHARGES
 
@<TRIPOS>ATOM
       1    C1      18.762603   18.229839   22.566700 C.3        1 MOL1        -0.1693
       2    H1      17.684292   18.056451   22.662402 H          1 MOL1         0.0829
       3    H2      19.287531   17.281594   22.741312 H          1 MOL1         0.0829
       4    C2      19.337706   19.447075   23.364550 C.3        1 MOL1        -0.1768
       5    H3      18.636904   20.281391   23.489286 H          1 MOL1         0.0829
       6    H4      19.784872   19.216483   24.337824 H          1 MOL1         0.0829
       7    C3      20.341084   19.626088   22.182765 C.3        1 MOL1         0.1211
       8    H5      20.589985   20.669142   21.948458 H          1 MOL1         0.0786
       9    C4      19.224824   19.003139   21.287224 C.3        1 MOL1        -0.1768
      10    H6      19.569661   18.385171   20.450831 H          1 MOL1         0.0829
      11    H7      18.495995   19.729754   20.907998 H          1 MOL1         0.0829
      12    O1      21.523231   18.857781   22.284638 O.3        1 MOL1        -0.5515
      13    H8      21.982997   18.915788   21.420111 H          1 MOL1         0.3773
@<TRIPOS>BOND
    1     1     2    1
    2     1     3    1
    3     1     4    1
    4     4     5    1
    5     4     6    1
    6     4     7    1
    7     7     8    1
    8     1     9    1
    9     7     9    1
   10     9    10    1
   11     9    11    1
   12     7    12    1
   13    12    13    1
@<TRIPOS>SUBSTRUCTURE
       1 MOL1            1 RESIDUE      1      MOL     
@<SCITEGIC>MOL_PROPERTY
VConf Rank
SciTegic.value.IntegerValue
533

@<SCITEGIC>MOL_PROPERTY
Conf_Id
SciTegic.value.IntegerValue
20

@<SCITEGIC>MOL_PROPERTY
Delta U+W
SciTegic.value.DoubleValue
1.030

@<SCITEGIC>MOL_PROPERTY
U+W
SciTegic.value.DoubleValue
-2.101

@<SCITEGIC>MOL_PROPERTY
Grad RMS
SciTegic.value.DoubleValue
0.000000

@<SCITEGIC>MOL_PROPERTY
U
SciTegic.value.DoubleValue
0.841

@<SCITEGIC>MOL_PROPERTY
W
SciTegic.value.DoubleValue
-2.942

@<SCITEGIC>MOL_PROPERTY
W(PB)
SciTegic.value.DoubleValue
-4.530

@<SCITEGIC>MOL_PROPERTY
W(SA)
SciTegic.value.DoubleValue
1.587

@<SCITEGIC>MOL_PROPERTY
Valence
SciTegic.value.DoubleValue
6.736

@<SCITEGIC>MOL_PROPERTY
Coulomb
SciTegic.value.DoubleValue
-7.246

@<SCITEGIC>MOL_PROPERTY
VdW
SciTegic.value.DoubleValue
1.352

@<SCITEGIC>MOL_PROPERTY
VdW6
SciTegic.value.DoubleValue
-2.500

@<SCITEGIC>MOL_PROPERTY
VdW12
SciTegic.value.DoubleValue
3.851

@<SCITEGIC>MOL_PROPERTY
Bond
SciTegic.value.DoubleValue
0.063

@<SCITEGIC>MOL_PROPERTY
Angle
SciTegic.value.DoubleValue
0.687

@<SCITEGIC>MOL_PROPERTY
Pdih
SciTegic.value.DoubleValue
5.986

@<SCITEGIC>MOL_PROPERTY
Idih
SciTegic.value.DoubleValue
0.000

@<SCITEGIC>MOL_PROPERTY
Tether
SciTegic.value.DoubleValue
0.000

@<TRIPOS>MOLECULE
guest-s16_confgen4.mol2 : confsearch ligand conformer 534
          13          13           1
SMALL
USER_CHARGES
 
@<TRIPOS>ATOM
       1    C1      18.683055   18.810329   21.511609 C.3        1 MOL1        -0.1693
       2    H1      18.168462   19.716368   21.165264 H          1 MOL1         0.0829
       3    H2      18.129173   17.934534   21.152972 H          1 MOL1         0.0829
       4    C2      19.058379   18.811475   23.030322 C.3        1 MOL1        -0.1768
       5    H3      18.372073   19.346177   23.696182 H          1 MOL1         0.0829
       6    H4      19.257219   17.818985   23.453186 H          1 MOL1         0.0829
       7    C3      20.327497   19.601914   22.590208 C.3        1 MOL1         0.1211
       8    H5      20.159566   20.680954   22.471188 H          1 MOL1         0.0786
       9    C4      20.226847   18.797924   21.258809 C.3        1 MOL1        -0.1768
      10    H6      20.686854   17.802405   21.285718 H          1 MOL1         0.0829
      11    H7      20.572478   19.320658   20.360154 H          1 MOL1         0.0829
      12    O1      21.484604   19.361867   23.355256 O.3        1 MOL1        -0.5515
      13    H8      21.582395   18.389249   23.427168 H          1 MOL1         0.3773
@<TRIPOS>BOND
    1     1     2    1
    2     1     3    1
    3     1     4    1
    4     4     5    1
    5     4     6    1
    6     4     7    1
    7     7     8    1
    8     1     9    1
    9     7     9    1
   10     9    10    1
   11     9    11    1
   12     7    12    1
   13    12    13    1
@<TRIPOS>SUBSTRUCTURE
       1 MOL1            1 RESIDUE      1      MOL     
@<SCITEGIC>MOL_PROPERTY
VConf Rank
SciTegic.value.IntegerValue
534

@<SCITEGIC>MOL_PROPERTY
Conf_Id
SciTegic.value.IntegerValue
24

@<SCITEGIC>MOL_PROPERTY
Delta U+W
SciTegic.value.DoubleValue
0.356

@<SCITEGIC>MOL_PROPERTY
U+W
SciTegic.value.DoubleValue
-2.775

@<SCITEGIC>MOL_PROPERTY
Grad RMS
SciTegic.value.DoubleValue
0.000000

@<SCITEGIC>MOL_PROPERTY
U
SciTegic.value.DoubleValue
-0.184

@<SCITEGIC>MOL_PROPERTY
W
SciTegic.value.DoubleValue
-2.591

@<SCITEGIC>MOL_PROPERTY
W(PB)
SciTegic.value.DoubleValue
-4.184

@<SCITEGIC>MOL_PROPERTY
W(SA)
SciTegic.value.DoubleValue
1.593

@<SCITEGIC>MOL_PROPERTY
Valence
SciTegic.value.DoubleValue
6.840

@<SCITEGIC>MOL_PROPERTY
Coulomb
SciTegic.value.DoubleValue
-7.916

@<SCITEGIC>MOL_PROPERTY
VdW
SciTegic.value.DoubleValue
0.893

@<SCITEGIC>MOL_PROPERTY
VdW6
SciTegic.value.DoubleValue
-2.167

@<SCITEGIC>MOL_PROPERTY
VdW12
SciTegic.value.DoubleValue
3.060

@<SCITEGIC>MOL_PROPERTY
Bond
SciTegic.value.DoubleValue
0.059

@<SCITEGIC>MOL_PROPERTY
Angle
SciTegic.value.DoubleValue
0.918

@<SCITEGIC>MOL_PROPERTY
Pdih
SciTegic.value.DoubleValue
5.862

@<SCITEGIC>MOL_PROPERTY
Idih
SciTegic.value.DoubleValue
0.000

@<SCITEGIC>MOL_PROPERTY
Tether
SciTegic.value.DoubleValue
0.000

@<TRIPOS>MOLECULE
guest-s16_confgen4.mol2 : confsearch ligand conformer 535
          13          13           1
SMALL
USER_CHARGES
 
@<TRIPOS>ATOM
       1    C1      19.864457   17.895805   21.923782 C.3        1 MOL1        -0.1693
       2    H1      20.608009   17.133132   21.663336 H          1 MOL1         0.0829
       3    H2      18.869923   17.432512   21.900171 H          1 MOL1         0.0829
       4    C2      19.977149   19.252901   21.151947 C.3        1 MOL1        -0.1768
       5    H3      20.997997   19.521697   20.854235 H          1 MOL1         0.0829
       6    H4      19.318829   19.371302   20.284016 H          1 MOL1         0.0829
       7    C3      19.497673   19.936742   22.469694 C.3        1 MOL1         0.1211
       8    H5      19.951838   20.915004   22.672731 H          1 MOL1         0.0786
       9    C4      20.168514   18.737299   23.208140 C.3        1 MOL1        -0.1768
      10    H6      21.236282   18.879676   23.414575 H          1 MOL1         0.0829
      11    H7      19.676763   18.406911   24.129949 H          1 MOL1         0.0829
      12    O1      18.096563   20.014952   22.619700 O.3        1 MOL1        -0.5515
      13    H8      17.747859   19.120039   22.427732 H          1 MOL1         0.3773
@<TRIPOS>BOND
    1     1     2    1
    2     1     3    1
    3     1     4    1
    4     4     5    1
    5     4     6    1
    6     4     7    1
    7     7     8    1
    8     1     9    1
    9     7     9    1
   10     9    10    1
   11     9    11    1
   12     7    12    1
   13    12    13    1
@<TRIPOS>SUBSTRUCTURE
       1 MOL1            1 RESIDUE      1      MOL     
@<SCITEGIC>MOL_PROPERTY
VConf Rank
SciTegic.value.IntegerValue
535

@<SCITEGIC>MOL_PROPERTY
Conf_Id
SciTegic.value.IntegerValue
44

@<SCITEGIC>MOL_PROPERTY
Delta U+W
SciTegic.value.DoubleValue
0.823

@<SCITEGIC>MOL_PROPERTY
U+W
SciTegic.value.DoubleValue
-2.308

@<SCITEGIC>MOL_PROPERTY
Grad RMS
SciTegic.value.DoubleValue
0.000000

@<SCITEGIC>MOL_PROPERTY
U
SciTegic.value.DoubleValue
0.039

@<SCITEGIC>MOL_PROPERTY
W
SciTegic.value.DoubleValue
-2.348

@<SCITEGIC>MOL_PROPERTY
W(PB)
SciTegic.value.DoubleValue
-3.918

@<SCITEGIC>MOL_PROPERTY
W(SA)
SciTegic.value.DoubleValue
1.571

@<SCITEGIC>MOL_PROPERTY
Valence
SciTegic.value.DoubleValue
7.320

@<SCITEGIC>MOL_PROPERTY
Coulomb
SciTegic.value.DoubleValue
-8.530

@<SCITEGIC>MOL_PROPERTY
VdW
SciTegic.value.DoubleValue
1.249

@<SCITEGIC>MOL_PROPERTY
VdW6
SciTegic.value.DoubleValue
-2.615

@<SCITEGIC>MOL_PROPERTY
VdW12
SciTegic.value.DoubleValue
3.864

@<SCITEGIC>MOL_PROPERTY
Bond
SciTegic.value.DoubleValue
0.056

@<SCITEGIC>MOL_PROPERTY
Angle
SciTegic.value.DoubleValue
0.694

@<SCITEGIC>MOL_PROPERTY
Pdih
SciTegic.value.DoubleValue
6.570

@<SCITEGIC>MOL_PROPERTY
Idih
SciTegic.value.DoubleValue
0.000

@<SCITEGIC>MOL_PROPERTY
Tether
SciTegic.value.DoubleValue
0.000

@<TRIPOS>MOLECULE
guest-s16_confgen4.mol2 : confsearch ligand conformer 536
          13          13           1
SMALL
USER_CHARGES
 
@<TRIPOS>ATOM
       1    C1      20.237853   19.998876   22.956648 C.3        1 MOL1        -0.1693
       2    H1      19.819348   20.103488   23.966349 H          1 MOL1         0.0829
       3    H2      21.067343   20.707425   22.846002 H          1 MOL1         0.0829
       4    C2      19.178036   19.996782   21.805957 C.3        1 MOL1        -0.1768
       5    H3      18.284326   20.608500   21.970414 H          1 MOL1         0.0829
       6    H4      19.580247   20.220167   20.810010 H          1 MOL1         0.0829
       7    C3      19.024944   18.476804   22.114301 C.3        1 MOL1         0.1211
       8    H5      18.345592   18.260774   22.950288 H          1 MOL1         0.0786
       9    C4      20.529469   18.525742   22.518284 C.3        1 MOL1        -0.1768
      10    H6      20.833261   17.836940   23.314169 H          1 MOL1         0.0829
      11    H7      21.230046   18.427502   21.679633 H          1 MOL1         0.0829
      12    O1      18.725274   17.664098   21.003332 O.3        1 MOL1        -0.5515
      13    H8      18.816988   16.730810   21.292756 H          1 MOL1         0.3773
@<TRIPOS>BOND
    1     1     2    1
    2     1     3    1
    3     1     4    1
    4     4     5    1
    5     4     6    1
    6     4     7    1
    7     7     8    1
    8     1     9    1
    9     7     9    1
   10     9    10    1
   11     9    11    1
   12     7    12    1
   13    12    13    1
@<TRIPOS>SUBSTRUCTURE
       1 MOL1            1 RESIDUE      1      MOL     
@<SCITEGIC>MOL_PROPERTY
VConf Rank
SciTegic.value.IntegerValue
536

@<SCITEGIC>MOL_PROPERTY
Conf_Id
SciTegic.value.IntegerValue
22

@<SCITEGIC>MOL_PROPERTY
Delta U+W
SciTegic.value.DoubleValue
0.000

@<SCITEGIC>MOL_PROPERTY
U+W
SciTegic.value.DoubleValue
-3.131

@<SCITEGIC>MOL_PROPERTY
Grad RMS
SciTegic.value.DoubleValue
0.000000

@<SCITEGIC>MOL_PROPERTY
U
SciTegic.value.DoubleValue
-0.154

@<SCITEGIC>MOL_PROPERTY
W
SciTegic.value.DoubleValue
-2.978

@<SCITEGIC>MOL_PROPERTY
W(PB)
SciTegic.value.DoubleValue
-4.579

@<SCITEGIC>MOL_PROPERTY
W(SA)
SciTegic.value.DoubleValue
1.601

@<SCITEGIC>MOL_PROPERTY
Valence
SciTegic.value.DoubleValue
6.333

@<SCITEGIC>MOL_PROPERTY
Coulomb
SciTegic.value.DoubleValue
-7.439

@<SCITEGIC>MOL_PROPERTY
VdW
SciTegic.value.DoubleValue
0.952

@<SCITEGIC>MOL_PROPERTY
VdW6
SciTegic.value.DoubleValue
-2.120

@<SCITEGIC>MOL_PROPERTY
VdW12
SciTegic.value.DoubleValue
3.072

@<SCITEGIC>MOL_PROPERTY
Bond
SciTegic.value.DoubleValue
0.065

@<SCITEGIC>MOL_PROPERTY
Angle
SciTegic.value.DoubleValue
0.931

@<SCITEGIC>MOL_PROPERTY
Pdih
SciTegic.value.DoubleValue
5.338

@<SCITEGIC>MOL_PROPERTY
Idih
SciTegic.value.DoubleValue
0.000

@<SCITEGIC>MOL_PROPERTY
Tether
SciTegic.value.DoubleValue
0.000

@<TRIPOS>MOLECULE
guest-s16_confgen4.mol2 : confsearch ligand conformer 537
          13          13           1
SMALL
USER_CHARGES
 
@<TRIPOS>ATOM
       1    C1      20.261752   19.975121   21.755825 C.3        1 MOL1        -0.1693
       2    H1      20.160881   20.076741   20.667209 H          1 MOL1         0.0829
       3    H2      20.920534   20.771285   22.122525 H          1 MOL1         0.0829
       4    C2      20.591602   18.528098   22.250449 C.3        1 MOL1        -0.1768
       5    H3      21.010022   18.474425   23.263285 H          1 MOL1         0.0829
       6    H4      21.208678   17.918641   21.581156 H          1 MOL1         0.0829
       7    C3      19.054697   18.281552   22.170881 C.3        1 MOL1         0.1211
       8    H5      18.695632   18.025912   21.164510 H          1 MOL1         0.0786
       9    C4      18.911210   19.792703   22.523981 C.3        1 MOL1        -0.1768
      10    H6      18.959006   20.015118   23.597215 H          1 MOL1         0.0829
      11    H7      18.039618   20.300842   22.097271 H          1 MOL1         0.0829
      12    O1      18.537268   17.387499   23.128735 O.3        1 MOL1        -0.5515
      13    H8      18.831199   16.486443   22.873967 H          1 MOL1         0.3773
@<TRIPOS>BOND
    1     1     2    1
    2     1     3    1
    3     1     4    1
    4     4     5    1
    5     4     6    1
    6     4     7    1
    7     7     8    1
    8     1     9    1
    9     7     9    1
   10     9    10    1
   11     9    11    1
   12     7    12    1
   13    12    13    1
@<TRIPOS>SUBSTRUCTURE
       1 MOL1            1 RESIDUE      1      MOL     
@<SCITEGIC>MOL_PROPERTY
VConf Rank
SciTegic.value.IntegerValue
537

@<SCITEGIC>MOL_PROPERTY
Conf_Id
SciTegic.value.IntegerValue
19

@<SCITEGIC>MOL_PROPERTY
Delta U+W
SciTegic.value.DoubleValue
-0.011

@<SCITEGIC>MOL_PROPERTY
U+W
SciTegic.value.DoubleValue
-3.142

@<SCITEGIC>MOL_PROPERTY
Grad RMS
SciTegic.value.DoubleValue
0.000000

@<SCITEGIC>MOL_PROPERTY
U
SciTegic.value.DoubleValue
-0.154

@<SCITEGIC>MOL_PROPERTY
W
SciTegic.value.DoubleValue
-2.989

@<SCITEGIC>MOL_PROPERTY
W(PB)
SciTegic.value.DoubleValue
-4.588

@<SCITEGIC>MOL_PROPERTY
W(SA)
SciTegic.value.DoubleValue
1.599

@<SCITEGIC>MOL_PROPERTY
Valence
SciTegic.value.DoubleValue
6.334

@<SCITEGIC>MOL_PROPERTY
Coulomb
SciTegic.value.DoubleValue
-7.439

@<SCITEGIC>MOL_PROPERTY
VdW
SciTegic.value.DoubleValue
0.951

@<SCITEGIC>MOL_PROPERTY
VdW6
SciTegic.value.DoubleValue
-2.120

@<SCITEGIC>MOL_PROPERTY
VdW12
SciTegic.value.DoubleValue
3.072

@<SCITEGIC>MOL_PROPERTY
Bond
SciTegic.value.DoubleValue
0.065

@<SCITEGIC>MOL_PROPERTY
Angle
SciTegic.value.DoubleValue
0.930

@<SCITEGIC>MOL_PROPERTY
Pdih
SciTegic.value.DoubleValue
5.339

@<SCITEGIC>MOL_PROPERTY
Idih
SciTegic.value.DoubleValue
0.000

@<SCITEGIC>MOL_PROPERTY
Tether
SciTegic.value.DoubleValue
0.000

@<TRIPOS>MOLECULE
guest-s16_confgen4.mol2 : confsearch ligand conformer 538
          13          13           1
SMALL
USER_CHARGES
 
@<TRIPOS>ATOM
       1    C1      20.165462   20.106952   22.632991 C.3        1 MOL1        -0.1693
       2    H1      20.318728   20.802608   23.466387 H          1 MOL1         0.0829
       3    H2      20.766871   20.444446   21.778818 H          1 MOL1         0.0829
       4    C2      18.678239   19.765550   22.285738 C.3        1 MOL1        -0.1768
       5    H3      17.994944   19.784151   23.143367 H          1 MOL1         0.0829
       6    H4      18.230526   20.341624   21.468373 H          1 MOL1         0.0829
       7    C3      19.192678   18.341209   21.908862 C.3        1 MOL1         0.1211
       8    H5      18.499051   17.525741   22.151153 H          1 MOL1         0.0786
       9    C4      20.310671   18.585792   22.970166 C.3        1 MOL1        -0.1768
      10    H6      21.285840   18.136444   22.752256 H          1 MOL1         0.0829
      11    H7      20.023453   18.318506   23.994391 H          1 MOL1         0.0829
      12    O1      19.651141   18.207138   20.578456 O.3        1 MOL1        -0.5515
      13    H8      20.104082   17.339536   20.513142 H          1 MOL1         0.3773
@<TRIPOS>BOND
    1     1     2    1
    2     1     3    1
    3     1     4    1
    4     4     5    1
    5     4     6    1
    6     4     7    1
    7     7     8    1
    8     1     9    1
    9     7     9    1
   10     9    10    1
   11     9    11    1
   12     7    12    1
   13    12    13    1
@<TRIPOS>SUBSTRUCTURE
       1 MOL1            1 RESIDUE      1      MOL     
@<SCITEGIC>MOL_PROPERTY
VConf Rank
SciTegic.value.IntegerValue
538

@<SCITEGIC>MOL_PROPERTY
Conf_Id
SciTegic.value.IntegerValue
20

@<SCITEGIC>MOL_PROPERTY
Delta U+W
SciTegic.value.DoubleValue
1.030

@<SCITEGIC>MOL_PROPERTY
U+W
SciTegic.value.DoubleValue
-2.101

@<SCITEGIC>MOL_PROPERTY
Grad RMS
SciTegic.value.DoubleValue
0.000000

@<SCITEGIC>MOL_PROPERTY
U
SciTegic.value.DoubleValue
0.841

@<SCITEGIC>MOL_PROPERTY
W
SciTegic.value.DoubleValue
-2.942

@<SCITEGIC>MOL_PROPERTY
W(PB)
SciTegic.value.DoubleValue
-4.530

@<SCITEGIC>MOL_PROPERTY
W(SA)
SciTegic.value.DoubleValue
1.587

@<SCITEGIC>MOL_PROPERTY
Valence
SciTegic.value.DoubleValue
6.736

@<SCITEGIC>MOL_PROPERTY
Coulomb
SciTegic.value.DoubleValue
-7.246

@<SCITEGIC>MOL_PROPERTY
VdW
SciTegic.value.DoubleValue
1.352

@<SCITEGIC>MOL_PROPERTY
VdW6
SciTegic.value.DoubleValue
-2.500

@<SCITEGIC>MOL_PROPERTY
VdW12
SciTegic.value.DoubleValue
3.851

@<SCITEGIC>MOL_PROPERTY
Bond
SciTegic.value.DoubleValue
0.063

@<SCITEGIC>MOL_PROPERTY
Angle
SciTegic.value.DoubleValue
0.687

@<SCITEGIC>MOL_PROPERTY
Pdih
SciTegic.value.DoubleValue
5.986

@<SCITEGIC>MOL_PROPERTY
Idih
SciTegic.value.DoubleValue
0.000

@<SCITEGIC>MOL_PROPERTY
Tether
SciTegic.value.DoubleValue
0.000

@<TRIPOS>MOLECULE
guest-s16_confgen4.mol2 : confsearch ligand conformer 539
          13          13           1
SMALL
USER_CHARGES
 
@<TRIPOS>ATOM
       1    C1      18.822774   19.594087   22.827239 C.3        1 MOL1        -0.1693
       2    H1      17.876254   19.072786   23.022210 H          1 MOL1         0.0829
       3    H2      18.752111   20.610829   23.231793 H          1 MOL1         0.0829
       4    C2      19.344784   19.474060   21.357390 C.3        1 MOL1        -0.1768
       5    H3      18.578270   19.409620   20.577264 H          1 MOL1         0.0829
       6    H4      20.077730   20.237398   21.068437 H          1 MOL1         0.0829
       7    C3      19.958967   18.117129   21.816380 C.3        1 MOL1         0.1211
       8    H5      19.248826   17.279251   21.797613 H          1 MOL1         0.0786
       9    C4      20.105697   18.787528   23.215734 C.3        1 MOL1        -0.1768
      10    H6      21.008716   19.397417   23.342144 H          1 MOL1         0.0829
      11    H7      20.011188   18.116773   24.076808 H          1 MOL1         0.0829
      12    O1      21.166708   17.757292   21.188928 O.3        1 MOL1        -0.5515
      13    H8      21.756577   18.538669   21.236095 H          1 MOL1         0.3773
@<TRIPOS>BOND
    1     1     2    1
    2     1     3    1
    3     1     4    1
    4     4     5    1
    5     4     6    1
    6     4     7    1
    7     7     8    1
    8     1     9    1
    9     7     9    1
   10     9    10    1
   11     9    11    1
   12     7    12    1
   13    12    13    1
@<TRIPOS>SUBSTRUCTURE
       1 MOL1            1 RESIDUE      1      MOL     
@<SCITEGIC>MOL_PROPERTY
VConf Rank
SciTegic.value.IntegerValue
539

@<SCITEGIC>MOL_PROPERTY
Conf_Id
SciTegic.value.IntegerValue
24

@<SCITEGIC>MOL_PROPERTY
Delta U+W
SciTegic.value.DoubleValue
0.356

@<SCITEGIC>MOL_PROPERTY
U+W
SciTegic.value.DoubleValue
-2.775

@<SCITEGIC>MOL_PROPERTY
Grad RMS
SciTegic.value.DoubleValue
0.000000

@<SCITEGIC>MOL_PROPERTY
U
SciTegic.value.DoubleValue
-0.184

@<SCITEGIC>MOL_PROPERTY
W
SciTegic.value.DoubleValue
-2.591

@<SCITEGIC>MOL_PROPERTY
W(PB)
SciTegic.value.DoubleValue
-4.184

@<SCITEGIC>MOL_PROPERTY
W(SA)
SciTegic.value.DoubleValue
1.593

@<SCITEGIC>MOL_PROPERTY
Valence
SciTegic.value.DoubleValue
6.840

@<SCITEGIC>MOL_PROPERTY
Coulomb
SciTegic.value.DoubleValue
-7.916

@<SCITEGIC>MOL_PROPERTY
VdW
SciTegic.value.DoubleValue
0.893

@<SCITEGIC>MOL_PROPERTY
VdW6
SciTegic.value.DoubleValue
-2.167

@<SCITEGIC>MOL_PROPERTY
VdW12
SciTegic.value.DoubleValue
3.060

@<SCITEGIC>MOL_PROPERTY
Bond
SciTegic.value.DoubleValue
0.059

@<SCITEGIC>MOL_PROPERTY
Angle
SciTegic.value.DoubleValue
0.918

@<SCITEGIC>MOL_PROPERTY
Pdih
SciTegic.value.DoubleValue
5.862

@<SCITEGIC>MOL_PROPERTY
Idih
SciTegic.value.DoubleValue
0.000

@<SCITEGIC>MOL_PROPERTY
Tether
SciTegic.value.DoubleValue
0.000

@<TRIPOS>MOLECULE
guest-s16_confgen4.mol2 : confsearch ligand conformer 540
          13          13           1
SMALL
USER_CHARGES
 
@<TRIPOS>ATOM
       1    C1      19.746475   17.847556   22.253075 C.3        1 MOL1        -0.1693
       2    H1      20.058383   16.932657   21.735343 H          1 MOL1         0.0829
       3    H2      19.298641   17.566108   23.214598 H          1 MOL1         0.0829
       4    C2      18.905226   18.860030   21.406119 C.3        1 MOL1        -0.1768
       5    H3      19.135329   18.855001   20.333719 H          1 MOL1         0.0829
       6    H4      17.817701   18.806347   21.529070 H          1 MOL1         0.0829
       7    C3      19.627008   19.988008   22.206548 C.3        1 MOL1         0.1211
       8    H5      19.847359   20.894478   21.628410 H          1 MOL1         0.0786
       9    C4      20.816799   18.986881   22.333584 C.3        1 MOL1        -0.1768
      10    H6      21.515592   19.012953   21.488584 H          1 MOL1         0.0829
      11    H7      21.393137   19.043611   23.263812 H          1 MOL1         0.0829
      12    O1      19.011187   20.333124   23.428591 O.3        1 MOL1        -0.5515
      13    H8      18.839020   19.491218   23.898555 H          1 MOL1         0.3773
@<TRIPOS>BOND
    1     1     2    1
    2     1     3    1
    3     1     4    1
    4     4     5    1
    5     4     6    1
    6     4     7    1
    7     7     8    1
    8     1     9    1
    9     7     9    1
   10     9    10    1
   11     9    11    1
   12     7    12    1
   13    12    13    1
@<TRIPOS>SUBSTRUCTURE
       1 MOL1            1 RESIDUE      1      MOL     
@<SCITEGIC>MOL_PROPERTY
VConf Rank
SciTegic.value.IntegerValue
540

@<SCITEGIC>MOL_PROPERTY
Conf_Id
SciTegic.value.IntegerValue
44

@<SCITEGIC>MOL_PROPERTY
Delta U+W
SciTegic.value.DoubleValue
0.823

@<SCITEGIC>MOL_PROPERTY
U+W
SciTegic.value.DoubleValue
-2.308

@<SCITEGIC>MOL_PROPERTY
Grad RMS
SciTegic.value.DoubleValue
0.000000

@<SCITEGIC>MOL_PROPERTY
U
SciTegic.value.DoubleValue
0.039

@<SCITEGIC>MOL_PROPERTY
W
SciTegic.value.DoubleValue
-2.348

@<SCITEGIC>MOL_PROPERTY
W(PB)
SciTegic.value.DoubleValue
-3.918

@<SCITEGIC>MOL_PROPERTY
W(SA)
SciTegic.value.DoubleValue
1.571

@<SCITEGIC>MOL_PROPERTY
Valence
SciTegic.value.DoubleValue
7.320

@<SCITEGIC>MOL_PROPERTY
Coulomb
SciTegic.value.DoubleValue
-8.530

@<SCITEGIC>MOL_PROPERTY
VdW
SciTegic.value.DoubleValue
1.249

@<SCITEGIC>MOL_PROPERTY
VdW6
SciTegic.value.DoubleValue
-2.615

@<SCITEGIC>MOL_PROPERTY
VdW12
SciTegic.value.DoubleValue
3.864

@<SCITEGIC>MOL_PROPERTY
Bond
SciTegic.value.DoubleValue
0.056

@<SCITEGIC>MOL_PROPERTY
Angle
SciTegic.value.DoubleValue
0.694

@<SCITEGIC>MOL_PROPERTY
Pdih
SciTegic.value.DoubleValue
6.570

@<SCITEGIC>MOL_PROPERTY
Idih
SciTegic.value.DoubleValue
0.000

@<SCITEGIC>MOL_PROPERTY
Tether
SciTegic.value.DoubleValue
0.000

@<TRIPOS>MOLECULE
guest-s16_confgen4.mol2 : confsearch ligand conformer 541
          13          13           1
SMALL
USER_CHARGES
 
@<TRIPOS>ATOM
       1    C1      20.425689   18.855095   23.311629 C.3        1 MOL1        -0.1693
       2    H1      21.407930   19.340341   23.238661 H          1 MOL1         0.0829
       3    H2      20.340016   18.383966   24.298054 H          1 MOL1         0.0829
       4    C2      20.045952   17.958842   22.086950 C.3        1 MOL1        -0.1768
       5    H3      20.875477   17.449087   21.584956 H          1 MOL1         0.0829
       6    H4      19.248942   17.230098   22.280065 H          1 MOL1         0.0829
       7    C3      19.562692   19.283069   21.422323 C.3        1 MOL1         0.1211
       8    H5      20.368244   19.859937   20.947590 H          1 MOL1         0.0786
       9    C4      19.219806   19.748369   22.869775 C.3        1 MOL1        -0.1768
      10    H6      19.318980   20.822205   23.062685 H          1 MOL1         0.0829
      11    H7      18.242036   19.412338   23.236985 H          1 MOL1         0.0829
      12    O1      18.461059   19.153948   20.553831 O.3        1 MOL1        -0.5515
      13    H8      18.155906   20.060613   20.334639 H          1 MOL1         0.3773
@<TRIPOS>BOND
    1     1     2    1
    2     1     3    1
    3     1     4    1
    4     4     5    1
    5     4     6    1
    6     4     7    1
    7     7     8    1
    8     1     9    1
    9     7     9    1
   10     9    10    1
   11     9    11    1
   12     7    12    1
   13    12    13    1
@<TRIPOS>SUBSTRUCTURE
       1 MOL1            1 RESIDUE      1      MOL     
@<SCITEGIC>MOL_PROPERTY
VConf Rank
SciTegic.value.IntegerValue
541

@<SCITEGIC>MOL_PROPERTY
Conf_Id
SciTegic.value.IntegerValue
22

@<SCITEGIC>MOL_PROPERTY
Delta U+W
SciTegic.value.DoubleValue
0.000

@<SCITEGIC>MOL_PROPERTY
U+W
SciTegic.value.DoubleValue
-3.131

@<SCITEGIC>MOL_PROPERTY
Grad RMS
SciTegic.value.DoubleValue
0.000000

@<SCITEGIC>MOL_PROPERTY
U
SciTegic.value.DoubleValue
-0.154

@<SCITEGIC>MOL_PROPERTY
W
SciTegic.value.DoubleValue
-2.978

@<SCITEGIC>MOL_PROPERTY
W(PB)
SciTegic.value.DoubleValue
-4.579

@<SCITEGIC>MOL_PROPERTY
W(SA)
SciTegic.value.DoubleValue
1.601

@<SCITEGIC>MOL_PROPERTY
Valence
SciTegic.value.DoubleValue
6.333

@<SCITEGIC>MOL_PROPERTY
Coulomb
SciTegic.value.DoubleValue
-7.439

@<SCITEGIC>MOL_PROPERTY
VdW
SciTegic.value.DoubleValue
0.952

@<SCITEGIC>MOL_PROPERTY
VdW6
SciTegic.value.DoubleValue
-2.120

@<SCITEGIC>MOL_PROPERTY
VdW12
SciTegic.value.DoubleValue
3.072

@<SCITEGIC>MOL_PROPERTY
Bond
SciTegic.value.DoubleValue
0.065

@<SCITEGIC>MOL_PROPERTY
Angle
SciTegic.value.DoubleValue
0.931

@<SCITEGIC>MOL_PROPERTY
Pdih
SciTegic.value.DoubleValue
5.338

@<SCITEGIC>MOL_PROPERTY
Idih
SciTegic.value.DoubleValue
0.000

@<SCITEGIC>MOL_PROPERTY
Tether
SciTegic.value.DoubleValue
0.000

@<TRIPOS>MOLECULE
guest-s16_confgen4.mol2 : confsearch ligand conformer 542
          13          13           1
SMALL
USER_CHARGES
 
@<TRIPOS>ATOM
       1    C1      18.901272   18.679545   21.173285 C.3        1 MOL1        -0.1693
       2    H1      19.383571   17.991541   20.466445 H          1 MOL1         0.0829
       3    H2      17.947971   19.010895   20.744610 H          1 MOL1         0.0829
       4    C2      19.833208   19.806352   21.729279 C.3        1 MOL1        -0.1768
       5    H3      19.305361   20.667049   22.158665 H          1 MOL1         0.0829
       6    H4      20.607593   20.172402   21.046264 H          1 MOL1         0.0829
       7    C3      20.293436   18.743092   22.771806 C.3        1 MOL1         0.1211
       8    H5      21.072609   18.063097   22.400920 H          1 MOL1         0.0786
       9    C4      18.849485   18.169244   22.651195 C.3        1 MOL1        -0.1768
      10    H6      18.107040   18.670123   23.284819 H          1 MOL1         0.0829
      11    H7      18.754567   17.086284   22.785910 H          1 MOL1         0.0829
      12    O1      20.635483   19.251392   24.040343 O.3        1 MOL1        -0.5515
      13    H8      21.490503   19.723366   23.943469 H          1 MOL1         0.3773
@<TRIPOS>BOND
    1     1     2    1
    2     1     3    1
    3     1     4    1
    4     4     5    1
    5     4     6    1
    6     4     7    1
    7     7     8    1
    8     1     9    1
    9     7     9    1
   10     9    10    1
   11     9    11    1
   12     7    12    1
   13    12    13    1
@<TRIPOS>SUBSTRUCTURE
       1 MOL1            1 RESIDUE      1      MOL     
@<SCITEGIC>MOL_PROPERTY
VConf Rank
SciTegic.value.IntegerValue
542

@<SCITEGIC>MOL_PROPERTY
Conf_Id
SciTegic.value.IntegerValue
19

@<SCITEGIC>MOL_PROPERTY
Delta U+W
SciTegic.value.DoubleValue
-0.011

@<SCITEGIC>MOL_PROPERTY
U+W
SciTegic.value.DoubleValue
-3.142

@<SCITEGIC>MOL_PROPERTY
Grad RMS
SciTegic.value.DoubleValue
0.000000

@<SCITEGIC>MOL_PROPERTY
U
SciTegic.value.DoubleValue
-0.154

@<SCITEGIC>MOL_PROPERTY
W
SciTegic.value.DoubleValue
-2.989

@<SCITEGIC>MOL_PROPERTY
W(PB)
SciTegic.value.DoubleValue
-4.588

@<SCITEGIC>MOL_PROPERTY
W(SA)
SciTegic.value.DoubleValue
1.599

@<SCITEGIC>MOL_PROPERTY
Valence
SciTegic.value.DoubleValue
6.334

@<SCITEGIC>MOL_PROPERTY
Coulomb
SciTegic.value.DoubleValue
-7.439

@<SCITEGIC>MOL_PROPERTY
VdW
SciTegic.value.DoubleValue
0.951

@<SCITEGIC>MOL_PROPERTY
VdW6
SciTegic.value.DoubleValue
-2.120

@<SCITEGIC>MOL_PROPERTY
VdW12
SciTegic.value.DoubleValue
3.072

@<SCITEGIC>MOL_PROPERTY
Bond
SciTegic.value.DoubleValue
0.065

@<SCITEGIC>MOL_PROPERTY
Angle
SciTegic.value.DoubleValue
0.930

@<SCITEGIC>MOL_PROPERTY
Pdih
SciTegic.value.DoubleValue
5.339

@<SCITEGIC>MOL_PROPERTY
Idih
SciTegic.value.DoubleValue
0.000

@<SCITEGIC>MOL_PROPERTY
Tether
SciTegic.value.DoubleValue
0.000

@<TRIPOS>MOLECULE
guest-s16_confgen4.mol2 : confsearch ligand conformer 543
          13          13           1
SMALL
USER_CHARGES
 
@<TRIPOS>ATOM
       1    C1      18.585759   18.413595   22.170090 C.3        1 MOL1        -0.1693
       2    H1      18.142829   17.411013   22.145218 H          1 MOL1         0.0829
       3    H2      17.777167   19.155507   22.139228 H          1 MOL1         0.0829
       4    C2      19.748715   18.677844   21.156839 C.3        1 MOL1        -0.1768
       5    H3      20.354128   17.794932   20.918707 H          1 MOL1         0.0829
       6    H4      19.468072   19.173211   20.220760 H          1 MOL1         0.0829
       7    C3      20.367089   19.600388   22.253176 C.3        1 MOL1         0.1211
       8    H5      21.463706   19.585256   22.298056 H          1 MOL1         0.0786
       9    C4      19.657544   18.665508   23.282078 C.3        1 MOL1        -0.1768
      10    H6      19.295900   19.146413   24.197663 H          1 MOL1         0.0829
      11    H7      20.240682   17.778980   23.559556 H          1 MOL1         0.0829
      12    O1      19.901852   20.935117   22.239090 O.3        1 MOL1        -0.5515
      13    H8      20.218242   21.361933   23.063639 H          1 MOL1         0.3773
@<TRIPOS>BOND
    1     1     2    1
    2     1     3    1
    3     1     4    1
    4     4     5    1
    5     4     6    1
    6     4     7    1
    7     7     8    1
    8     1     9    1
    9     7     9    1
   10     9    10    1
   11     9    11    1
   12     7    12    1
   13    12    13    1
@<TRIPOS>SUBSTRUCTURE
       1 MOL1            1 RESIDUE      1      MOL     
@<SCITEGIC>MOL_PROPERTY
VConf Rank
SciTegic.value.IntegerValue
543

@<SCITEGIC>MOL_PROPERTY
Conf_Id
SciTegic.value.IntegerValue
20

@<SCITEGIC>MOL_PROPERTY
Delta U+W
SciTegic.value.DoubleValue
1.030

@<SCITEGIC>MOL_PROPERTY
U+W
SciTegic.value.DoubleValue
-2.101

@<SCITEGIC>MOL_PROPERTY
Grad RMS
SciTegic.value.DoubleValue
0.000000

@<SCITEGIC>MOL_PROPERTY
U
SciTegic.value.DoubleValue
0.841

@<SCITEGIC>MOL_PROPERTY
W
SciTegic.value.DoubleValue
-2.942

@<SCITEGIC>MOL_PROPERTY
W(PB)
SciTegic.value.DoubleValue
-4.530

@<SCITEGIC>MOL_PROPERTY
W(SA)
SciTegic.value.DoubleValue
1.587

@<SCITEGIC>MOL_PROPERTY
Valence
SciTegic.value.DoubleValue
6.736

@<SCITEGIC>MOL_PROPERTY
Coulomb
SciTegic.value.DoubleValue
-7.246

@<SCITEGIC>MOL_PROPERTY
VdW
SciTegic.value.DoubleValue
1.352

@<SCITEGIC>MOL_PROPERTY
VdW6
SciTegic.value.DoubleValue
-2.500

@<SCITEGIC>MOL_PROPERTY
VdW12
SciTegic.value.DoubleValue
3.851

@<SCITEGIC>MOL_PROPERTY
Bond
SciTegic.value.DoubleValue
0.063

@<SCITEGIC>MOL_PROPERTY
Angle
SciTegic.value.DoubleValue
0.687

@<SCITEGIC>MOL_PROPERTY
Pdih
SciTegic.value.DoubleValue
5.986

@<SCITEGIC>MOL_PROPERTY
Idih
SciTegic.value.DoubleValue
0.000

@<SCITEGIC>MOL_PROPERTY
Tether
SciTegic.value.DoubleValue
0.000

@<TRIPOS>MOLECULE
guest-s16_confgen4.mol2 : confsearch ligand conformer 544
          13          13           1
SMALL
USER_CHARGES
 
@<TRIPOS>ATOM
       1    C1      19.920694   19.053464   23.478065 C.3        1 MOL1        -0.1693
       2    H1      20.833087   18.620234   23.908786 H          1 MOL1         0.0829
       3    H2      19.330606   19.501439   24.286481 H          1 MOL1         0.0829
       4    C2      19.144425   18.107337   22.503587 C.3        1 MOL1        -0.1768
       5    H3      19.194690   17.036433   22.729264 H          1 MOL1         0.0829
       6    H4      18.095824   18.383023   22.336792 H          1 MOL1         0.0829
       7    C3      20.136514   18.616786   21.414838 C.3        1 MOL1         0.1211
       8    H5      21.099611   18.088478   21.409474 H          1 MOL1         0.0786
       9    C4      20.154640   19.951833   22.218875 C.3        1 MOL1        -0.1768
      10    H6      19.331834   20.639787   21.988444 H          1 MOL1         0.0829
      11    H7      21.097077   20.509899   22.193105 H          1 MOL1         0.0829
      12    O1      19.611411   18.703207   20.111529 O.3        1 MOL1        -0.5515
      13    H8      18.758190   19.180920   20.178795 H          1 MOL1         0.3773
@<TRIPOS>BOND
    1     1     2    1
    2     1     3    1
    3     1     4    1
    4     4     5    1
    5     4     6    1
    6     4     7    1
    7     7     8    1
    8     1     9    1
    9     7     9    1
   10     9    10    1
   11     9    11    1
   12     7    12    1
   13    12    13    1
@<TRIPOS>SUBSTRUCTURE
       1 MOL1            1 RESIDUE      1      MOL     
@<SCITEGIC>MOL_PROPERTY
VConf Rank
SciTegic.value.IntegerValue
544

@<SCITEGIC>MOL_PROPERTY
Conf_Id
SciTegic.value.IntegerValue
24

@<SCITEGIC>MOL_PROPERTY
Delta U+W
SciTegic.value.DoubleValue
0.356

@<SCITEGIC>MOL_PROPERTY
U+W
SciTegic.value.DoubleValue
-2.775

@<SCITEGIC>MOL_PROPERTY
Grad RMS
SciTegic.value.DoubleValue
0.000000

@<SCITEGIC>MOL_PROPERTY
U
SciTegic.value.DoubleValue
-0.184

@<SCITEGIC>MOL_PROPERTY
W
SciTegic.value.DoubleValue
-2.591

@<SCITEGIC>MOL_PROPERTY
W(PB)
SciTegic.value.DoubleValue
-4.184

@<SCITEGIC>MOL_PROPERTY
W(SA)
SciTegic.value.DoubleValue
1.593

@<SCITEGIC>MOL_PROPERTY
Valence
SciTegic.value.DoubleValue
6.840

@<SCITEGIC>MOL_PROPERTY
Coulomb
SciTegic.value.DoubleValue
-7.916

@<SCITEGIC>MOL_PROPERTY
VdW
SciTegic.value.DoubleValue
0.893

@<SCITEGIC>MOL_PROPERTY
VdW6
SciTegic.value.DoubleValue
-2.167

@<SCITEGIC>MOL_PROPERTY
VdW12
SciTegic.value.DoubleValue
3.060

@<SCITEGIC>MOL_PROPERTY
Bond
SciTegic.value.DoubleValue
0.059

@<SCITEGIC>MOL_PROPERTY
Angle
SciTegic.value.DoubleValue
0.918

@<SCITEGIC>MOL_PROPERTY
Pdih
SciTegic.value.DoubleValue
5.862

@<SCITEGIC>MOL_PROPERTY
Idih
SciTegic.value.DoubleValue
0.000

@<SCITEGIC>MOL_PROPERTY
Tether
SciTegic.value.DoubleValue
0.000

@<TRIPOS>MOLECULE
guest-s16_confgen4.mol2 : confsearch ligand conformer 545
          13          13           1
SMALL
USER_CHARGES
 
@<TRIPOS>ATOM
       1    C1      18.860564   19.285155   22.897535 C.3        1 MOL1        -0.1693
       2    H1      17.968897   18.964494   23.449334 H          1 MOL1         0.0829
       3    H2      19.018301   20.354797   23.085365 H          1 MOL1         0.0829
       4    C2      18.920433   18.865376   21.390771 C.3        1 MOL1        -0.1768
       5    H3      18.410183   17.921696   21.162454 H          1 MOL1         0.0829
       6    H4      18.596848   19.620411   20.665565 H          1 MOL1         0.0829
       7    C3      20.461814   18.724268   21.586286 C.3        1 MOL1         0.1211
       8    H5      20.924672   17.904635   21.021971 H          1 MOL1         0.0786
       9    C4      20.133016   18.390902   23.074490 C.3        1 MOL1        -0.1768
      10    H6      19.920073   17.330889   23.258997 H          1 MOL1         0.0829
      11    H7      20.864880   18.732948   23.814820 H          1 MOL1         0.0829
      12    O1      21.193949   19.915486   21.394696 O.3        1 MOL1        -0.5515
      13    H8      20.738228   20.606914   21.917724 H          1 MOL1         0.3773
@<TRIPOS>BOND
    1     1     2    1
    2     1     3    1
    3     1     4    1
    4     4     5    1
    5     4     6    1
    6     4     7    1
    7     7     8    1
    8     1     9    1
    9     7     9    1
   10     9    10    1
   11     9    11    1
   12     7    12    1
   13    12    13    1
@<TRIPOS>SUBSTRUCTURE
       1 MOL1            1 RESIDUE      1      MOL     
@<SCITEGIC>MOL_PROPERTY
VConf Rank
SciTegic.value.IntegerValue
545

@<SCITEGIC>MOL_PROPERTY
Conf_Id
SciTegic.value.IntegerValue
44

@<SCITEGIC>MOL_PROPERTY
Delta U+W
SciTegic.value.DoubleValue
0.823

@<SCITEGIC>MOL_PROPERTY
U+W
SciTegic.value.DoubleValue
-2.308

@<SCITEGIC>MOL_PROPERTY
Grad RMS
SciTegic.value.DoubleValue
0.000000

@<SCITEGIC>MOL_PROPERTY
U
SciTegic.value.DoubleValue
0.039

@<SCITEGIC>MOL_PROPERTY
W
SciTegic.value.DoubleValue
-2.348

@<SCITEGIC>MOL_PROPERTY
W(PB)
SciTegic.value.DoubleValue
-3.918

@<SCITEGIC>MOL_PROPERTY
W(SA)
SciTegic.value.DoubleValue
1.571

@<SCITEGIC>MOL_PROPERTY
Valence
SciTegic.value.DoubleValue
7.320

@<SCITEGIC>MOL_PROPERTY
Coulomb
SciTegic.value.DoubleValue
-8.530

@<SCITEGIC>MOL_PROPERTY
VdW
SciTegic.value.DoubleValue
1.249

@<SCITEGIC>MOL_PROPERTY
VdW6
SciTegic.value.DoubleValue
-2.615

@<SCITEGIC>MOL_PROPERTY
VdW12
SciTegic.value.DoubleValue
3.864

@<SCITEGIC>MOL_PROPERTY
Bond
SciTegic.value.DoubleValue
0.056

@<SCITEGIC>MOL_PROPERTY
Angle
SciTegic.value.DoubleValue
0.694

@<SCITEGIC>MOL_PROPERTY
Pdih
SciTegic.value.DoubleValue
6.570

@<SCITEGIC>MOL_PROPERTY
Idih
SciTegic.value.DoubleValue
0.000

@<SCITEGIC>MOL_PROPERTY
Tether
SciTegic.value.DoubleValue
0.000

@<TRIPOS>MOLECULE
guest-s16_confgen4.mol2 : confsearch ligand conformer 546
          13          13           1
SMALL
USER_CHARGES
 
@<TRIPOS>ATOM
       1    C1      19.005137   19.611664   21.258572 C.3        1 MOL1        -0.1693
       2    H1      18.531023   20.561445   21.539139 H          1 MOL1         0.0829
       3    H2      18.826855   19.432787   20.191541 H          1 MOL1         0.0829
       4    C2      18.692229   18.415732   22.217290 C.3        1 MOL1        -0.1768
       5    H3      17.702929   18.418952   22.687648 H          1 MOL1         0.0829
       6    H4      18.876043   17.422670   21.788773 H          1 MOL1         0.0829
       7    C3      19.859238   18.968328   23.089973 C.3        1 MOL1         0.1211
       8    H5      19.561770   19.785932   23.760867 H          1 MOL1         0.0786
       9    C4      20.483064   19.448963   21.744974 C.3        1 MOL1        -0.1768
      10    H6      21.078046   20.367458   21.795345 H          1 MOL1         0.0829
      11    H7      21.059562   18.683511   21.210627 H          1 MOL1         0.0829
      12    O1      20.603528   17.995702   23.786089 O.3        1 MOL1        -0.5515
      13    H8      21.393304   18.444763   24.157304 H          1 MOL1         0.3773
@<TRIPOS>BOND
    1     1     2    1
    2     1     3    1
    3     1     4    1
    4     4     5    1
    5     4     6    1
    6     4     7    1
    7     7     8    1
    8     1     9    1
    9     7     9    1
   10     9    10    1
   11     9    11    1
   12     7    12    1
   13    12    13    1
@<TRIPOS>SUBSTRUCTURE
       1 MOL1            1 RESIDUE      1      MOL     
@<SCITEGIC>MOL_PROPERTY
VConf Rank
SciTegic.value.IntegerValue
546

@<SCITEGIC>MOL_PROPERTY
Conf_Id
SciTegic.value.IntegerValue
22

@<SCITEGIC>MOL_PROPERTY
Delta U+W
SciTegic.value.DoubleValue
0.000

@<SCITEGIC>MOL_PROPERTY
U+W
SciTegic.value.DoubleValue
-3.131

@<SCITEGIC>MOL_PROPERTY
Grad RMS
SciTegic.value.DoubleValue
0.000000

@<SCITEGIC>MOL_PROPERTY
U
SciTegic.value.DoubleValue
-0.154

@<SCITEGIC>MOL_PROPERTY
W
SciTegic.value.DoubleValue
-2.978

@<SCITEGIC>MOL_PROPERTY
W(PB)
SciTegic.value.DoubleValue
-4.579

@<SCITEGIC>MOL_PROPERTY
W(SA)
SciTegic.value.DoubleValue
1.601

@<SCITEGIC>MOL_PROPERTY
Valence
SciTegic.value.DoubleValue
6.333

@<SCITEGIC>MOL_PROPERTY
Coulomb
SciTegic.value.DoubleValue
-7.439

@<SCITEGIC>MOL_PROPERTY
VdW
SciTegic.value.DoubleValue
0.952

@<SCITEGIC>MOL_PROPERTY
VdW6
SciTegic.value.DoubleValue
-2.120

@<SCITEGIC>MOL_PROPERTY
VdW12
SciTegic.value.DoubleValue
3.072

@<SCITEGIC>MOL_PROPERTY
Bond
SciTegic.value.DoubleValue
0.065

@<SCITEGIC>MOL_PROPERTY
Angle
SciTegic.value.DoubleValue
0.931

@<SCITEGIC>MOL_PROPERTY
Pdih
SciTegic.value.DoubleValue
5.338

@<SCITEGIC>MOL_PROPERTY
Idih
SciTegic.value.DoubleValue
0.000

@<SCITEGIC>MOL_PROPERTY
Tether
SciTegic.value.DoubleValue
0.000

@<TRIPOS>MOLECULE
guest-s16_confgen4.mol2 : confsearch ligand conformer 547
          13          13           1
SMALL
USER_CHARGES
 
@<TRIPOS>ATOM
       1    C1      20.685299   18.493642   21.582836 C.3        1 MOL1        -0.1693
       2    H1      20.718057   18.838625   20.540963 H          1 MOL1         0.0829
       3    H2      21.539565   17.829149   21.758949 H          1 MOL1         0.0829
       4    C2      19.291618   17.960128   22.052247 C.3        1 MOL1        -0.1768
       5    H3      19.321505   17.326334   22.947348 H          1 MOL1         0.0829
       6    H4      18.683242   17.463387   21.288507 H          1 MOL1         0.0829
       7    C3      18.948397   19.455130   22.328588 C.3        1 MOL1         0.1211
       8    H5      18.614234   20.007575   21.439656 H          1 MOL1         0.0786
       9    C4      20.465853   19.625388   22.640333 C.3        1 MOL1        -0.1768
      10    H6      20.751910   19.358662   23.665328 H          1 MOL1         0.0829
      11    H7      20.895037   20.603657   22.397949 H          1 MOL1         0.0829
      12    O1      18.081064   19.683604   23.414904 O.3        1 MOL1        -0.5515
      13    H8      17.186319   19.389100   23.139401 H          1 MOL1         0.3773
@<TRIPOS>BOND
    1     1     2    1
    2     1     3    1
    3     1     4    1
    4     4     5    1
    5     4     6    1
    6     4     7    1
    7     7     8    1
    8     1     9    1
    9     7     9    1
   10     9    10    1
   11     9    11    1
   12     7    12    1
   13    12    13    1
@<TRIPOS>SUBSTRUCTURE
       1 MOL1            1 RESIDUE      1      MOL     
@<SCITEGIC>MOL_PROPERTY
VConf Rank
SciTegic.value.IntegerValue
547

@<SCITEGIC>MOL_PROPERTY
Conf_Id
SciTegic.value.IntegerValue
19

@<SCITEGIC>MOL_PROPERTY
Delta U+W
SciTegic.value.DoubleValue
-0.011

@<SCITEGIC>MOL_PROPERTY
U+W
SciTegic.value.DoubleValue
-3.142

@<SCITEGIC>MOL_PROPERTY
Grad RMS
SciTegic.value.DoubleValue
0.000000

@<SCITEGIC>MOL_PROPERTY
U
SciTegic.value.DoubleValue
-0.154

@<SCITEGIC>MOL_PROPERTY
W
SciTegic.value.DoubleValue
-2.989

@<SCITEGIC>MOL_PROPERTY
W(PB)
SciTegic.value.DoubleValue
-4.588

@<SCITEGIC>MOL_PROPERTY
W(SA)
SciTegic.value.DoubleValue
1.599

@<SCITEGIC>MOL_PROPERTY
Valence
SciTegic.value.DoubleValue
6.334

@<SCITEGIC>MOL_PROPERTY
Coulomb
SciTegic.value.DoubleValue
-7.439

@<SCITEGIC>MOL_PROPERTY
VdW
SciTegic.value.DoubleValue
0.951

@<SCITEGIC>MOL_PROPERTY
VdW6
SciTegic.value.DoubleValue
-2.120

@<SCITEGIC>MOL_PROPERTY
VdW12
SciTegic.value.DoubleValue
3.072

@<SCITEGIC>MOL_PROPERTY
Bond
SciTegic.value.DoubleValue
0.065

@<SCITEGIC>MOL_PROPERTY
Angle
SciTegic.value.DoubleValue
0.930

@<SCITEGIC>MOL_PROPERTY
Pdih
SciTegic.value.DoubleValue
5.339

@<SCITEGIC>MOL_PROPERTY
Idih
SciTegic.value.DoubleValue
0.000

@<SCITEGIC>MOL_PROPERTY
Tether
SciTegic.value.DoubleValue
0.000

@<TRIPOS>MOLECULE
guest-s16_confgen4.mol2 : confsearch ligand conformer 548
          13          13           1
SMALL
USER_CHARGES
 
@<TRIPOS>ATOM
       1    C1      20.634444   19.486815   22.851346 C.3        1 MOL1        -0.1693
       2    H1      21.694263   19.308215   23.067824 H          1 MOL1         0.0829
       3    H2      20.354537   20.469024   23.253995 H          1 MOL1         0.0829
       4    C2      19.650875   18.327951   23.223634 C.3        1 MOL1        -0.1768
       5    H3      20.083947   17.322926   23.151955 H          1 MOL1         0.0829
       6    H4      19.140217   18.421532   24.188447 H          1 MOL1         0.0829
       7    C3      18.821794   18.757594   21.973250 C.3        1 MOL1         0.1211
       8    H5      18.347522   17.928559   21.432343 H          1 MOL1         0.0786
       9    C4      20.181491   19.236109   21.374634 C.3        1 MOL1        -0.1768
      10    H6      20.137056   20.120261   20.729148 H          1 MOL1         0.0829
      11    H7      20.743905   18.451218   20.854430 H          1 MOL1         0.0829
      12    O1      17.878744   19.783894   22.208854 O.3        1 MOL1        -0.5515
      13    H8      17.552891   20.085598   21.334240 H          1 MOL1         0.3773
@<TRIPOS>BOND
    1     1     2    1
    2     1     3    1
    3     1     4    1
    4     4     5    1
    5     4     6    1
    6     4     7    1
    7     7     8    1
    8     1     9    1
    9     7     9    1
   10     9    10    1
   11     9    11    1
   12     7    12    1
   13    12    13    1
@<TRIPOS>SUBSTRUCTURE
       1 MOL1            1 RESIDUE      1      MOL     
@<SCITEGIC>MOL_PROPERTY
VConf Rank
SciTegic.value.IntegerValue
548

@<SCITEGIC>MOL_PROPERTY
Conf_Id
SciTegic.value.IntegerValue
20

@<SCITEGIC>MOL_PROPERTY
Delta U+W
SciTegic.value.DoubleValue
1.030

@<SCITEGIC>MOL_PROPERTY
U+W
SciTegic.value.DoubleValue
-2.101

@<SCITEGIC>MOL_PROPERTY
Grad RMS
SciTegic.value.DoubleValue
0.000000

@<SCITEGIC>MOL_PROPERTY
U
SciTegic.value.DoubleValue
0.841

@<SCITEGIC>MOL_PROPERTY
W
SciTegic.value.DoubleValue
-2.942

@<SCITEGIC>MOL_PROPERTY
W(PB)
SciTegic.value.DoubleValue
-4.530

@<SCITEGIC>MOL_PROPERTY
W(SA)
SciTegic.value.DoubleValue
1.587

@<SCITEGIC>MOL_PROPERTY
Valence
SciTegic.value.DoubleValue
6.736

@<SCITEGIC>MOL_PROPERTY
Coulomb
SciTegic.value.DoubleValue
-7.246

@<SCITEGIC>MOL_PROPERTY
VdW
SciTegic.value.DoubleValue
1.352

@<SCITEGIC>MOL_PROPERTY
VdW6
SciTegic.value.DoubleValue
-2.500

@<SCITEGIC>MOL_PROPERTY
VdW12
SciTegic.value.DoubleValue
3.851

@<SCITEGIC>MOL_PROPERTY
Bond
SciTegic.value.DoubleValue
0.063

@<SCITEGIC>MOL_PROPERTY
Angle
SciTegic.value.DoubleValue
0.687

@<SCITEGIC>MOL_PROPERTY
Pdih
SciTegic.value.DoubleValue
5.986

@<SCITEGIC>MOL_PROPERTY
Idih
SciTegic.value.DoubleValue
0.000

@<SCITEGIC>MOL_PROPERTY
Tether
SciTegic.value.DoubleValue
0.000

@<TRIPOS>MOLECULE
guest-s16_confgen4.mol2 : confsearch ligand conformer 549
          13          13           1
SMALL
USER_CHARGES
 
@<TRIPOS>ATOM
       1    C1      19.839080   17.814891   21.630508 C.3        1 MOL1        -0.1693
       2    H1      20.660739   17.149681   21.927227 H          1 MOL1         0.0829
       3    H2      19.248612   17.316237   20.852618 H          1 MOL1         0.0829
       4    C2      20.267400   19.289025   21.329134 C.3        1 MOL1        -0.1768
       5    H3      21.268172   19.422987   20.903925 H          1 MOL1         0.0829
       6    H4      19.549850   19.859914   20.726975 H          1 MOL1         0.0829
       7    C3      20.151079   19.507728   22.867898 C.3        1 MOL1         0.1211
       8    H5      21.043390   19.198658   23.429102 H          1 MOL1         0.0786
       9    C4      19.029828   18.426149   22.821655 C.3        1 MOL1        -0.1768
      10    H6      18.035665   18.804174   22.553093 H          1 MOL1         0.0829
      11    H7      18.937635   17.798062   23.714571 H          1 MOL1         0.0829
      12    O1      19.735543   20.792477   23.266101 O.3        1 MOL1        -0.5515
      13    H8      18.941610   21.012856   22.735230 H          1 MOL1         0.3773
@<TRIPOS>BOND
    1     1     2    1
    2     1     3    1
    3     1     4    1
    4     4     5    1
    5     4     6    1
    6     4     7    1
    7     7     8    1
    8     1     9    1
    9     7     9    1
   10     9    10    1
   11     9    11    1
   12     7    12    1
   13    12    13    1
@<TRIPOS>SUBSTRUCTURE
       1 MOL1            1 RESIDUE      1      MOL     
@<SCITEGIC>MOL_PROPERTY
VConf Rank
SciTegic.value.IntegerValue
549

@<SCITEGIC>MOL_PROPERTY
Conf_Id
SciTegic.value.IntegerValue
24

@<SCITEGIC>MOL_PROPERTY
Delta U+W
SciTegic.value.DoubleValue
0.356

@<SCITEGIC>MOL_PROPERTY
U+W
SciTegic.value.DoubleValue
-2.775

@<SCITEGIC>MOL_PROPERTY
Grad RMS
SciTegic.value.DoubleValue
0.000000

@<SCITEGIC>MOL_PROPERTY
U
SciTegic.value.DoubleValue
-0.184

@<SCITEGIC>MOL_PROPERTY
W
SciTegic.value.DoubleValue
-2.591

@<SCITEGIC>MOL_PROPERTY
W(PB)
SciTegic.value.DoubleValue
-4.184

@<SCITEGIC>MOL_PROPERTY
W(SA)
SciTegic.value.DoubleValue
1.593

@<SCITEGIC>MOL_PROPERTY
Valence
SciTegic.value.DoubleValue
6.840

@<SCITEGIC>MOL_PROPERTY
Coulomb
SciTegic.value.DoubleValue
-7.916

@<SCITEGIC>MOL_PROPERTY
VdW
SciTegic.value.DoubleValue
0.893

@<SCITEGIC>MOL_PROPERTY
VdW6
SciTegic.value.DoubleValue
-2.167

@<SCITEGIC>MOL_PROPERTY
VdW12
SciTegic.value.DoubleValue
3.060

@<SCITEGIC>MOL_PROPERTY
Bond
SciTegic.value.DoubleValue
0.059

@<SCITEGIC>MOL_PROPERTY
Angle
SciTegic.value.DoubleValue
0.918

@<SCITEGIC>MOL_PROPERTY
Pdih
SciTegic.value.DoubleValue
5.862

@<SCITEGIC>MOL_PROPERTY
Idih
SciTegic.value.DoubleValue
0.000

@<SCITEGIC>MOL_PROPERTY
Tether
SciTegic.value.DoubleValue
0.000

@<TRIPOS>MOLECULE
guest-s16_confgen4.mol2 : confsearch ligand conformer 550
          13          13           1
SMALL
USER_CHARGES
 
@<TRIPOS>ATOM
       1    C1      18.698350   19.460854   22.398742 C.3        1 MOL1        -0.1693
       2    H1      17.615742   19.411935   22.231592 H          1 MOL1         0.0829
       3    H2      18.916416   20.353646   22.998464 H          1 MOL1         0.0829
       4    C2      19.595414   19.286010   21.127977 C.3        1 MOL1        -0.1768
       5    H3      19.160932   18.645251   20.351016 H          1 MOL1         0.0829
       6    H4      19.952995   20.209115   20.658166 H          1 MOL1         0.0829
       7    C3      20.612698   18.556493   22.059069 C.3        1 MOL1         0.1211
       8    H5      21.148824   17.721167   21.590789 H          1 MOL1         0.0786
       9    C4      19.371909   18.143606   22.909928 C.3        1 MOL1        -0.1768
      10    H6      18.882626   17.222746   22.569876 H          1 MOL1         0.0829
      11    H7      19.534946   18.072344   23.991154 H          1 MOL1         0.0829
      12    O1      21.525941   19.406615   22.718620 O.3        1 MOL1        -0.5515
      13    H8      20.995063   20.128190   23.114615 H          1 MOL1         0.3773
@<TRIPOS>BOND
    1     1     2    1
    2     1     3    1
    3     1     4    1
    4     4     5    1
    5     4     6    1
    6     4     7    1
    7     7     8    1
    8     1     9    1
    9     7     9    1
   10     9    10    1
   11     9    11    1
   12     7    12    1
   13    12    13    1
@<TRIPOS>SUBSTRUCTURE
       1 MOL1            1 RESIDUE      1      MOL     
@<SCITEGIC>MOL_PROPERTY
VConf Rank
SciTegic.value.IntegerValue
550

@<SCITEGIC>MOL_PROPERTY
Conf_Id
SciTegic.value.IntegerValue
44

@<SCITEGIC>MOL_PROPERTY
Delta U+W
SciTegic.value.DoubleValue
0.823

@<SCITEGIC>MOL_PROPERTY
U+W
SciTegic.value.DoubleValue
-2.308

@<SCITEGIC>MOL_PROPERTY
Grad RMS
SciTegic.value.DoubleValue
0.000000

@<SCITEGIC>MOL_PROPERTY
U
SciTegic.value.DoubleValue
0.039

@<SCITEGIC>MOL_PROPERTY
W
SciTegic.value.DoubleValue
-2.348

@<SCITEGIC>MOL_PROPERTY
W(PB)
SciTegic.value.DoubleValue
-3.918

@<SCITEGIC>MOL_PROPERTY
W(SA)
SciTegic.value.DoubleValue
1.571

@<SCITEGIC>MOL_PROPERTY
Valence
SciTegic.value.DoubleValue
7.320

@<SCITEGIC>MOL_PROPERTY
Coulomb
SciTegic.value.DoubleValue
-8.530

@<SCITEGIC>MOL_PROPERTY
VdW
SciTegic.value.DoubleValue
1.249

@<SCITEGIC>MOL_PROPERTY
VdW6
SciTegic.value.DoubleValue
-2.615

@<SCITEGIC>MOL_PROPERTY
VdW12
SciTegic.value.DoubleValue
3.864

@<SCITEGIC>MOL_PROPERTY
Bond
SciTegic.value.DoubleValue
0.056

@<SCITEGIC>MOL_PROPERTY
Angle
SciTegic.value.DoubleValue
0.694

@<SCITEGIC>MOL_PROPERTY
Pdih
SciTegic.value.DoubleValue
6.570

@<SCITEGIC>MOL_PROPERTY
Idih
SciTegic.value.DoubleValue
0.000

@<SCITEGIC>MOL_PROPERTY
Tether
SciTegic.value.DoubleValue
0.000

@<TRIPOS>MOLECULE
guest-s16_confgen4.mol2 : confsearch ligand conformer 551
          13          13           1
SMALL
USER_CHARGES
 
@<TRIPOS>ATOM
       1    C1      18.496226   18.435574   22.286051 C.3        1 MOL1        -0.1693
       2    H1      17.645960   19.128729   22.332629 H          1 MOL1         0.0829
       3    H2      18.110236   17.410677   22.231860 H          1 MOL1         0.0829
       4    C2      19.610738   18.694397   23.352907 C.3        1 MOL1        -0.1768
       5    H3      19.274249   19.088255   24.318107 H          1 MOL1         0.0829
       6    H4      20.281237   17.844887   23.532766 H          1 MOL1         0.0829
       7    C3      20.160480   19.748640   22.345334 C.3        1 MOL1         0.1211
       8    H5      19.658372   20.723915   22.406880 H          1 MOL1         0.0786
       9    C4      19.592105   18.813485   21.235547 C.3        1 MOL1        -0.1768
      10    H6      19.237366   19.311398   20.326473 H          1 MOL1         0.0829
      11    H7      20.256830   17.988609   20.950039 H          1 MOL1         0.0829
      12    O1      21.560397   19.906025   22.342261 O.3        1 MOL1        -0.5515
      13    H8      21.788533   20.463316   21.567288 H          1 MOL1         0.3773
@<TRIPOS>BOND
    1     1     2    1
    2     1     3    1
    3     1     4    1
    4     4     5    1
    5     4     6    1
    6     4     7    1
    7     7     8    1
    8     1     9    1
    9     7     9    1
   10     9    10    1
   11     9    11    1
   12     7    12    1
   13    12    13    1
@<TRIPOS>SUBSTRUCTURE
       1 MOL1            1 RESIDUE      1      MOL     
@<SCITEGIC>MOL_PROPERTY
VConf Rank
SciTegic.value.IntegerValue
551

@<SCITEGIC>MOL_PROPERTY
Conf_Id
SciTegic.value.IntegerValue
22

@<SCITEGIC>MOL_PROPERTY
Delta U+W
SciTegic.value.DoubleValue
0.000

@<SCITEGIC>MOL_PROPERTY
U+W
SciTegic.value.DoubleValue
-3.131

@<SCITEGIC>MOL_PROPERTY
Grad RMS
SciTegic.value.DoubleValue
0.000000

@<SCITEGIC>MOL_PROPERTY
U
SciTegic.value.DoubleValue
-0.154

@<SCITEGIC>MOL_PROPERTY
W
SciTegic.value.DoubleValue
-2.978

@<SCITEGIC>MOL_PROPERTY
W(PB)
SciTegic.value.DoubleValue
-4.579

@<SCITEGIC>MOL_PROPERTY
W(SA)
SciTegic.value.DoubleValue
1.601

@<SCITEGIC>MOL_PROPERTY
Valence
SciTegic.value.DoubleValue
6.333

@<SCITEGIC>MOL_PROPERTY
Coulomb
SciTegic.value.DoubleValue
-7.439

@<SCITEGIC>MOL_PROPERTY
VdW
SciTegic.value.DoubleValue
0.952

@<SCITEGIC>MOL_PROPERTY
VdW6
SciTegic.value.DoubleValue
-2.120

@<SCITEGIC>MOL_PROPERTY
VdW12
SciTegic.value.DoubleValue
3.072

@<SCITEGIC>MOL_PROPERTY
Bond
SciTegic.value.DoubleValue
0.065

@<SCITEGIC>MOL_PROPERTY
Angle
SciTegic.value.DoubleValue
0.931

@<SCITEGIC>MOL_PROPERTY
Pdih
SciTegic.value.DoubleValue
5.338

@<SCITEGIC>MOL_PROPERTY
Idih
SciTegic.value.DoubleValue
0.000

@<SCITEGIC>MOL_PROPERTY
Tether
SciTegic.value.DoubleValue
0.000

@<TRIPOS>MOLECULE
guest-s16_confgen4.mol2 : confsearch ligand conformer 552
          13          13           1
SMALL
USER_CHARGES
 
@<TRIPOS>ATOM
       1    C1      19.408301   20.219187   22.385142 C.3        1 MOL1        -0.1693
       2    H1      20.113312   20.711844   23.067663 H          1 MOL1         0.0829
       3    H2      18.672679   20.958862   22.047386 H          1 MOL1         0.0829
       4    C2      18.828997   18.863661   22.908864 C.3        1 MOL1        -0.1768
       5    H3      17.907147   18.536848   22.411693 H          1 MOL1         0.0829
       6    H4      18.692217   18.784423   23.992923 H          1 MOL1         0.0829
       7    C3      20.132530   18.226487   22.339647 C.3        1 MOL1         0.1211
       8    H5      20.996272   18.299846   23.014651 H          1 MOL1         0.0786
       9    C4      20.076872   19.354619   21.265839 C.3        1 MOL1        -0.1768
      10    H6      19.430160   19.133608   20.407642 H          1 MOL1         0.0829
      11    H7      21.045394   19.707856   20.895500 H          1 MOL1         0.0829
      12    O1      19.995516   16.915244   21.843243 O.3        1 MOL1        -0.5515
      13    H8      19.882703   16.321897   22.616817 H          1 MOL1         0.3773
@<TRIPOS>BOND
    1     1     2    1
    2     1     3    1
    3     1     4    1
    4     4     5    1
    5     4     6    1
    6     4     7    1
    7     7     8    1
    8     1     9    1
    9     7     9    1
   10     9    10    1
   11     9    11    1
   12     7    12    1
   13    12    13    1
@<TRIPOS>SUBSTRUCTURE
       1 MOL1            1 RESIDUE      1      MOL     
@<SCITEGIC>MOL_PROPERTY
VConf Rank
SciTegic.value.IntegerValue
552

@<SCITEGIC>MOL_PROPERTY
Conf_Id
SciTegic.value.IntegerValue
19

@<SCITEGIC>MOL_PROPERTY
Delta U+W
SciTegic.value.DoubleValue
-0.011

@<SCITEGIC>MOL_PROPERTY
U+W
SciTegic.value.DoubleValue
-3.142

@<SCITEGIC>MOL_PROPERTY
Grad RMS
SciTegic.value.DoubleValue
0.000000

@<SCITEGIC>MOL_PROPERTY
U
SciTegic.value.DoubleValue
-0.154

@<SCITEGIC>MOL_PROPERTY
W
SciTegic.value.DoubleValue
-2.989

@<SCITEGIC>MOL_PROPERTY
W(PB)
SciTegic.value.DoubleValue
-4.588

@<SCITEGIC>MOL_PROPERTY
W(SA)
SciTegic.value.DoubleValue
1.599

@<SCITEGIC>MOL_PROPERTY
Valence
SciTegic.value.DoubleValue
6.334

@<SCITEGIC>MOL_PROPERTY
Coulomb
SciTegic.value.DoubleValue
-7.439

@<SCITEGIC>MOL_PROPERTY
VdW
SciTegic.value.DoubleValue
0.951

@<SCITEGIC>MOL_PROPERTY
VdW6
SciTegic.value.DoubleValue
-2.120

@<SCITEGIC>MOL_PROPERTY
VdW12
SciTegic.value.DoubleValue
3.072

@<SCITEGIC>MOL_PROPERTY
Bond
SciTegic.value.DoubleValue
0.065

@<SCITEGIC>MOL_PROPERTY
Angle
SciTegic.value.DoubleValue
0.930

@<SCITEGIC>MOL_PROPERTY
Pdih
SciTegic.value.DoubleValue
5.339

@<SCITEGIC>MOL_PROPERTY
Idih
SciTegic.value.DoubleValue
0.000

@<SCITEGIC>MOL_PROPERTY
Tether
SciTegic.value.DoubleValue
0.000

@<TRIPOS>MOLECULE
guest-s16_confgen4.mol2 : confsearch ligand conformer 553
          13          13           1
SMALL
USER_CHARGES
 
@<TRIPOS>ATOM
       1    C1      19.372215   20.211618   22.611027 C.3        1 MOL1        -0.1693
       2    H1      19.362854   21.259108   22.287523 H          1 MOL1         0.0829
       3    H2      18.920560   20.148533   23.609643 H          1 MOL1         0.0829
       4    C2      20.736368   19.458529   22.466408 C.3        1 MOL1        -0.1768
       5    H3      21.358633   19.800696   21.630661 H          1 MOL1         0.0829
       6    H4      21.356788   19.409316   23.368101 H          1 MOL1         0.0829
       7    C3      19.891323   18.184147   22.154511 C.3        1 MOL1         0.1211
       8    H5      20.338697   17.509047   21.413628 H          1 MOL1         0.0786
       9    C4      18.823637   19.168179   21.581951 C.3        1 MOL1        -0.1768
      10    H6      17.777464   18.869810   21.711754 H          1 MOL1         0.0829
      11    H7      18.981882   19.440477   20.531339 H          1 MOL1         0.0829
      12    O1      19.479364   17.450896   23.290635 O.3        1 MOL1        -0.5515
      13    H8      18.821903   16.789340   22.986917 H          1 MOL1         0.3773
@<TRIPOS>BOND
    1     1     2    1
    2     1     3    1
    3     1     4    1
    4     4     5    1
    5     4     6    1
    6     4     7    1
    7     7     8    1
    8     1     9    1
    9     7     9    1
   10     9    10    1
   11     9    11    1
   12     7    12    1
   13    12    13    1
@<TRIPOS>SUBSTRUCTURE
       1 MOL1            1 RESIDUE      1      MOL     
@<SCITEGIC>MOL_PROPERTY
VConf Rank
SciTegic.value.IntegerValue
553

@<SCITEGIC>MOL_PROPERTY
Conf_Id
SciTegic.value.IntegerValue
20

@<SCITEGIC>MOL_PROPERTY
Delta U+W
SciTegic.value.DoubleValue
1.030

@<SCITEGIC>MOL_PROPERTY
U+W
SciTegic.value.DoubleValue
-2.101

@<SCITEGIC>MOL_PROPERTY
Grad RMS
SciTegic.value.DoubleValue
0.000000

@<SCITEGIC>MOL_PROPERTY
U
SciTegic.value.DoubleValue
0.841

@<SCITEGIC>MOL_PROPERTY
W
SciTegic.value.DoubleValue
-2.942

@<SCITEGIC>MOL_PROPERTY
W(PB)
SciTegic.value.DoubleValue
-4.530

@<SCITEGIC>MOL_PROPERTY
W(SA)
SciTegic.value.DoubleValue
1.587

@<SCITEGIC>MOL_PROPERTY
Valence
SciTegic.value.DoubleValue
6.736

@<SCITEGIC>MOL_PROPERTY
Coulomb
SciTegic.value.DoubleValue
-7.246

@<SCITEGIC>MOL_PROPERTY
VdW
SciTegic.value.DoubleValue
1.352

@<SCITEGIC>MOL_PROPERTY
VdW6
SciTegic.value.DoubleValue
-2.500

@<SCITEGIC>MOL_PROPERTY
VdW12
SciTegic.value.DoubleValue
3.851

@<SCITEGIC>MOL_PROPERTY
Bond
SciTegic.value.DoubleValue
0.063

@<SCITEGIC>MOL_PROPERTY
Angle
SciTegic.value.DoubleValue
0.687

@<SCITEGIC>MOL_PROPERTY
Pdih
SciTegic.value.DoubleValue
5.986

@<SCITEGIC>MOL_PROPERTY
Idih
SciTegic.value.DoubleValue
0.000

@<SCITEGIC>MOL_PROPERTY
Tether
SciTegic.value.DoubleValue
0.000

@<TRIPOS>MOLECULE
guest-s16_confgen4.mol2 : confsearch ligand conformer 554
          13          13           1
SMALL
USER_CHARGES
 
@<TRIPOS>ATOM
       1    C1      19.575065   19.142394   23.468157 C.3        1 MOL1        -0.1693
       2    H1      18.583116   19.466648   23.809573 H          1 MOL1         0.0829
       3    H2      20.232482   19.049571   24.340859 H          1 MOL1         0.0829
       4    C2      20.148039   19.953419   22.259316 C.3        1 MOL1        -0.1768
       5    H3      19.864866   21.010640   22.210431 H          1 MOL1         0.0829
       6    H4      21.234283   19.873607   22.128578 H          1 MOL1         0.0829
       7    C3      19.308805   18.986268   21.370800 C.3        1 MOL1         0.1211
       8    H5      18.255013   19.279069   21.268407 H          1 MOL1         0.0786
       9    C4      19.562819   17.925969   22.484532 C.3        1 MOL1        -0.1768
      10    H6      20.518258   17.392997   22.404133 H          1 MOL1         0.0829
      11    H7      18.762807   17.192642   22.634546 H          1 MOL1         0.0829
      12    O1      19.864280   18.686158   20.112548 O.3        1 MOL1        -0.5515
      13    H8      20.798767   18.433457   20.266156 H          1 MOL1         0.3773
@<TRIPOS>BOND
    1     1     2    1
    2     1     3    1
    3     1     4    1
    4     4     5    1
    5     4     6    1
    6     4     7    1
    7     7     8    1
    8     1     9    1
    9     7     9    1
   10     9    10    1
   11     9    11    1
   12     7    12    1
   13    12    13    1
@<TRIPOS>SUBSTRUCTURE
       1 MOL1            1 RESIDUE      1      MOL     
@<SCITEGIC>MOL_PROPERTY
VConf Rank
SciTegic.value.IntegerValue
554

@<SCITEGIC>MOL_PROPERTY
Conf_Id
SciTegic.value.IntegerValue
24

@<SCITEGIC>MOL_PROPERTY
Delta U+W
SciTegic.value.DoubleValue
0.356

@<SCITEGIC>MOL_PROPERTY
U+W
SciTegic.value.DoubleValue
-2.775

@<SCITEGIC>MOL_PROPERTY
Grad RMS
SciTegic.value.DoubleValue
0.000000

@<SCITEGIC>MOL_PROPERTY
U
SciTegic.value.DoubleValue
-0.184

@<SCITEGIC>MOL_PROPERTY
W
SciTegic.value.DoubleValue
-2.591

@<SCITEGIC>MOL_PROPERTY
W(PB)
SciTegic.value.DoubleValue
-4.184

@<SCITEGIC>MOL_PROPERTY
W(SA)
SciTegic.value.DoubleValue
1.593

@<SCITEGIC>MOL_PROPERTY
Valence
SciTegic.value.DoubleValue
6.840

@<SCITEGIC>MOL_PROPERTY
Coulomb
SciTegic.value.DoubleValue
-7.916

@<SCITEGIC>MOL_PROPERTY
VdW
SciTegic.value.DoubleValue
0.893

@<SCITEGIC>MOL_PROPERTY
VdW6
SciTegic.value.DoubleValue
-2.167

@<SCITEGIC>MOL_PROPERTY
VdW12
SciTegic.value.DoubleValue
3.060

@<SCITEGIC>MOL_PROPERTY
Bond
SciTegic.value.DoubleValue
0.059

@<SCITEGIC>MOL_PROPERTY
Angle
SciTegic.value.DoubleValue
0.918

@<SCITEGIC>MOL_PROPERTY
Pdih
SciTegic.value.DoubleValue
5.862

@<SCITEGIC>MOL_PROPERTY
Idih
SciTegic.value.DoubleValue
0.000

@<SCITEGIC>MOL_PROPERTY
Tether
SciTegic.value.DoubleValue
0.000

@<TRIPOS>MOLECULE
guest-s16_confgen4.mol2 : confsearch ligand conformer 555
          13          13           1
SMALL
USER_CHARGES
 
@<TRIPOS>ATOM
       1    C1      19.170374   19.032365   23.203633 C.3        1 MOL1        -0.1693
       2    H1      19.213813   18.778165   24.269404 H          1 MOL1         0.0829
       3    H2      18.233203   19.570824   23.013712 H          1 MOL1         0.0829
       4    C2      19.470748   17.862165   22.208372 C.3        1 MOL1        -0.1768
       5    H3      20.168248   17.107959   22.592667 H          1 MOL1         0.0829
       6    H4      18.598388   17.348184   21.789419 H          1 MOL1         0.0829
       7    C3      20.135466   18.935049   21.291279 C.3        1 MOL1         0.1211
       8    H5      21.017784   18.586589   20.739393 H          1 MOL1         0.0786
       9    C4      20.450559   19.708772   22.608877 C.3        1 MOL1        -0.1768
      10    H6      21.388294   19.407328   23.091370 H          1 MOL1         0.0829
      11    H7      20.431042   20.802106   22.538531 H          1 MOL1         0.0829
      12    O1      19.248302   19.595847   20.414915 O.3        1 MOL1        -0.5515
      13    H8      18.485636   19.882618   20.958437 H          1 MOL1         0.3773
@<TRIPOS>BOND
    1     1     2    1
    2     1     3    1
    3     1     4    1
    4     4     5    1
    5     4     6    1
    6     4     7    1
    7     7     8    1
    8     1     9    1
    9     7     9    1
   10     9    10    1
   11     9    11    1
   12     7    12    1
   13    12    13    1
@<TRIPOS>SUBSTRUCTURE
       1 MOL1            1 RESIDUE      1      MOL     
@<SCITEGIC>MOL_PROPERTY
VConf Rank
SciTegic.value.IntegerValue
555

@<SCITEGIC>MOL_PROPERTY
Conf_Id
SciTegic.value.IntegerValue
44

@<SCITEGIC>MOL_PROPERTY
Delta U+W
SciTegic.value.DoubleValue
0.823

@<SCITEGIC>MOL_PROPERTY
U+W
SciTegic.value.DoubleValue
-2.308

@<SCITEGIC>MOL_PROPERTY
Grad RMS
SciTegic.value.DoubleValue
0.000000

@<SCITEGIC>MOL_PROPERTY
U
SciTegic.value.DoubleValue
0.039

@<SCITEGIC>MOL_PROPERTY
W
SciTegic.value.DoubleValue
-2.348

@<SCITEGIC>MOL_PROPERTY
W(PB)
SciTegic.value.DoubleValue
-3.918

@<SCITEGIC>MOL_PROPERTY
W(SA)
SciTegic.value.DoubleValue
1.571

@<SCITEGIC>MOL_PROPERTY
Valence
SciTegic.value.DoubleValue
7.320

@<SCITEGIC>MOL_PROPERTY
Coulomb
SciTegic.value.DoubleValue
-8.530

@<SCITEGIC>MOL_PROPERTY
VdW
SciTegic.value.DoubleValue
1.249

@<SCITEGIC>MOL_PROPERTY
VdW6
SciTegic.value.DoubleValue
-2.615

@<SCITEGIC>MOL_PROPERTY
VdW12
SciTegic.value.DoubleValue
3.864

@<SCITEGIC>MOL_PROPERTY
Bond
SciTegic.value.DoubleValue
0.056

@<SCITEGIC>MOL_PROPERTY
Angle
SciTegic.value.DoubleValue
0.694

@<SCITEGIC>MOL_PROPERTY
Pdih
SciTegic.value.DoubleValue
6.570

@<SCITEGIC>MOL_PROPERTY
Idih
SciTegic.value.DoubleValue
0.000

@<SCITEGIC>MOL_PROPERTY
Tether
SciTegic.value.DoubleValue
0.000

@<TRIPOS>MOLECULE
guest-s16_confgen4.mol2 : confsearch ligand conformer 556
          13          13           1
SMALL
USER_CHARGES
 
@<TRIPOS>ATOM
       1    C1      19.700132   19.788127   21.159795 C.3        1 MOL1        -0.1693
       2    H1      19.935512   19.221277   20.249376 H          1 MOL1         0.0829
       3    H2      19.505557   20.831062   20.882731 H          1 MOL1         0.0829
       4    C2      20.697252   19.566675   22.344707 C.3        1 MOL1        -0.1768
       5    H3      21.740275   19.375583   22.069845 H          1 MOL1         0.0829
       6    H4      20.672859   20.344796   23.117700 H          1 MOL1         0.0829
       7    C3      19.840474   18.306212   22.670303 C.3        1 MOL1         0.1211
       8    H5      20.108994   17.422479   22.075345 H          1 MOL1         0.0786
       9    C4      18.640145   19.116086   22.093667 C.3        1 MOL1        -0.1768
      10    H6      17.862147   18.527685   21.594994 H          1 MOL1         0.0829
      11    H7      18.163509   19.796889   22.809990 H          1 MOL1         0.0829
      12    O1      19.745722   17.979063   24.037249 O.3        1 MOL1        -0.5515
      13    H8      19.060149   17.281973   24.122440 H          1 MOL1         0.3773
@<TRIPOS>BOND
    1     1     2    1
    2     1     3    1
    3     1     4    1
    4     4     5    1
    5     4     6    1
    6     4     7    1
    7     7     8    1
    8     1     9    1
    9     7     9    1
   10     9    10    1
   11     9    11    1
   12     7    12    1
   13    12    13    1
@<TRIPOS>SUBSTRUCTURE
       1 MOL1            1 RESIDUE      1      MOL     
@<SCITEGIC>MOL_PROPERTY
VConf Rank
SciTegic.value.IntegerValue
556

@<SCITEGIC>MOL_PROPERTY
Conf_Id
SciTegic.value.IntegerValue
22

@<SCITEGIC>MOL_PROPERTY
Delta U+W
SciTegic.value.DoubleValue
0.000

@<SCITEGIC>MOL_PROPERTY
U+W
SciTegic.value.DoubleValue
-3.131

@<SCITEGIC>MOL_PROPERTY
Grad RMS
SciTegic.value.DoubleValue
0.000000

@<SCITEGIC>MOL_PROPERTY
U
SciTegic.value.DoubleValue
-0.154

@<SCITEGIC>MOL_PROPERTY
W
SciTegic.value.DoubleValue
-2.978

@<SCITEGIC>MOL_PROPERTY
W(PB)
SciTegic.value.DoubleValue
-4.579

@<SCITEGIC>MOL_PROPERTY
W(SA)
SciTegic.value.DoubleValue
1.601

@<SCITEGIC>MOL_PROPERTY
Valence
SciTegic.value.DoubleValue
6.333

@<SCITEGIC>MOL_PROPERTY
Coulomb
SciTegic.value.DoubleValue
-7.439

@<SCITEGIC>MOL_PROPERTY
VdW
SciTegic.value.DoubleValue
0.952

@<SCITEGIC>MOL_PROPERTY
VdW6
SciTegic.value.DoubleValue
-2.120

@<SCITEGIC>MOL_PROPERTY
VdW12
SciTegic.value.DoubleValue
3.072

@<SCITEGIC>MOL_PROPERTY
Bond
SciTegic.value.DoubleValue
0.065

@<SCITEGIC>MOL_PROPERTY
Angle
SciTegic.value.DoubleValue
0.931

@<SCITEGIC>MOL_PROPERTY
Pdih
SciTegic.value.DoubleValue
5.338

@<SCITEGIC>MOL_PROPERTY
Idih
SciTegic.value.DoubleValue
0.000

@<SCITEGIC>MOL_PROPERTY
Tether
SciTegic.value.DoubleValue
0.000

@<TRIPOS>MOLECULE
guest-s16_confgen4.mol2 : confsearch ligand conformer 557
          13          13           1
SMALL
USER_CHARGES
 
@<TRIPOS>ATOM
       1    C1      18.465224   19.499006   22.006395 C.3        1 MOL1        -0.1693
       2    H1      18.097660   19.331413   20.985417 H          1 MOL1         0.0829
       3    H2      17.760093   20.156102   22.529225 H          1 MOL1         0.0829
       4    C2      19.975129   19.897098   22.101469 C.3        1 MOL1        -0.1768
       5    H3      20.264117   20.375784   23.045471 H          1 MOL1         0.0829
       6    H4      20.370762   20.490195   21.269674 H          1 MOL1         0.0829
       7    C3      20.257320   18.365537   22.039138 C.3        1 MOL1         0.1211
       8    H5      20.266614   17.954969   21.020114 H          1 MOL1         0.0786
       9    C4      18.890632   18.201598   22.769982 C.3        1 MOL1        -0.1768
      10    H6      18.943180   18.306409   23.860779 H          1 MOL1         0.0829
      11    H7      18.328203   17.292733   22.529986 H          1 MOL1         0.0829
      12    O1      21.384002   17.930229   22.764151 O.3        1 MOL1        -0.5515
      13    H8      22.179164   18.233309   22.275210 H          1 MOL1         0.3773
@<TRIPOS>BOND
    1     1     2    1
    2     1     3    1
    3     1     4    1
    4     4     5    1
    5     4     6    1
    6     4     7    1
    7     7     8    1
    8     1     9    1
    9     7     9    1
   10     9    10    1
   11     9    11    1
   12     7    12    1
   13    12    13    1
@<TRIPOS>SUBSTRUCTURE
       1 MOL1            1 RESIDUE      1      MOL     
@<SCITEGIC>MOL_PROPERTY
VConf Rank
SciTegic.value.IntegerValue
557

@<SCITEGIC>MOL_PROPERTY
Conf_Id
SciTegic.value.IntegerValue
19

@<SCITEGIC>MOL_PROPERTY
Delta U+W
SciTegic.value.DoubleValue
-0.011

@<SCITEGIC>MOL_PROPERTY
U+W
SciTegic.value.DoubleValue
-3.142

@<SCITEGIC>MOL_PROPERTY
Grad RMS
SciTegic.value.DoubleValue
0.000000

@<SCITEGIC>MOL_PROPERTY
U
SciTegic.value.DoubleValue
-0.154

@<SCITEGIC>MOL_PROPERTY
W
SciTegic.value.DoubleValue
-2.989

@<SCITEGIC>MOL_PROPERTY
W(PB)
SciTegic.value.DoubleValue
-4.588

@<SCITEGIC>MOL_PROPERTY
W(SA)
SciTegic.value.DoubleValue
1.599

@<SCITEGIC>MOL_PROPERTY
Valence
SciTegic.value.DoubleValue
6.334

@<SCITEGIC>MOL_PROPERTY
Coulomb
SciTegic.value.DoubleValue
-7.439

@<SCITEGIC>MOL_PROPERTY
VdW
SciTegic.value.DoubleValue
0.951

@<SCITEGIC>MOL_PROPERTY
VdW6
SciTegic.value.DoubleValue
-2.120

@<SCITEGIC>MOL_PROPERTY
VdW12
SciTegic.value.DoubleValue
3.072

@<SCITEGIC>MOL_PROPERTY
Bond
SciTegic.value.DoubleValue
0.065

@<SCITEGIC>MOL_PROPERTY
Angle
SciTegic.value.DoubleValue
0.930

@<SCITEGIC>MOL_PROPERTY
Pdih
SciTegic.value.DoubleValue
5.339

@<SCITEGIC>MOL_PROPERTY
Idih
SciTegic.value.DoubleValue
0.000

@<SCITEGIC>MOL_PROPERTY
Tether
SciTegic.value.DoubleValue
0.000

@<TRIPOS>MOLECULE
guest-s16_confgen4.mol2 : confsearch ligand conformer 558
          13          13           1
SMALL
USER_CHARGES
 
@<TRIPOS>ATOM
       1    C1      20.305035   20.076922   22.144461 C.3        1 MOL1        -0.1693
       2    H1      20.606855   20.869444   21.449629 H          1 MOL1         0.0829
       3    H2      20.718082   20.303340   23.136092 H          1 MOL1         0.0829
       4    C2      20.545869   18.608365   21.660405 C.3        1 MOL1        -0.1768
       5    H3      20.474870   18.469682   20.574822 H          1 MOL1         0.0829
       6    H4      21.464963   18.129275   22.015556 H          1 MOL1         0.0829
       7    C3      19.244522   18.239180   22.438625 C.3        1 MOL1         0.1211
       8    H5      18.633391   17.460667   21.964020 H          1 MOL1         0.0786
       9    C4      18.785912   19.701473   22.142868 C.3        1 MOL1        -0.1768
      10    H6      18.172603   20.177702   22.915790 H          1 MOL1         0.0829
      11    H7      18.288036   19.828403   21.173857 H          1 MOL1         0.0829
      12    O1      19.434733   17.938017   23.806567 O.3        1 MOL1        -0.5515
      13    H8      18.546816   17.897226   24.221408 H          1 MOL1         0.3773
@<TRIPOS>BOND
    1     1     2    1
    2     1     3    1
    3     1     4    1
    4     4     5    1
    5     4     6    1
    6     4     7    1
    7     7     8    1
    8     1     9    1
    9     7     9    1
   10     9    10    1
   11     9    11    1
   12     7    12    1
   13    12    13    1
@<TRIPOS>SUBSTRUCTURE
       1 MOL1            1 RESIDUE      1      MOL     
@<SCITEGIC>MOL_PROPERTY
VConf Rank
SciTegic.value.IntegerValue
558

@<SCITEGIC>MOL_PROPERTY
Conf_Id
SciTegic.value.IntegerValue
20

@<SCITEGIC>MOL_PROPERTY
Delta U+W
SciTegic.value.DoubleValue
1.030

@<SCITEGIC>MOL_PROPERTY
U+W
SciTegic.value.DoubleValue
-2.101

@<SCITEGIC>MOL_PROPERTY
Grad RMS
SciTegic.value.DoubleValue
0.000000

@<SCITEGIC>MOL_PROPERTY
U
SciTegic.value.DoubleValue
0.841

@<SCITEGIC>MOL_PROPERTY
W
SciTegic.value.DoubleValue
-2.942

@<SCITEGIC>MOL_PROPERTY
W(PB)
SciTegic.value.DoubleValue
-4.530

@<SCITEGIC>MOL_PROPERTY
W(SA)
SciTegic.value.DoubleValue
1.587

@<SCITEGIC>MOL_PROPERTY
Valence
SciTegic.value.DoubleValue
6.736

@<SCITEGIC>MOL_PROPERTY
Coulomb
SciTegic.value.DoubleValue
-7.246

@<SCITEGIC>MOL_PROPERTY
VdW
SciTegic.value.DoubleValue
1.352

@<SCITEGIC>MOL_PROPERTY
VdW6
SciTegic.value.DoubleValue
-2.500

@<SCITEGIC>MOL_PROPERTY
VdW12
SciTegic.value.DoubleValue
3.851

@<SCITEGIC>MOL_PROPERTY
Bond
SciTegic.value.DoubleValue
0.063

@<SCITEGIC>MOL_PROPERTY
Angle
SciTegic.value.DoubleValue
0.687

@<SCITEGIC>MOL_PROPERTY
Pdih
SciTegic.value.DoubleValue
5.986

@<SCITEGIC>MOL_PROPERTY
Idih
SciTegic.value.DoubleValue
0.000

@<SCITEGIC>MOL_PROPERTY
Tether
SciTegic.value.DoubleValue
0.000

@<TRIPOS>MOLECULE
guest-s16_confgen4.mol2 : confsearch ligand conformer 559
          13          13           1
SMALL
USER_CHARGES
 
@<TRIPOS>ATOM
       1    C1      21.003563   18.884111   22.454217 C.3        1 MOL1        -0.1693
       2    H1      21.698208   19.016485   21.614208 H          1 MOL1         0.0829
       3    H2      21.586690   18.711813   23.366740 H          1 MOL1         0.0829
       4    C2      19.835696   17.878675   22.184879 C.3        1 MOL1        -0.1768
       5    H3      20.066318   17.038553   21.520575 H          1 MOL1         0.0829
       6    H4      19.349228   17.489969   23.088010 H          1 MOL1         0.0829
       7    C3      19.111510   19.088091   21.520031 C.3        1 MOL1         0.1211
       8    H5      19.407843   19.264511   20.477075 H          1 MOL1         0.0786
       9    C4      19.880215   19.968580   22.551044 C.3        1 MOL1        -0.1768
      10    H6      19.403699   20.046993   23.536017 H          1 MOL1         0.0829
      11    H7      20.150152   20.974162   22.210118 H          1 MOL1         0.0829
      12    O1      17.709316   19.096076   21.644949 O.3        1 MOL1        -0.5515
      13    H8      17.506165   18.934820   22.590171 H          1 MOL1         0.3773
@<TRIPOS>BOND
    1     1     2    1
    2     1     3    1
    3     1     4    1
    4     4     5    1
    5     4     6    1
    6     4     7    1
    7     7     8    1
    8     1     9    1
    9     7     9    1
   10     9    10    1
   11     9    11    1
   12     7    12    1
   13    12    13    1
@<TRIPOS>SUBSTRUCTURE
       1 MOL1            1 RESIDUE      1      MOL     
@<SCITEGIC>MOL_PROPERTY
VConf Rank
SciTegic.value.IntegerValue
559

@<SCITEGIC>MOL_PROPERTY
Conf_Id
SciTegic.value.IntegerValue
24

@<SCITEGIC>MOL_PROPERTY
Delta U+W
SciTegic.value.DoubleValue
0.356

@<SCITEGIC>MOL_PROPERTY
U+W
SciTegic.value.DoubleValue
-2.775

@<SCITEGIC>MOL_PROPERTY
Grad RMS
SciTegic.value.DoubleValue
0.000000

@<SCITEGIC>MOL_PROPERTY
U
SciTegic.value.DoubleValue
-0.184

@<SCITEGIC>MOL_PROPERTY
W
SciTegic.value.DoubleValue
-2.591

@<SCITEGIC>MOL_PROPERTY
W(PB)
SciTegic.value.DoubleValue
-4.184

@<SCITEGIC>MOL_PROPERTY
W(SA)
SciTegic.value.DoubleValue
1.593

@<SCITEGIC>MOL_PROPERTY
Valence
SciTegic.value.DoubleValue
6.840

@<SCITEGIC>MOL_PROPERTY
Coulomb
SciTegic.value.DoubleValue
-7.916

@<SCITEGIC>MOL_PROPERTY
VdW
SciTegic.value.DoubleValue
0.893

@<SCITEGIC>MOL_PROPERTY
VdW6
SciTegic.value.DoubleValue
-2.167

@<SCITEGIC>MOL_PROPERTY
VdW12
SciTegic.value.DoubleValue
3.060

@<SCITEGIC>MOL_PROPERTY
Bond
SciTegic.value.DoubleValue
0.059

@<SCITEGIC>MOL_PROPERTY
Angle
SciTegic.value.DoubleValue
0.918

@<SCITEGIC>MOL_PROPERTY
Pdih
SciTegic.value.DoubleValue
5.862

@<SCITEGIC>MOL_PROPERTY
Idih
SciTegic.value.DoubleValue
0.000

@<SCITEGIC>MOL_PROPERTY
Tether
SciTegic.value.DoubleValue
0.000

@<TRIPOS>MOLECULE
guest-s16_confgen4.mol2 : confsearch ligand conformer 560
          13          13           1
SMALL
USER_CHARGES
 
@<TRIPOS>ATOM
       1    C1      20.264763   18.094979   22.624705 C.3        1 MOL1        -0.1693
       2    H1      20.299998   17.004782   22.736971 H          1 MOL1         0.0829
       3    H2      21.147151   18.522785   23.117319 H          1 MOL1         0.0829
       4    C2      18.906528   18.777653   22.997924 C.3        1 MOL1        -0.1768
       5    H3      18.022278   18.152001   22.825658 H          1 MOL1         0.0829
       6    H4      18.840603   19.203742   24.005302 H          1 MOL1         0.0829
       7    C3      19.204250   19.789082   21.847982 C.3        1 MOL1         0.1211
       8    H5      18.320879   20.126270   21.290804 H          1 MOL1         0.0786
       9    C4      19.997231   18.625340   21.176506 C.3        1 MOL1        -0.1768
      10    H6      19.380406   17.962341   20.557656 H          1 MOL1         0.0829
      11    H7      20.880670   18.918849   20.598496 H          1 MOL1         0.0829
      12    O1      19.989374   20.899467   22.225280 O.3        1 MOL1        -0.5515
      13    H8      20.757725   20.540681   22.715406 H          1 MOL1         0.3773
@<TRIPOS>BOND
    1     1     2    1
    2     1     3    1
    3     1     4    1
    4     4     5    1
    5     4     6    1
    6     4     7    1
    7     7     8    1
    8     1     9    1
    9     7     9    1
   10     9    10    1
   11     9    11    1
   12     7    12    1
   13    12    13    1
@<TRIPOS>SUBSTRUCTURE
       1 MOL1            1 RESIDUE      1      MOL     
@<SCITEGIC>MOL_PROPERTY
VConf Rank
SciTegic.value.IntegerValue
560

@<SCITEGIC>MOL_PROPERTY
Conf_Id
SciTegic.value.IntegerValue
44

@<SCITEGIC>MOL_PROPERTY
Delta U+W
SciTegic.value.DoubleValue
0.823

@<SCITEGIC>MOL_PROPERTY
U+W
SciTegic.value.DoubleValue
-2.308

@<SCITEGIC>MOL_PROPERTY
Grad RMS
SciTegic.value.DoubleValue
0.000000

@<SCITEGIC>MOL_PROPERTY
U
SciTegic.value.DoubleValue
0.039

@<SCITEGIC>MOL_PROPERTY
W
SciTegic.value.DoubleValue
-2.348

@<SCITEGIC>MOL_PROPERTY
W(PB)
SciTegic.value.DoubleValue
-3.918

@<SCITEGIC>MOL_PROPERTY
W(SA)
SciTegic.value.DoubleValue
1.571

@<SCITEGIC>MOL_PROPERTY
Valence
SciTegic.value.DoubleValue
7.320

@<SCITEGIC>MOL_PROPERTY
Coulomb
SciTegic.value.DoubleValue
-8.530

@<SCITEGIC>MOL_PROPERTY
VdW
SciTegic.value.DoubleValue
1.249

@<SCITEGIC>MOL_PROPERTY
VdW6
SciTegic.value.DoubleValue
-2.615

@<SCITEGIC>MOL_PROPERTY
VdW12
SciTegic.value.DoubleValue
3.864

@<SCITEGIC>MOL_PROPERTY
Bond
SciTegic.value.DoubleValue
0.056

@<SCITEGIC>MOL_PROPERTY
Angle
SciTegic.value.DoubleValue
0.694

@<SCITEGIC>MOL_PROPERTY
Pdih
SciTegic.value.DoubleValue
6.570

@<SCITEGIC>MOL_PROPERTY
Idih
SciTegic.value.DoubleValue
0.000

@<SCITEGIC>MOL_PROPERTY
Tether
SciTegic.value.DoubleValue
0.000

@<TRIPOS>MOLECULE
guest-s16_confgen4.mol2 : confsearch ligand conformer 561
          13          13           1
SMALL
USER_CHARGES
 
@<TRIPOS>ATOM
       1    C1      20.715345   19.266136   23.018212 C.3        1 MOL1        -0.1693
       2    H1      21.672720   19.185888   22.486629 H          1 MOL1         0.0829
       3    H2      20.913696   19.567195   24.053759 H          1 MOL1         0.0829
       4    C2      19.757650   18.043609   22.829655 C.3        1 MOL1        -0.1768
       5    H3      20.238421   17.067046   22.706584 H          1 MOL1         0.0829
       6    H4      18.969347   17.955881   23.587591 H          1 MOL1         0.0829
       7    C3      19.312351   18.750283   21.513917 C.3        1 MOL1         0.1211
       8    H5      19.977718   18.558159   20.661018 H          1 MOL1         0.0786
       9    C4      19.614349   20.082597   22.264204 C.3        1 MOL1        -0.1768
      10    H6      19.969762   20.911413   21.642177 H          1 MOL1         0.0829
      11    H7      18.795934   20.443515   22.899601 H          1 MOL1         0.0829
      12    O1      17.965178   18.554666   21.151417 O.3        1 MOL1        -0.5515
      13    H8      17.770258   19.171519   20.413378 H          1 MOL1         0.3773
@<TRIPOS>BOND
    1     1     2    1
    2     1     3    1
    3     1     4    1
    4     4     5    1
    5     4     6    1
    6     4     7    1
    7     7     8    1
    8     1     9    1
    9     7     9    1
   10     9    10    1
   11     9    11    1
   12     7    12    1
   13    12    13    1
@<TRIPOS>SUBSTRUCTURE
       1 MOL1            1 RESIDUE      1      MOL     
@<SCITEGIC>MOL_PROPERTY
VConf Rank
SciTegic.value.IntegerValue
561

@<SCITEGIC>MOL_PROPERTY
Conf_Id
SciTegic.value.IntegerValue
22

@<SCITEGIC>MOL_PROPERTY
Delta U+W
SciTegic.value.DoubleValue
0.000

@<SCITEGIC>MOL_PROPERTY
U+W
SciTegic.value.DoubleValue
-3.131

@<SCITEGIC>MOL_PROPERTY
Grad RMS
SciTegic.value.DoubleValue
0.000000

@<SCITEGIC>MOL_PROPERTY
U
SciTegic.value.DoubleValue
-0.154

@<SCITEGIC>MOL_PROPERTY
W
SciTegic.value.DoubleValue
-2.978

@<SCITEGIC>MOL_PROPERTY
W(PB)
SciTegic.value.DoubleValue
-4.579

@<SCITEGIC>MOL_PROPERTY
W(SA)
SciTegic.value.DoubleValue
1.601

@<SCITEGIC>MOL_PROPERTY
Valence
SciTegic.value.DoubleValue
6.333

@<SCITEGIC>MOL_PROPERTY
Coulomb
SciTegic.value.DoubleValue
-7.439

@<SCITEGIC>MOL_PROPERTY
VdW
SciTegic.value.DoubleValue
0.952

@<SCITEGIC>MOL_PROPERTY
VdW6
SciTegic.value.DoubleValue
-2.120

@<SCITEGIC>MOL_PROPERTY
VdW12
SciTegic.value.DoubleValue
3.072

@<SCITEGIC>MOL_PROPERTY
Bond
SciTegic.value.DoubleValue
0.065

@<SCITEGIC>MOL_PROPERTY
Angle
SciTegic.value.DoubleValue
0.931

@<SCITEGIC>MOL_PROPERTY
Pdih
SciTegic.value.DoubleValue
5.338

@<SCITEGIC>MOL_PROPERTY
Idih
SciTegic.value.DoubleValue
0.000

@<SCITEGIC>MOL_PROPERTY
Tether
SciTegic.value.DoubleValue
0.000

@<TRIPOS>MOLECULE
guest-s16_confgen4.mol2 : confsearch ligand conformer 562
          13          13           1
SMALL
USER_CHARGES
 
@<TRIPOS>ATOM
       1    C1      20.886918   18.884873   22.643762 C.3        1 MOL1        -0.1693
       2    H1      21.008301   19.036498   23.724439 H          1 MOL1         0.0829
       3    H2      21.880410   18.791231   22.189292 H          1 MOL1         0.0829
       4    C2      19.904866   19.884744   21.948665 C.3        1 MOL1        -0.1768
       5    H3      20.022483   19.960497   20.860446 H          1 MOL1         0.0829
       6    H4      19.866795   20.895086   22.370486 H          1 MOL1         0.0829
       7    C3      18.779067   18.911596   22.412078 C.3        1 MOL1         0.1211
       8    H5      18.454120   19.067612   23.449927 H          1 MOL1         0.0786
       9    C4      19.845062   17.786324   22.250024 C.3        1 MOL1        -0.1768
      10    H6      19.947259   17.400967   21.227948 H          1 MOL1         0.0829
      11    H7      19.751845   16.939261   22.938325 H          1 MOL1         0.0829
      12    O1      17.669502   18.818865   21.549051 O.3        1 MOL1        -0.5515
      13    H8      17.165471   19.656827   21.632567 H          1 MOL1         0.3773
@<TRIPOS>BOND
    1     1     2    1
    2     1     3    1
    3     1     4    1
    4     4     5    1
    5     4     6    1
    6     4     7    1
    7     7     8    1
    8     1     9    1
    9     7     9    1
   10     9    10    1
   11     9    11    1
   12     7    12    1
   13    12    13    1
@<TRIPOS>SUBSTRUCTURE
       1 MOL1            1 RESIDUE      1      MOL     
@<SCITEGIC>MOL_PROPERTY
VConf Rank
SciTegic.value.IntegerValue
562

@<SCITEGIC>MOL_PROPERTY
Conf_Id
SciTegic.value.IntegerValue
19

@<SCITEGIC>MOL_PROPERTY
Delta U+W
SciTegic.value.DoubleValue
-0.011

@<SCITEGIC>MOL_PROPERTY
U+W
SciTegic.value.DoubleValue
-3.142

@<SCITEGIC>MOL_PROPERTY
Grad RMS
SciTegic.value.DoubleValue
0.000000

@<SCITEGIC>MOL_PROPERTY
U
SciTegic.value.DoubleValue
-0.154

@<SCITEGIC>MOL_PROPERTY
W
SciTegic.value.DoubleValue
-2.989

@<SCITEGIC>MOL_PROPERTY
W(PB)
SciTegic.value.DoubleValue
-4.588

@<SCITEGIC>MOL_PROPERTY
W(SA)
SciTegic.value.DoubleValue
1.599

@<SCITEGIC>MOL_PROPERTY
Valence
SciTegic.value.DoubleValue
6.334

@<SCITEGIC>MOL_PROPERTY
Coulomb
SciTegic.value.DoubleValue
-7.439

@<SCITEGIC>MOL_PROPERTY
VdW
SciTegic.value.DoubleValue
0.951

@<SCITEGIC>MOL_PROPERTY
VdW6
SciTegic.value.DoubleValue
-2.120

@<SCITEGIC>MOL_PROPERTY
VdW12
SciTegic.value.DoubleValue
3.072

@<SCITEGIC>MOL_PROPERTY
Bond
SciTegic.value.DoubleValue
0.065

@<SCITEGIC>MOL_PROPERTY
Angle
SciTegic.value.DoubleValue
0.930

@<SCITEGIC>MOL_PROPERTY
Pdih
SciTegic.value.DoubleValue
5.339

@<SCITEGIC>MOL_PROPERTY
Idih
SciTegic.value.DoubleValue
0.000

@<SCITEGIC>MOL_PROPERTY
Tether
SciTegic.value.DoubleValue
0.000

@<TRIPOS>MOLECULE
guest-s16_confgen4.mol2 : confsearch ligand conformer 563
          13          13           1
SMALL
USER_CHARGES
 
@<TRIPOS>ATOM
       1    C1      20.825330   18.780657   22.139017 C.3        1 MOL1        -0.1693
       2    H1      21.841972   19.188201   22.090816 H          1 MOL1         0.0829
       3    H2      20.884128   17.685062   22.101327 H          1 MOL1         0.0829
       4    C2      19.784093   19.409469   21.154440 C.3        1 MOL1        -0.1768
       5    H3      19.962379   20.465205   20.916952 H          1 MOL1         0.0829
       6    H4      19.615240   18.863623   20.219596 H          1 MOL1         0.0829
       7    C3      18.724635   19.176554   22.276371 C.3        1 MOL1         0.1211
       8    H5      17.952398   19.953631   22.344291 H          1 MOL1         0.0786
       9    C4      19.910788   19.344183   23.276889 C.3        1 MOL1        -0.1768
      10    H6      19.856035   18.743016   24.191193 H          1 MOL1         0.0829
      11    H7      20.120358   20.384416   23.554323 H          1 MOL1         0.0829
      12    O1      18.124125   17.896905   22.270977 O.3        1 MOL1        -0.5515
      13    H8      17.620206   17.808773   23.107908 H          1 MOL1         0.3773
@<TRIPOS>BOND
    1     1     2    1
    2     1     3    1
    3     1     4    1
    4     4     5    1
    5     4     6    1
    6     4     7    1
    7     7     8    1
    8     1     9    1
    9     7     9    1
   10     9    10    1
   11     9    11    1
   12     7    12    1
   13    12    13    1
@<TRIPOS>SUBSTRUCTURE
       1 MOL1            1 RESIDUE      1      MOL     
@<SCITEGIC>MOL_PROPERTY
VConf Rank
SciTegic.value.IntegerValue
563

@<SCITEGIC>MOL_PROPERTY
Conf_Id
SciTegic.value.IntegerValue
20

@<SCITEGIC>MOL_PROPERTY
Delta U+W
SciTegic.value.DoubleValue
1.030

@<SCITEGIC>MOL_PROPERTY
U+W
SciTegic.value.DoubleValue
-2.101

@<SCITEGIC>MOL_PROPERTY
Grad RMS
SciTegic.value.DoubleValue
0.000000

@<SCITEGIC>MOL_PROPERTY
U
SciTegic.value.DoubleValue
0.841

@<SCITEGIC>MOL_PROPERTY
W
SciTegic.value.DoubleValue
-2.942

@<SCITEGIC>MOL_PROPERTY
W(PB)
SciTegic.value.DoubleValue
-4.530

@<SCITEGIC>MOL_PROPERTY
W(SA)
SciTegic.value.DoubleValue
1.587

@<SCITEGIC>MOL_PROPERTY
Valence
SciTegic.value.DoubleValue
6.736

@<SCITEGIC>MOL_PROPERTY
Coulomb
SciTegic.value.DoubleValue
-7.246

@<SCITEGIC>MOL_PROPERTY
VdW
SciTegic.value.DoubleValue
1.352

@<SCITEGIC>MOL_PROPERTY
VdW6
SciTegic.value.DoubleValue
-2.500

@<SCITEGIC>MOL_PROPERTY
VdW12
SciTegic.value.DoubleValue
3.851

@<SCITEGIC>MOL_PROPERTY
Bond
SciTegic.value.DoubleValue
0.063

@<SCITEGIC>MOL_PROPERTY
Angle
SciTegic.value.DoubleValue
0.687

@<SCITEGIC>MOL_PROPERTY
Pdih
SciTegic.value.DoubleValue
5.986

@<SCITEGIC>MOL_PROPERTY
Idih
SciTegic.value.DoubleValue
0.000

@<SCITEGIC>MOL_PROPERTY
Tether
SciTegic.value.DoubleValue
0.000

@<TRIPOS>MOLECULE
guest-s16_confgen4.mol2 : confsearch ligand conformer 564
          13          13           1
SMALL
USER_CHARGES
 
@<TRIPOS>ATOM
       1    C1      20.122293   20.113788   22.605941 C.3        1 MOL1        -0.1693
       2    H1      20.930784   20.169969   23.346789 H          1 MOL1         0.0829
       3    H2      19.802693   21.133182   22.358731 H          1 MOL1         0.0829
       4    C2      18.981882   19.102374   22.957881 C.3        1 MOL1        -0.1768
       5    H3      18.764954   18.972127   24.023840 H          1 MOL1         0.0829
       6    H4      18.038346   19.273205   22.425015 H          1 MOL1         0.0829
       7    C3      19.908614   18.024219   22.319206 C.3        1 MOL1         0.1211
       8    H5      20.676002   17.636730   23.003064 H          1 MOL1         0.0786
       9    C4      20.412276   19.171021   21.391669 C.3        1 MOL1        -0.1768
      10    H6      19.788451   19.357196   20.508736 H          1 MOL1         0.0829
      11    H7      21.458603   19.101397   21.074424 H          1 MOL1         0.0829
      12    O1      19.245922   16.966812   21.667633 O.3        1 MOL1        -0.5515
      13    H8      18.577783   17.370819   21.075107 H          1 MOL1         0.3773
@<TRIPOS>BOND
    1     1     2    1
    2     1     3    1
    3     1     4    1
    4     4     5    1
    5     4     6    1
    6     4     7    1
    7     7     8    1
    8     1     9    1
    9     7     9    1
   10     9    10    1
   11     9    11    1
   12     7    12    1
   13    12    13    1
@<TRIPOS>SUBSTRUCTURE
       1 MOL1            1 RESIDUE      1      MOL     
@<SCITEGIC>MOL_PROPERTY
VConf Rank
SciTegic.value.IntegerValue
564

@<SCITEGIC>MOL_PROPERTY
Conf_Id
SciTegic.value.IntegerValue
24

@<SCITEGIC>MOL_PROPERTY
Delta U+W
SciTegic.value.DoubleValue
0.356

@<SCITEGIC>MOL_PROPERTY
U+W
SciTegic.value.DoubleValue
-2.775

@<SCITEGIC>MOL_PROPERTY
Grad RMS
SciTegic.value.DoubleValue
0.000000

@<SCITEGIC>MOL_PROPERTY
U
SciTegic.value.DoubleValue
-0.184

@<SCITEGIC>MOL_PROPERTY
W
SciTegic.value.DoubleValue
-2.591

@<SCITEGIC>MOL_PROPERTY
W(PB)
SciTegic.value.DoubleValue
-4.184

@<SCITEGIC>MOL_PROPERTY
W(SA)
SciTegic.value.DoubleValue
1.593

@<SCITEGIC>MOL_PROPERTY
Valence
SciTegic.value.DoubleValue
6.840

@<SCITEGIC>MOL_PROPERTY
Coulomb
SciTegic.value.DoubleValue
-7.916

@<SCITEGIC>MOL_PROPERTY
VdW
SciTegic.value.DoubleValue
0.893

@<SCITEGIC>MOL_PROPERTY
VdW6
SciTegic.value.DoubleValue
-2.167

@<SCITEGIC>MOL_PROPERTY
VdW12
SciTegic.value.DoubleValue
3.060

@<SCITEGIC>MOL_PROPERTY
Bond
SciTegic.value.DoubleValue
0.059

@<SCITEGIC>MOL_PROPERTY
Angle
SciTegic.value.DoubleValue
0.918

@<SCITEGIC>MOL_PROPERTY
Pdih
SciTegic.value.DoubleValue
5.862

@<SCITEGIC>MOL_PROPERTY
Idih
SciTegic.value.DoubleValue
0.000

@<SCITEGIC>MOL_PROPERTY
Tether
SciTegic.value.DoubleValue
0.000

@<TRIPOS>MOLECULE
guest-s16_confgen4.mol2 : confsearch ligand conformer 565
          13          13           1
SMALL
USER_CHARGES
 
@<TRIPOS>ATOM
       1    C1      19.405647   19.760662   21.461474 C.3        1 MOL1        -0.1693
       2    H1      18.734095   20.598443   21.238960 H          1 MOL1         0.0829
       3    H2      20.084598   19.625177   20.610025 H          1 MOL1         0.0829
       4    C2      18.718550   18.449713   21.970834 C.3        1 MOL1        -0.1768
       5    H3      17.794187   18.613309   22.538113 H          1 MOL1         0.0829
       6    H4      18.531852   17.677399   21.216259 H          1 MOL1         0.0829
       7    C3      19.982999   18.241904   22.860764 C.3        1 MOL1         0.1211
       8    H5      19.786286   17.794637   23.843486 H          1 MOL1         0.0786
       9    C4      20.104543   19.797289   22.861596 C.3        1 MOL1        -0.1768
      10    H6      19.520005   20.291292   23.647275 H          1 MOL1         0.0829
      11    H7      21.124232   20.197927   22.882352 H          1 MOL1         0.0829
      12    O1      21.047551   17.565658   22.227401 O.3        1 MOL1        -0.5515
      13    H8      21.177315   18.004561   21.361468 H          1 MOL1         0.3773
@<TRIPOS>BOND
    1     1     2    1
    2     1     3    1
    3     1     4    1
    4     4     5    1
    5     4     6    1
    6     4     7    1
    7     7     8    1
    8     1     9    1
    9     7     9    1
   10     9    10    1
   11     9    11    1
   12     7    12    1
   13    12    13    1
@<TRIPOS>SUBSTRUCTURE
       1 MOL1            1 RESIDUE      1      MOL     
@<SCITEGIC>MOL_PROPERTY
VConf Rank
SciTegic.value.IntegerValue
565

@<SCITEGIC>MOL_PROPERTY
Conf_Id
SciTegic.value.IntegerValue
44

@<SCITEGIC>MOL_PROPERTY
Delta U+W
SciTegic.value.DoubleValue
0.823

@<SCITEGIC>MOL_PROPERTY
U+W
SciTegic.value.DoubleValue
-2.308

@<SCITEGIC>MOL_PROPERTY
Grad RMS
SciTegic.value.DoubleValue
0.000000

@<SCITEGIC>MOL_PROPERTY
U
SciTegic.value.DoubleValue
0.039

@<SCITEGIC>MOL_PROPERTY
W
SciTegic.value.DoubleValue
-2.348

@<SCITEGIC>MOL_PROPERTY
W(PB)
SciTegic.value.DoubleValue
-3.918

@<SCITEGIC>MOL_PROPERTY
W(SA)
SciTegic.value.DoubleValue
1.571

@<SCITEGIC>MOL_PROPERTY
Valence
SciTegic.value.DoubleValue
7.320

@<SCITEGIC>MOL_PROPERTY
Coulomb
SciTegic.value.DoubleValue
-8.530

@<SCITEGIC>MOL_PROPERTY
VdW
SciTegic.value.DoubleValue
1.249

@<SCITEGIC>MOL_PROPERTY
VdW6
SciTegic.value.DoubleValue
-2.615

@<SCITEGIC>MOL_PROPERTY
VdW12
SciTegic.value.DoubleValue
3.864

@<SCITEGIC>MOL_PROPERTY
Bond
SciTegic.value.DoubleValue
0.056

@<SCITEGIC>MOL_PROPERTY
Angle
SciTegic.value.DoubleValue
0.694

@<SCITEGIC>MOL_PROPERTY
Pdih
SciTegic.value.DoubleValue
6.570

@<SCITEGIC>MOL_PROPERTY
Idih
SciTegic.value.DoubleValue
0.000

@<SCITEGIC>MOL_PROPERTY
Tether
SciTegic.value.DoubleValue
0.000

@<TRIPOS>MOLECULE
guest-s16_confgen4.mol2 : confsearch ligand conformer 566
          13          13           1
SMALL
USER_CHARGES
 
@<TRIPOS>ATOM
       1    C1      20.517102   20.052259   22.257847 C.3        1 MOL1        -0.1693
       2    H1      21.277709   19.975334   23.045975 H          1 MOL1         0.0829
       3    H2      20.722737   20.947201   21.658571 H          1 MOL1         0.0829
       4    C2      19.042851   19.880294   22.752135 C.3        1 MOL1        -0.1768
       5    H3      18.826265   20.242579   23.762977 H          1 MOL1         0.0829
       6    H4      18.279745   20.269444   22.066703 H          1 MOL1         0.0829
       7    C3      19.306501   18.349730   22.622870 C.3        1 MOL1         0.1211
       8    H5      19.813418   17.912570   23.494069 H          1 MOL1         0.0786
       9    C4      20.268120   18.731522   21.457229 C.3        1 MOL1        -0.1768
      10    H6      21.137381   18.078732   21.321501 H          1 MOL1         0.0829
      11    H7      19.775469   18.870091   20.486720 H          1 MOL1         0.0829
      12    O1      18.189261   17.575231   22.253450 O.3        1 MOL1        -0.5515
      13    H8      18.516170   16.672921   22.048097 H          1 MOL1         0.3773
@<TRIPOS>BOND
    1     1     2    1
    2     1     3    1
    3     1     4    1
    4     4     5    1
    5     4     6    1
    6     4     7    1
    7     7     8    1
    8     1     9    1
    9     7     9    1
   10     9    10    1
   11     9    11    1
   12     7    12    1
   13    12    13    1
@<TRIPOS>SUBSTRUCTURE
       1 MOL1            1 RESIDUE      1      MOL     
@<SCITEGIC>MOL_PROPERTY
VConf Rank
SciTegic.value.IntegerValue
566

@<SCITEGIC>MOL_PROPERTY
Conf_Id
SciTegic.value.IntegerValue
22

@<SCITEGIC>MOL_PROPERTY
Delta U+W
SciTegic.value.DoubleValue
0.000

@<SCITEGIC>MOL_PROPERTY
U+W
SciTegic.value.DoubleValue
-3.131

@<SCITEGIC>MOL_PROPERTY
Grad RMS
SciTegic.value.DoubleValue
0.000000

@<SCITEGIC>MOL_PROPERTY
U
SciTegic.value.DoubleValue
-0.154

@<SCITEGIC>MOL_PROPERTY
W
SciTegic.value.DoubleValue
-2.978

@<SCITEGIC>MOL_PROPERTY
W(PB)
SciTegic.value.DoubleValue
-4.579

@<SCITEGIC>MOL_PROPERTY
W(SA)
SciTegic.value.DoubleValue
1.601

@<SCITEGIC>MOL_PROPERTY
Valence
SciTegic.value.DoubleValue
6.333

@<SCITEGIC>MOL_PROPERTY
Coulomb
SciTegic.value.DoubleValue
-7.439

@<SCITEGIC>MOL_PROPERTY
VdW
SciTegic.value.DoubleValue
0.952

@<SCITEGIC>MOL_PROPERTY
VdW6
SciTegic.value.DoubleValue
-2.120

@<SCITEGIC>MOL_PROPERTY
VdW12
SciTegic.value.DoubleValue
3.072

@<SCITEGIC>MOL_PROPERTY
Bond
SciTegic.value.DoubleValue
0.065

@<SCITEGIC>MOL_PROPERTY
Angle
SciTegic.value.DoubleValue
0.931

@<SCITEGIC>MOL_PROPERTY
Pdih
SciTegic.value.DoubleValue
5.338

@<SCITEGIC>MOL_PROPERTY
Idih
SciTegic.value.DoubleValue
0.000

@<SCITEGIC>MOL_PROPERTY
Tether
SciTegic.value.DoubleValue
0.000

@<TRIPOS>MOLECULE
guest-s16_confgen4.mol2 : confsearch ligand conformer 567
          13          13           1
SMALL
USER_CHARGES
 
@<TRIPOS>ATOM
       1    C1      19.020475   19.965246   21.707477 C.3        1 MOL1        -0.1693
       2    H1      18.654408   19.777941   20.689391 H          1 MOL1         0.0829
       3    H2      18.811290   21.009495   21.968481 H          1 MOL1         0.0829
       4    C2      20.478113   19.467421   21.980956 C.3        1 MOL1        -0.1768
       5    H3      20.962719   19.925433   22.852263 H          1 MOL1         0.0829
       6    H4      21.168777   19.507682   21.131524 H          1 MOL1         0.0829
       7    C3      19.822429   18.081076   22.259025 C.3        1 MOL1         0.1211
       8    H5      19.622475   17.492642   21.353031 H          1 MOL1         0.0786
       9    C4      18.592503   18.894046   22.764205 C.3        1 MOL1        -0.1768
      10    H6      18.663533   19.223968   23.808088 H          1 MOL1         0.0829
      11    H7      17.614959   18.424814   22.608675 H          1 MOL1         0.0829
      12    O1      20.466293   17.294549   23.234404 O.3        1 MOL1        -0.5515
      13    H8      21.304124   16.970068   22.839491 H          1 MOL1         0.3773
@<TRIPOS>BOND
    1     1     2    1
    2     1     3    1
    3     1     4    1
    4     4     5    1
    5     4     6    1
    6     4     7    1
    7     7     8    1
    8     1     9    1
    9     7     9    1
   10     9    10    1
   11     9    11    1
   12     7    12    1
   13    12    13    1
@<TRIPOS>SUBSTRUCTURE
       1 MOL1            1 RESIDUE      1      MOL     
@<SCITEGIC>MOL_PROPERTY
VConf Rank
SciTegic.value.IntegerValue
567

@<SCITEGIC>MOL_PROPERTY
Conf_Id
SciTegic.value.IntegerValue
19

@<SCITEGIC>MOL_PROPERTY
Delta U+W
SciTegic.value.DoubleValue
-0.011

@<SCITEGIC>MOL_PROPERTY
U+W
SciTegic.value.DoubleValue
-3.142

@<SCITEGIC>MOL_PROPERTY
Grad RMS
SciTegic.value.DoubleValue
0.000000

@<SCITEGIC>MOL_PROPERTY
U
SciTegic.value.DoubleValue
-0.154

@<SCITEGIC>MOL_PROPERTY
W
SciTegic.value.DoubleValue
-2.989

@<SCITEGIC>MOL_PROPERTY
W(PB)
SciTegic.value.DoubleValue
-4.588

@<SCITEGIC>MOL_PROPERTY
W(SA)
SciTegic.value.DoubleValue
1.599

@<SCITEGIC>MOL_PROPERTY
Valence
SciTegic.value.DoubleValue
6.334

@<SCITEGIC>MOL_PROPERTY
Coulomb
SciTegic.value.DoubleValue
-7.439

@<SCITEGIC>MOL_PROPERTY
VdW
SciTegic.value.DoubleValue
0.951

@<SCITEGIC>MOL_PROPERTY
VdW6
SciTegic.value.DoubleValue
-2.120

@<SCITEGIC>MOL_PROPERTY
VdW12
SciTegic.value.DoubleValue
3.072

@<SCITEGIC>MOL_PROPERTY
Bond
SciTegic.value.DoubleValue
0.065

@<SCITEGIC>MOL_PROPERTY
Angle
SciTegic.value.DoubleValue
0.930

@<SCITEGIC>MOL_PROPERTY
Pdih
SciTegic.value.DoubleValue
5.339

@<SCITEGIC>MOL_PROPERTY
Idih
SciTegic.value.DoubleValue
0.000

@<SCITEGIC>MOL_PROPERTY
Tether
SciTegic.value.DoubleValue
0.000

@<TRIPOS>MOLECULE
guest-s16_confgen4.mol2 : confsearch ligand conformer 568
          13          13           1
SMALL
USER_CHARGES
 
@<TRIPOS>ATOM
       1    C1      18.619977   19.595670   22.726300 C.3        1 MOL1        -0.1693
       2    H1      17.955458   20.464108   22.647525 H          1 MOL1         0.0829
       3    H2      18.194113   18.892590   23.453985 H          1 MOL1         0.0829
       4    C2      20.138900   19.907853   22.936979 C.3        1 MOL1        -0.1768
       5    H3      20.479049   20.843788   22.477534 H          1 MOL1         0.0829
       6    H4      20.498001   19.874539   23.971547 H          1 MOL1         0.0829
       7    C3      20.422032   18.634908   22.079729 C.3        1 MOL1         0.1211
       8    H5      21.304125   18.707868   21.430575 H          1 MOL1         0.0786
       9    C4      19.064082   18.943596   21.374904 C.3        1 MOL1        -0.1768
      10    H6      18.484279   18.073329   21.048075 H          1 MOL1         0.0829
      11    H7      19.143144   19.646130   20.536353 H          1 MOL1         0.0829
      12    O1      20.455551   17.423327   22.807118 O.3        1 MOL1        -0.5515
      13    H8      20.462975   16.691991   22.153477 H          1 MOL1         0.3773
@<TRIPOS>BOND
    1     1     2    1
    2     1     3    1
    3     1     4    1
    4     4     5    1
    5     4     6    1
    6     4     7    1
    7     7     8    1
    8     1     9    1
    9     7     9    1
   10     9    10    1
   11     9    11    1
   12     7    12    1
   13    12    13    1
@<TRIPOS>SUBSTRUCTURE
       1 MOL1            1 RESIDUE      1      MOL     
@<SCITEGIC>MOL_PROPERTY
VConf Rank
SciTegic.value.IntegerValue
568

@<SCITEGIC>MOL_PROPERTY
Conf_Id
SciTegic.value.IntegerValue
20

@<SCITEGIC>MOL_PROPERTY
Delta U+W
SciTegic.value.DoubleValue
1.030

@<SCITEGIC>MOL_PROPERTY
U+W
SciTegic.value.DoubleValue
-2.101

@<SCITEGIC>MOL_PROPERTY
Grad RMS
SciTegic.value.DoubleValue
0.000000

@<SCITEGIC>MOL_PROPERTY
U
SciTegic.value.DoubleValue
0.841

@<SCITEGIC>MOL_PROPERTY
W
SciTegic.value.DoubleValue
-2.942

@<SCITEGIC>MOL_PROPERTY
W(PB)
SciTegic.value.DoubleValue
-4.530

@<SCITEGIC>MOL_PROPERTY
W(SA)
SciTegic.value.DoubleValue
1.587

@<SCITEGIC>MOL_PROPERTY
Valence
SciTegic.value.DoubleValue
6.736

@<SCITEGIC>MOL_PROPERTY
Coulomb
SciTegic.value.DoubleValue
-7.246

@<SCITEGIC>MOL_PROPERTY
VdW
SciTegic.value.DoubleValue
1.352

@<SCITEGIC>MOL_PROPERTY
VdW6
SciTegic.value.DoubleValue
-2.500

@<SCITEGIC>MOL_PROPERTY
VdW12
SciTegic.value.DoubleValue
3.851

@<SCITEGIC>MOL_PROPERTY
Bond
SciTegic.value.DoubleValue
0.063

@<SCITEGIC>MOL_PROPERTY
Angle
SciTegic.value.DoubleValue
0.687

@<SCITEGIC>MOL_PROPERTY
Pdih
SciTegic.value.DoubleValue
5.986

@<SCITEGIC>MOL_PROPERTY
Idih
SciTegic.value.DoubleValue
0.000

@<SCITEGIC>MOL_PROPERTY
Tether
SciTegic.value.DoubleValue
0.000

@<TRIPOS>MOLECULE
guest-s16_confgen4.mol2 : confsearch ligand conformer 569
          13          13           1
SMALL
USER_CHARGES
 
@<TRIPOS>ATOM
       1    C1      20.187447   19.887300   21.453031 C.3        1 MOL1        -0.1693
       2    H1      19.882459   20.918558   21.674748 H          1 MOL1         0.0829
       3    H2      20.842654   19.897481   20.573814 H          1 MOL1         0.0829
       4    C2      19.016235   18.850550   21.425297 C.3        1 MOL1        -0.1768
       5    H3      18.047227   19.226950   21.079410 H          1 MOL1         0.0829
       6    H4      19.242512   17.918854   20.892260 H          1 MOL1         0.0829
       7    C3      19.203125   18.782463   22.971128 C.3        1 MOL1         0.1211
       8    H5      18.687381   19.584455   23.516573 H          1 MOL1         0.0786
       9    C4      20.706739   19.079081   22.687727 C.3        1 MOL1        -0.1768
      10    H6      21.310865   18.198464   22.436858 H          1 MOL1         0.0829
      11    H7      21.230702   19.657305   23.456759 H          1 MOL1         0.0829
      12    O1      18.933994   17.531467   23.557980 O.3        1 MOL1        -0.5515
      13    H8      19.417263   16.859910   23.032451 H          1 MOL1         0.3773
@<TRIPOS>BOND
    1     1     2    1
    2     1     3    1
    3     1     4    1
    4     4     5    1
    5     4     6    1
    6     4     7    1
    7     7     8    1
    8     1     9    1
    9     7     9    1
   10     9    10    1
   11     9    11    1
   12     7    12    1
   13    12    13    1
@<TRIPOS>SUBSTRUCTURE
       1 MOL1            1 RESIDUE      1      MOL     
@<SCITEGIC>MOL_PROPERTY
VConf Rank
SciTegic.value.IntegerValue
569

@<SCITEGIC>MOL_PROPERTY
Conf_Id
SciTegic.value.IntegerValue
24

@<SCITEGIC>MOL_PROPERTY
Delta U+W
SciTegic.value.DoubleValue
0.356

@<SCITEGIC>MOL_PROPERTY
U+W
SciTegic.value.DoubleValue
-2.775

@<SCITEGIC>MOL_PROPERTY
Grad RMS
SciTegic.value.DoubleValue
0.000000

@<SCITEGIC>MOL_PROPERTY
U
SciTegic.value.DoubleValue
-0.184

@<SCITEGIC>MOL_PROPERTY
W
SciTegic.value.DoubleValue
-2.591

@<SCITEGIC>MOL_PROPERTY
W(PB)
SciTegic.value.DoubleValue
-4.184

@<SCITEGIC>MOL_PROPERTY
W(SA)
SciTegic.value.DoubleValue
1.593

@<SCITEGIC>MOL_PROPERTY
Valence
SciTegic.value.DoubleValue
6.840

@<SCITEGIC>MOL_PROPERTY
Coulomb
SciTegic.value.DoubleValue
-7.916

@<SCITEGIC>MOL_PROPERTY
VdW
SciTegic.value.DoubleValue
0.893

@<SCITEGIC>MOL_PROPERTY
VdW6
SciTegic.value.DoubleValue
-2.167

@<SCITEGIC>MOL_PROPERTY
VdW12
SciTegic.value.DoubleValue
3.060

@<SCITEGIC>MOL_PROPERTY
Bond
SciTegic.value.DoubleValue
0.059

@<SCITEGIC>MOL_PROPERTY
Angle
SciTegic.value.DoubleValue
0.918

@<SCITEGIC>MOL_PROPERTY
Pdih
SciTegic.value.DoubleValue
5.862

@<SCITEGIC>MOL_PROPERTY
Idih
SciTegic.value.DoubleValue
0.000

@<SCITEGIC>MOL_PROPERTY
Tether
SciTegic.value.DoubleValue
0.000

@<TRIPOS>MOLECULE
guest-s16_confgen4.mol2 : confsearch ligand conformer 570
          13          13           1
SMALL
USER_CHARGES
 
@<TRIPOS>ATOM
       1    C1      20.279371   19.245489   23.129495 C.3        1 MOL1        -0.1693
       2    H1      21.189083   19.717935   23.518842 H          1 MOL1         0.0829
       3    H2      19.683967   18.887551   23.979007 H          1 MOL1         0.0829
       4    C2      20.488300   18.198961   21.984390 C.3        1 MOL1        -0.1768
       5    H3      21.354735   18.397100   21.341703 H          1 MOL1         0.0829
       6    H4      20.514917   17.147031   22.290075 H          1 MOL1         0.0829
       7    C3      19.133294   18.704971   21.399663 C.3        1 MOL1         0.1211
       8    H5      19.084033   18.726825   20.303496 H          1 MOL1         0.0786
       9    C4      19.480302   20.071795   22.067025 C.3        1 MOL1        -0.1768
      10    H6      20.099592   20.729126   21.444600 H          1 MOL1         0.0829
      11    H7      18.629546   20.650009   22.444637 H          1 MOL1         0.0829
      12    O1      17.988323   18.065704   21.921300 O.3        1 MOL1        -0.5515
      13    H8      18.086396   18.075475   22.895775 H          1 MOL1         0.3773
@<TRIPOS>BOND
    1     1     2    1
    2     1     3    1
    3     1     4    1
    4     4     5    1
    5     4     6    1
    6     4     7    1
    7     7     8    1
    8     1     9    1
    9     7     9    1
   10     9    10    1
   11     9    11    1
   12     7    12    1
   13    12    13    1
@<TRIPOS>SUBSTRUCTURE
       1 MOL1            1 RESIDUE      1      MOL     
@<SCITEGIC>MOL_PROPERTY
VConf Rank
SciTegic.value.IntegerValue
570

@<SCITEGIC>MOL_PROPERTY
Conf_Id
SciTegic.value.IntegerValue
44

@<SCITEGIC>MOL_PROPERTY
Delta U+W
SciTegic.value.DoubleValue
0.823

@<SCITEGIC>MOL_PROPERTY
U+W
SciTegic.value.DoubleValue
-2.308

@<SCITEGIC>MOL_PROPERTY
Grad RMS
SciTegic.value.DoubleValue
0.000000

@<SCITEGIC>MOL_PROPERTY
U
SciTegic.value.DoubleValue
0.039

@<SCITEGIC>MOL_PROPERTY
W
SciTegic.value.DoubleValue
-2.348

@<SCITEGIC>MOL_PROPERTY
W(PB)
SciTegic.value.DoubleValue
-3.918

@<SCITEGIC>MOL_PROPERTY
W(SA)
SciTegic.value.DoubleValue
1.571

@<SCITEGIC>MOL_PROPERTY
Valence
SciTegic.value.DoubleValue
7.320

@<SCITEGIC>MOL_PROPERTY
Coulomb
SciTegic.value.DoubleValue
-8.530

@<SCITEGIC>MOL_PROPERTY
VdW
SciTegic.value.DoubleValue
1.249

@<SCITEGIC>MOL_PROPERTY
VdW6
SciTegic.value.DoubleValue
-2.615

@<SCITEGIC>MOL_PROPERTY
VdW12
SciTegic.value.DoubleValue
3.864

@<SCITEGIC>MOL_PROPERTY
Bond
SciTegic.value.DoubleValue
0.056

@<SCITEGIC>MOL_PROPERTY
Angle
SciTegic.value.DoubleValue
0.694

@<SCITEGIC>MOL_PROPERTY
Pdih
SciTegic.value.DoubleValue
6.570

@<SCITEGIC>MOL_PROPERTY
Idih
SciTegic.value.DoubleValue
0.000

@<SCITEGIC>MOL_PROPERTY
Tether
SciTegic.value.DoubleValue
0.000

@<TRIPOS>MOLECULE
guest-s16_confgen4.mol2 : confsearch ligand conformer 571
          13          13           1
SMALL
USER_CHARGES
 
@<TRIPOS>ATOM
       1    C1      20.277295   18.266863   21.372673 C.3        1 MOL1        -0.1693
       2    H1      21.004449   17.581835   21.828272 H          1 MOL1         0.0829
       3    H2      20.232503   18.064801   20.295871 H          1 MOL1         0.0829
       4    C2      20.444768   19.766952   21.783760 C.3        1 MOL1        -0.1768
       5    H3      21.468555   20.103022   21.980938 H          1 MOL1         0.0829
       6    H4      19.961185   20.485088   21.109955 H          1 MOL1         0.0829
       7    C3      19.601420   19.390819   23.039202 C.3        1 MOL1         0.1211
       8    H5      20.190867   18.941724   23.850330 H          1 MOL1         0.0786
       9    C4      18.902196   18.349511   22.114022 C.3        1 MOL1        -0.1768
      10    H6      18.561273   17.429722   22.601804 H          1 MOL1         0.0829
      11    H7      18.080252   18.755044   21.510908 H          1 MOL1         0.0829
      12    O1      18.768074   20.413474   23.533423 O.3        1 MOL1        -0.5515
      13    H8      18.179890   20.009051   24.206985 H          1 MOL1         0.3773
@<TRIPOS>BOND
    1     1     2    1
    2     1     3    1
    3     1     4    1
    4     4     5    1
    5     4     6    1
    6     4     7    1
    7     7     8    1
    8     1     9    1
    9     7     9    1
   10     9    10    1
   11     9    11    1
   12     7    12    1
   13    12    13    1
@<TRIPOS>SUBSTRUCTURE
       1 MOL1            1 RESIDUE      1      MOL     
@<SCITEGIC>MOL_PROPERTY
VConf Rank
SciTegic.value.IntegerValue
571

@<SCITEGIC>MOL_PROPERTY
Conf_Id
SciTegic.value.IntegerValue
22

@<SCITEGIC>MOL_PROPERTY
Delta U+W
SciTegic.value.DoubleValue
0.000

@<SCITEGIC>MOL_PROPERTY
U+W
SciTegic.value.DoubleValue
-3.131

@<SCITEGIC>MOL_PROPERTY
Grad RMS
SciTegic.value.DoubleValue
0.000000

@<SCITEGIC>MOL_PROPERTY
U
SciTegic.value.DoubleValue
-0.154

@<SCITEGIC>MOL_PROPERTY
W
SciTegic.value.DoubleValue
-2.978

@<SCITEGIC>MOL_PROPERTY
W(PB)
SciTegic.value.DoubleValue
-4.579

@<SCITEGIC>MOL_PROPERTY
W(SA)
SciTegic.value.DoubleValue
1.601

@<SCITEGIC>MOL_PROPERTY
Valence
SciTegic.value.DoubleValue
6.333

@<SCITEGIC>MOL_PROPERTY
Coulomb
SciTegic.value.DoubleValue
-7.439

@<SCITEGIC>MOL_PROPERTY
VdW
SciTegic.value.DoubleValue
0.952

@<SCITEGIC>MOL_PROPERTY
VdW6
SciTegic.value.DoubleValue
-2.120

@<SCITEGIC>MOL_PROPERTY
VdW12
SciTegic.value.DoubleValue
3.072

@<SCITEGIC>MOL_PROPERTY
Bond
SciTegic.value.DoubleValue
0.065

@<SCITEGIC>MOL_PROPERTY
Angle
SciTegic.value.DoubleValue
0.931

@<SCITEGIC>MOL_PROPERTY
Pdih
SciTegic.value.DoubleValue
5.338

@<SCITEGIC>MOL_PROPERTY
Idih
SciTegic.value.DoubleValue
0.000

@<SCITEGIC>MOL_PROPERTY
Tether
SciTegic.value.DoubleValue
0.000

@<TRIPOS>MOLECULE
guest-s16_confgen4.mol2 : confsearch ligand conformer 572
          13          13           1
SMALL
USER_CHARGES
 
@<TRIPOS>ATOM
       1    C1      18.647454   19.755189   21.947433 C.3        1 MOL1        -0.1693
       2    H1      18.987790   20.675974   21.455587 H          1 MOL1         0.0829
       3    H2      17.563025   19.818105   22.097079 H          1 MOL1         0.0829
       4    C2      19.489697   19.329796   23.195230 C.3        1 MOL1        -0.1768
       5    H3      18.984974   18.628132   23.871038 H          1 MOL1         0.0829
       6    H4      19.917803   20.145030   23.788771 H          1 MOL1         0.0829
       7    C3      20.450491   18.660453   22.166615 C.3        1 MOL1         0.1211
       8    H5      21.174709   19.353316   21.716603 H          1 MOL1         0.0786
       9    C4      19.175903   18.433190   21.299078 C.3        1 MOL1        -0.1768
      10    H6      18.604235   17.533432   21.558338 H          1 MOL1         0.0829
      11    H7      19.328131   18.453619   20.214472 H          1 MOL1         0.0829
      12    O1      21.091106   17.488406   22.614352 O.3        1 MOL1        -0.5515
      13    H8      21.766781   17.759739   23.272414 H          1 MOL1         0.3773
@<TRIPOS>BOND
    1     1     2    1
    2     1     3    1
    3     1     4    1
    4     4     5    1
    5     4     6    1
    6     4     7    1
    7     7     8    1
    8     1     9    1
    9     7     9    1
   10     9    10    1
   11     9    11    1
   12     7    12    1
   13    12    13    1
@<TRIPOS>SUBSTRUCTURE
       1 MOL1            1 RESIDUE      1      MOL     
@<SCITEGIC>MOL_PROPERTY
VConf Rank
SciTegic.value.IntegerValue
572

@<SCITEGIC>MOL_PROPERTY
Conf_Id
SciTegic.value.IntegerValue
19

@<SCITEGIC>MOL_PROPERTY
Delta U+W
SciTegic.value.DoubleValue
-0.011

@<SCITEGIC>MOL_PROPERTY
U+W
SciTegic.value.DoubleValue
-3.142

@<SCITEGIC>MOL_PROPERTY
Grad RMS
SciTegic.value.DoubleValue
0.000000

@<SCITEGIC>MOL_PROPERTY
U
SciTegic.value.DoubleValue
-0.154

@<SCITEGIC>MOL_PROPERTY
W
SciTegic.value.DoubleValue
-2.989

@<SCITEGIC>MOL_PROPERTY
W(PB)
SciTegic.value.DoubleValue
-4.588

@<SCITEGIC>MOL_PROPERTY
W(SA)
SciTegic.value.DoubleValue
1.599

@<SCITEGIC>MOL_PROPERTY
Valence
SciTegic.value.DoubleValue
6.334

@<SCITEGIC>MOL_PROPERTY
Coulomb
SciTegic.value.DoubleValue
-7.439

@<SCITEGIC>MOL_PROPERTY
VdW
SciTegic.value.DoubleValue
0.951

@<SCITEGIC>MOL_PROPERTY
VdW6
SciTegic.value.DoubleValue
-2.120

@<SCITEGIC>MOL_PROPERTY
VdW12
SciTegic.value.DoubleValue
3.072

@<SCITEGIC>MOL_PROPERTY
Bond
SciTegic.value.DoubleValue
0.065

@<SCITEGIC>MOL_PROPERTY
Angle
SciTegic.value.DoubleValue
0.930

@<SCITEGIC>MOL_PROPERTY
Pdih
SciTegic.value.DoubleValue
5.339

@<SCITEGIC>MOL_PROPERTY
Idih
SciTegic.value.DoubleValue
0.000

@<SCITEGIC>MOL_PROPERTY
Tether
SciTegic.value.DoubleValue
0.000

@<TRIPOS>MOLECULE
guest-s16_confgen4.mol2 : confsearch ligand conformer 573
          13          13           1
SMALL
USER_CHARGES
 
@<TRIPOS>ATOM
       1    C1      20.132296   19.581140   21.285501 C.3        1 MOL1        -0.1693
       2    H1      20.962985   19.547054   20.570820 H          1 MOL1         0.0829
       3    H2      19.426675   20.359429   20.966798 H          1 MOL1         0.0829
       4    C2      20.527737   19.643007   22.798370 C.3        1 MOL1        -0.1768
       5    H3      21.468145   19.135005   23.043995 H          1 MOL1         0.0829
       6    H4      20.539048   20.640075   23.252374 H          1 MOL1         0.0829
       7    C3      19.249965   18.789063   23.069493 C.3        1 MOL1         0.1211
       8    H5      19.352053   18.059197   23.882934 H          1 MOL1         0.0786
       9    C4      19.470259   18.207727   21.637845 C.3        1 MOL1        -0.1768
      10    H6      18.563255   17.954037   21.078079 H          1 MOL1         0.0829
      11    H7      20.154629   17.351401   21.601552 H          1 MOL1         0.0829
      12    O1      18.060411   19.534551   23.234875 O.3        1 MOL1        -0.5515
      13    H8      17.314228   18.898009   23.221464 H          1 MOL1         0.3773
@<TRIPOS>BOND
    1     1     2    1
    2     1     3    1
    3     1     4    1
    4     4     5    1
    5     4     6    1
    6     4     7    1
    7     7     8    1
    8     1     9    1
    9     7     9    1
   10     9    10    1
   11     9    11    1
   12     7    12    1
   13    12    13    1
@<TRIPOS>SUBSTRUCTURE
       1 MOL1            1 RESIDUE      1      MOL     
@<SCITEGIC>MOL_PROPERTY
VConf Rank
SciTegic.value.IntegerValue
573

@<SCITEGIC>MOL_PROPERTY
Conf_Id
SciTegic.value.IntegerValue
20

@<SCITEGIC>MOL_PROPERTY
Delta U+W
SciTegic.value.DoubleValue
1.030

@<SCITEGIC>MOL_PROPERTY
U+W
SciTegic.value.DoubleValue
-2.101

@<SCITEGIC>MOL_PROPERTY
Grad RMS
SciTegic.value.DoubleValue
0.000000

@<SCITEGIC>MOL_PROPERTY
U
SciTegic.value.DoubleValue
0.841

@<SCITEGIC>MOL_PROPERTY
W
SciTegic.value.DoubleValue
-2.942

@<SCITEGIC>MOL_PROPERTY
W(PB)
SciTegic.value.DoubleValue
-4.530

@<SCITEGIC>MOL_PROPERTY
W(SA)
SciTegic.value.DoubleValue
1.587

@<SCITEGIC>MOL_PROPERTY
Valence
SciTegic.value.DoubleValue
6.736

@<SCITEGIC>MOL_PROPERTY
Coulomb
SciTegic.value.DoubleValue
-7.246

@<SCITEGIC>MOL_PROPERTY
VdW
SciTegic.value.DoubleValue
1.352

@<SCITEGIC>MOL_PROPERTY
VdW6
SciTegic.value.DoubleValue
-2.500

@<SCITEGIC>MOL_PROPERTY
VdW12
SciTegic.value.DoubleValue
3.851

@<SCITEGIC>MOL_PROPERTY
Bond
SciTegic.value.DoubleValue
0.063

@<SCITEGIC>MOL_PROPERTY
Angle
SciTegic.value.DoubleValue
0.687

@<SCITEGIC>MOL_PROPERTY
Pdih
SciTegic.value.DoubleValue
5.986

@<SCITEGIC>MOL_PROPERTY
Idih
SciTegic.value.DoubleValue
0.000

@<SCITEGIC>MOL_PROPERTY
Tether
SciTegic.value.DoubleValue
0.000

@<TRIPOS>MOLECULE
guest-s16_confgen4.mol2 : confsearch ligand conformer 574
          13          13           1
SMALL
USER_CHARGES
 
@<TRIPOS>ATOM
       1    C1      20.996880   19.221483   22.302743 C.3        1 MOL1        -0.1693
       2    H1      21.661257   18.855767   21.508687 H          1 MOL1         0.0829
       3    H2      21.598745   19.768255   23.038420 H          1 MOL1         0.0829
       4    C2      20.014579   18.149013   22.879153 C.3        1 MOL1        -0.1768
       5    H3      20.384102   17.117820   22.898817 H          1 MOL1         0.0829
       6    H4      19.598261   18.392535   23.864427 H          1 MOL1         0.0829
       7    C3      19.099339   18.517014   21.672477 C.3        1 MOL1         0.1211
       8    H5      19.364076   17.999680   20.740289 H          1 MOL1         0.0786
       9    C4      19.707486   19.946873   21.794187 C.3        1 MOL1        -0.1768
      10    H6      19.222530   20.592240   22.536958 H          1 MOL1         0.0829
      11    H7      19.805797   20.503465   20.855661 H          1 MOL1         0.0829
      12    O1      17.715380   18.426255   21.913802 O.3        1 MOL1        -0.5515
      13    H8      17.540169   18.902439   22.752413 H          1 MOL1         0.3773
@<TRIPOS>BOND
    1     1     2    1
    2     1     3    1
    3     1     4    1
    4     4     5    1
    5     4     6    1
    6     4     7    1
    7     7     8    1
    8     1     9    1
    9     7     9    1
   10     9    10    1
   11     9    11    1
   12     7    12    1
   13    12    13    1
@<TRIPOS>SUBSTRUCTURE
       1 MOL1            1 RESIDUE      1      MOL     
@<SCITEGIC>MOL_PROPERTY
VConf Rank
SciTegic.value.IntegerValue
574

@<SCITEGIC>MOL_PROPERTY
Conf_Id
SciTegic.value.IntegerValue
24

@<SCITEGIC>MOL_PROPERTY
Delta U+W
SciTegic.value.DoubleValue
0.356

@<SCITEGIC>MOL_PROPERTY
U+W
SciTegic.value.DoubleValue
-2.775

@<SCITEGIC>MOL_PROPERTY
Grad RMS
SciTegic.value.DoubleValue
0.000000

@<SCITEGIC>MOL_PROPERTY
U
SciTegic.value.DoubleValue
-0.184

@<SCITEGIC>MOL_PROPERTY
W
SciTegic.value.DoubleValue
-2.591

@<SCITEGIC>MOL_PROPERTY
W(PB)
SciTegic.value.DoubleValue
-4.184

@<SCITEGIC>MOL_PROPERTY
W(SA)
SciTegic.value.DoubleValue
1.593

@<SCITEGIC>MOL_PROPERTY
Valence
SciTegic.value.DoubleValue
6.840

@<SCITEGIC>MOL_PROPERTY
Coulomb
SciTegic.value.DoubleValue
-7.916

@<SCITEGIC>MOL_PROPERTY
VdW
SciTegic.value.DoubleValue
0.893

@<SCITEGIC>MOL_PROPERTY
VdW6
SciTegic.value.DoubleValue
-2.167

@<SCITEGIC>MOL_PROPERTY
VdW12
SciTegic.value.DoubleValue
3.060

@<SCITEGIC>MOL_PROPERTY
Bond
SciTegic.value.DoubleValue
0.059

@<SCITEGIC>MOL_PROPERTY
Angle
SciTegic.value.DoubleValue
0.918

@<SCITEGIC>MOL_PROPERTY
Pdih
SciTegic.value.DoubleValue
5.862

@<SCITEGIC>MOL_PROPERTY
Idih
SciTegic.value.DoubleValue
0.000

@<SCITEGIC>MOL_PROPERTY
Tether
SciTegic.value.DoubleValue
0.000

@<TRIPOS>MOLECULE
guest-s16_confgen4.mol2 : confsearch ligand conformer 575
          13          13           1
SMALL
USER_CHARGES
 
@<TRIPOS>ATOM
       1    C1      19.624040   20.032841   21.844675 C.3        1 MOL1        -0.1693
       2    H1      19.286416   21.050792   22.073057 H          1 MOL1         0.0829
       3    H2      20.089772   20.036947   20.851009 H          1 MOL1         0.0829
       4    C2      18.573206   18.895740   22.074641 C.3        1 MOL1        -0.1768
       5    H3      17.855466   19.097662   22.879062 H          1 MOL1         0.0829
       6    H4      18.019535   18.563191   21.189447 H          1 MOL1         0.0829
       7    C3      19.774714   17.998113   22.504334 C.3        1 MOL1         0.1211
       8    H5      19.554725   17.290398   23.313798 H          1 MOL1         0.0786
       9    C4      20.460606   19.322870   22.961024 C.3        1 MOL1        -0.1768
      10    H6      20.205629   19.629519   23.982772 H          1 MOL1         0.0829
      11    H7      21.549755   19.362103   22.847352 H          1 MOL1         0.0829
      12    O1      20.423866   17.331010   21.443531 O.3        1 MOL1        -0.5515
      13    H8      20.594129   18.006785   20.755307 H          1 MOL1         0.3773
@<TRIPOS>BOND
    1     1     2    1
    2     1     3    1
    3     1     4    1
    4     4     5    1
    5     4     6    1
    6     4     7    1
    7     7     8    1
    8     1     9    1
    9     7     9    1
   10     9    10    1
   11     9    11    1
   12     7    12    1
   13    12    13    1
@<TRIPOS>SUBSTRUCTURE
       1 MOL1            1 RESIDUE      1      MOL     
@<SCITEGIC>MOL_PROPERTY
VConf Rank
SciTegic.value.IntegerValue
575

@<SCITEGIC>MOL_PROPERTY
Conf_Id
SciTegic.value.IntegerValue
44

@<SCITEGIC>MOL_PROPERTY
Delta U+W
SciTegic.value.DoubleValue
0.823

@<SCITEGIC>MOL_PROPERTY
U+W
SciTegic.value.DoubleValue
-2.308

@<SCITEGIC>MOL_PROPERTY
Grad RMS
SciTegic.value.DoubleValue
0.000000

@<SCITEGIC>MOL_PROPERTY
U
SciTegic.value.DoubleValue
0.039

@<SCITEGIC>MOL_PROPERTY
W
SciTegic.value.DoubleValue
-2.348

@<SCITEGIC>MOL_PROPERTY
W(PB)
SciTegic.value.DoubleValue
-3.918

@<SCITEGIC>MOL_PROPERTY
W(SA)
SciTegic.value.DoubleValue
1.571

@<SCITEGIC>MOL_PROPERTY
Valence
SciTegic.value.DoubleValue
7.320

@<SCITEGIC>MOL_PROPERTY
Coulomb
SciTegic.value.DoubleValue
-8.530

@<SCITEGIC>MOL_PROPERTY
VdW
SciTegic.value.DoubleValue
1.249

@<SCITEGIC>MOL_PROPERTY
VdW6
SciTegic.value.DoubleValue
-2.615

@<SCITEGIC>MOL_PROPERTY
VdW12
SciTegic.value.DoubleValue
3.864

@<SCITEGIC>MOL_PROPERTY
Bond
SciTegic.value.DoubleValue
0.056

@<SCITEGIC>MOL_PROPERTY
Angle
SciTegic.value.DoubleValue
0.694

@<SCITEGIC>MOL_PROPERTY
Pdih
SciTegic.value.DoubleValue
6.570

@<SCITEGIC>MOL_PROPERTY
Idih
SciTegic.value.DoubleValue
0.000

@<SCITEGIC>MOL_PROPERTY
Tether
SciTegic.value.DoubleValue
0.000

@<TRIPOS>MOLECULE
guest-s16_confgen4.mol2 : confsearch ligand conformer 576
          13          13           1
SMALL
USER_CHARGES
 
@<TRIPOS>ATOM
       1    C1      20.600978   18.312945   21.668331 C.3        1 MOL1        -0.1693
       2    H1      20.322161   17.257050   21.554610 H          1 MOL1         0.0829
       3    H2      21.583644   18.467524   21.207015 H          1 MOL1         0.0829
       4    C2      20.422909   18.884815   23.113517 C.3        1 MOL1        -0.1768
       5    H3      20.588032   18.180528   23.936119 H          1 MOL1         0.0829
       6    H4      20.986662   19.803688   23.317090 H          1 MOL1         0.0829
       7    C3      18.936085   19.116187   22.707721 C.3        1 MOL1         0.1211
       8    H5      18.303680   18.224287   22.815609 H          1 MOL1         0.0786
       9    C4      19.484608   19.331902   21.264883 C.3        1 MOL1        -0.1768
      10    H6      18.820915   19.022498   20.450050 H          1 MOL1         0.0829
      11    H7      19.844023   20.348312   21.061100 H          1 MOL1         0.0829
      12    O1      18.320034   20.239973   23.292642 O.3        1 MOL1        -0.5515
      13    H8      17.458998   20.368199   22.839456 H          1 MOL1         0.3773
@<TRIPOS>BOND
    1     1     2    1
    2     1     3    1
    3     1     4    1
    4     4     5    1
    5     4     6    1
    6     4     7    1
    7     7     8    1
    8     1     9    1
    9     7     9    1
   10     9    10    1
   11     9    11    1
   12     7    12    1
   13    12    13    1
@<TRIPOS>SUBSTRUCTURE
       1 MOL1            1 RESIDUE      1      MOL     
@<SCITEGIC>MOL_PROPERTY
VConf Rank
SciTegic.value.IntegerValue
576

@<SCITEGIC>MOL_PROPERTY
Conf_Id
SciTegic.value.IntegerValue
22

@<SCITEGIC>MOL_PROPERTY
Delta U+W
SciTegic.value.DoubleValue
0.000

@<SCITEGIC>MOL_PROPERTY
U+W
SciTegic.value.DoubleValue
-3.131

@<SCITEGIC>MOL_PROPERTY
Grad RMS
SciTegic.value.DoubleValue
0.000000

@<SCITEGIC>MOL_PROPERTY
U
SciTegic.value.DoubleValue
-0.154

@<SCITEGIC>MOL_PROPERTY
W
SciTegic.value.DoubleValue
-2.978

@<SCITEGIC>MOL_PROPERTY
W(PB)
SciTegic.value.DoubleValue
-4.579

@<SCITEGIC>MOL_PROPERTY
W(SA)
SciTegic.value.DoubleValue
1.601

@<SCITEGIC>MOL_PROPERTY
Valence
SciTegic.value.DoubleValue
6.333

@<SCITEGIC>MOL_PROPERTY
Coulomb
SciTegic.value.DoubleValue
-7.439

@<SCITEGIC>MOL_PROPERTY
VdW
SciTegic.value.DoubleValue
0.952

@<SCITEGIC>MOL_PROPERTY
VdW6
SciTegic.value.DoubleValue
-2.120

@<SCITEGIC>MOL_PROPERTY
VdW12
SciTegic.value.DoubleValue
3.072

@<SCITEGIC>MOL_PROPERTY
Bond
SciTegic.value.DoubleValue
0.065

@<SCITEGIC>MOL_PROPERTY
Angle
SciTegic.value.DoubleValue
0.931

@<SCITEGIC>MOL_PROPERTY
Pdih
SciTegic.value.DoubleValue
5.338

@<SCITEGIC>MOL_PROPERTY
Idih
SciTegic.value.DoubleValue
0.000

@<SCITEGIC>MOL_PROPERTY
Tether
SciTegic.value.DoubleValue
0.000

@<TRIPOS>MOLECULE
guest-s16_confgen4.mol2 : confsearch ligand conformer 577
          13          13           1
SMALL
USER_CHARGES
 
@<TRIPOS>ATOM
       1    C1      18.986168   18.545214   21.158361 C.3        1 MOL1        -0.1693
       2    H1      18.038453   19.077373   21.002710 H          1 MOL1         0.0829
       3    H2      19.100398   17.794340   20.367489 H          1 MOL1         0.0829
       4    C2      19.222782   18.043790   22.621207 C.3        1 MOL1        -0.1768
       5    H3      19.975895   17.251779   22.717817 H          1 MOL1         0.0829
       6    H4      18.328050   17.749868   23.180883 H          1 MOL1         0.0829
       7    C3      19.756208   19.481806   22.898265 C.3        1 MOL1         0.1211
       8    H5      18.967520   20.216947   23.109454 H          1 MOL1         0.0786
       9    C4      20.222220   19.470192   21.411139 C.3        1 MOL1        -0.1768
      10    H6      21.195668   18.992759   21.243688 H          1 MOL1         0.0829
      11    H7      20.212976   20.439825   20.901543 H          1 MOL1         0.0829
      12    O1      20.789043   19.568149   23.852385 O.3        1 MOL1        -0.5515
      13    H8      20.386718   19.402341   24.732070 H          1 MOL1         0.3773
@<TRIPOS>BOND
    1     1     2    1
    2     1     3    1
    3     1     4    1
    4     4     5    1
    5     4     6    1
    6     4     7    1
    7     7     8    1
    8     1     9    1
    9     7     9    1
   10     9    10    1
   11     9    11    1
   12     7    12    1
   13    12    13    1
@<TRIPOS>SUBSTRUCTURE
       1 MOL1            1 RESIDUE      1      MOL     
@<SCITEGIC>MOL_PROPERTY
VConf Rank
SciTegic.value.IntegerValue
577

@<SCITEGIC>MOL_PROPERTY
Conf_Id
SciTegic.value.IntegerValue
19

@<SCITEGIC>MOL_PROPERTY
Delta U+W
SciTegic.value.DoubleValue
-0.011

@<SCITEGIC>MOL_PROPERTY
U+W
SciTegic.value.DoubleValue
-3.142

@<SCITEGIC>MOL_PROPERTY
Grad RMS
SciTegic.value.DoubleValue
0.000000

@<SCITEGIC>MOL_PROPERTY
U
SciTegic.value.DoubleValue
-0.154

@<SCITEGIC>MOL_PROPERTY
W
SciTegic.value.DoubleValue
-2.989

@<SCITEGIC>MOL_PROPERTY
W(PB)
SciTegic.value.DoubleValue
-4.588

@<SCITEGIC>MOL_PROPERTY
W(SA)
SciTegic.value.DoubleValue
1.599

@<SCITEGIC>MOL_PROPERTY
Valence
SciTegic.value.DoubleValue
6.334

@<SCITEGIC>MOL_PROPERTY
Coulomb
SciTegic.value.DoubleValue
-7.439

@<SCITEGIC>MOL_PROPERTY
VdW
SciTegic.value.DoubleValue
0.951

@<SCITEGIC>MOL_PROPERTY
VdW6
SciTegic.value.DoubleValue
-2.120

@<SCITEGIC>MOL_PROPERTY
VdW12
SciTegic.value.DoubleValue
3.072

@<SCITEGIC>MOL_PROPERTY
Bond
SciTegic.value.DoubleValue
0.065

@<SCITEGIC>MOL_PROPERTY
Angle
SciTegic.value.DoubleValue
0.930

@<SCITEGIC>MOL_PROPERTY
Pdih
SciTegic.value.DoubleValue
5.339

@<SCITEGIC>MOL_PROPERTY
Idih
SciTegic.value.DoubleValue
0.000

@<SCITEGIC>MOL_PROPERTY
Tether
SciTegic.value.DoubleValue
0.000

@<TRIPOS>MOLECULE
guest-s16_confgen4.mol2 : confsearch ligand conformer 578
          13          13           1
SMALL
USER_CHARGES
 
@<TRIPOS>ATOM
       1    C1      18.950818   18.088925   21.931111 C.3        1 MOL1        -0.1693
       2    H1      18.939225   17.158260   21.351709 H          1 MOL1         0.0829
       3    H2      17.994540   18.183992   22.461866 H          1 MOL1         0.0829
       4    C2      19.395704   19.375252   21.158834 C.3        1 MOL1        -0.1768
       5    H3      20.122000   19.196121   20.356855 H          1 MOL1         0.0829
       6    H4      18.588877   20.004379   20.766888 H          1 MOL1         0.0829
       7    C3      20.031487   19.847638   22.503476 C.3        1 MOL1         0.1211
       8    H5      20.967019   20.411144   22.393688 H          1 MOL1         0.0786
       9    C4      20.215299   18.330516   22.820730 C.3        1 MOL1        -0.1768
      10    H6      20.122621   18.045945   23.874666 H          1 MOL1         0.0829
      11    H7      21.140538   17.897398   22.421585 H          1 MOL1         0.0829
      12    O1      19.150612   20.536229   23.368373 O.3        1 MOL1        -0.5515
      13    H8      19.602947   20.623897   24.234319 H          1 MOL1         0.3773
@<TRIPOS>BOND
    1     1     2    1
    2     1     3    1
    3     1     4    1
    4     4     5    1
    5     4     6    1
    6     4     7    1
    7     7     8    1
    8     1     9    1
    9     7     9    1
   10     9    10    1
   11     9    11    1
   12     7    12    1
   13    12    13    1
@<TRIPOS>SUBSTRUCTURE
       1 MOL1            1 RESIDUE      1      MOL     
@<SCITEGIC>MOL_PROPERTY
VConf Rank
SciTegic.value.IntegerValue
578

@<SCITEGIC>MOL_PROPERTY
Conf_Id
SciTegic.value.IntegerValue
20

@<SCITEGIC>MOL_PROPERTY
Delta U+W
SciTegic.value.DoubleValue
1.030

@<SCITEGIC>MOL_PROPERTY
U+W
SciTegic.value.DoubleValue
-2.101

@<SCITEGIC>MOL_PROPERTY
Grad RMS
SciTegic.value.DoubleValue
0.000000

@<SCITEGIC>MOL_PROPERTY
U
SciTegic.value.DoubleValue
0.841

@<SCITEGIC>MOL_PROPERTY
W
SciTegic.value.DoubleValue
-2.942

@<SCITEGIC>MOL_PROPERTY
W(PB)
SciTegic.value.DoubleValue
-4.530

@<SCITEGIC>MOL_PROPERTY
W(SA)
SciTegic.value.DoubleValue
1.587

@<SCITEGIC>MOL_PROPERTY
Valence
SciTegic.value.DoubleValue
6.736

@<SCITEGIC>MOL_PROPERTY
Coulomb
SciTegic.value.DoubleValue
-7.246

@<SCITEGIC>MOL_PROPERTY
VdW
SciTegic.value.DoubleValue
1.352

@<SCITEGIC>MOL_PROPERTY
VdW6
SciTegic.value.DoubleValue
-2.500

@<SCITEGIC>MOL_PROPERTY
VdW12
SciTegic.value.DoubleValue
3.851

@<SCITEGIC>MOL_PROPERTY
Bond
SciTegic.value.DoubleValue
0.063

@<SCITEGIC>MOL_PROPERTY
Angle
SciTegic.value.DoubleValue
0.687

@<SCITEGIC>MOL_PROPERTY
Pdih
SciTegic.value.DoubleValue
5.986

@<SCITEGIC>MOL_PROPERTY
Idih
SciTegic.value.DoubleValue
0.000

@<SCITEGIC>MOL_PROPERTY
Tether
SciTegic.value.DoubleValue
0.000

@<TRIPOS>MOLECULE
guest-s16_confgen4.mol2 : confsearch ligand conformer 579
          13          13           1
SMALL
USER_CHARGES
 
@<TRIPOS>ATOM
       1    C1      19.905679   17.702904   21.979610 C.3        1 MOL1        -0.1693
       2    H1      19.632413   16.992727   22.771218 H          1 MOL1         0.0829
       3    H2      20.276097   17.138377   21.115596 H          1 MOL1         0.0829
       4    C2      20.796860   18.898462   22.452681 C.3        1 MOL1        -0.1768
       5    H3      21.495187   18.685583   23.269574 H          1 MOL1         0.0829
       6    H4      21.340847   19.409668   21.648856 H          1 MOL1         0.0829
       7    C3      19.455249   19.574244   22.868077 C.3        1 MOL1         0.1211
       8    H5      19.084826   19.257896   23.852661 H          1 MOL1         0.0786
       9    C4      18.824541   18.792231   21.676517 C.3        1 MOL1        -0.1768
      10    H6      18.927690   19.279693   20.699210 H          1 MOL1         0.0829
      11    H7      17.781009   18.485536   21.807939 H          1 MOL1         0.0829
      12    O1      19.424461   20.977072   22.754310 O.3        1 MOL1        -0.5515
      13    H8      19.763744   21.198447   21.861786 H          1 MOL1         0.3773
@<TRIPOS>BOND
    1     1     2    1
    2     1     3    1
    3     1     4    1
    4     4     5    1
    5     4     6    1
    6     4     7    1
    7     7     8    1
    8     1     9    1
    9     7     9    1
   10     9    10    1
   11     9    11    1
   12     7    12    1
   13    12    13    1
@<TRIPOS>SUBSTRUCTURE
       1 MOL1            1 RESIDUE      1      MOL     
@<SCITEGIC>MOL_PROPERTY
VConf Rank
SciTegic.value.IntegerValue
579

@<SCITEGIC>MOL_PROPERTY
Conf_Id
SciTegic.value.IntegerValue
24

@<SCITEGIC>MOL_PROPERTY
Delta U+W
SciTegic.value.DoubleValue
0.356

@<SCITEGIC>MOL_PROPERTY
U+W
SciTegic.value.DoubleValue
-2.775

@<SCITEGIC>MOL_PROPERTY
Grad RMS
SciTegic.value.DoubleValue
0.000000

@<SCITEGIC>MOL_PROPERTY
U
SciTegic.value.DoubleValue
-0.184

@<SCITEGIC>MOL_PROPERTY
W
SciTegic.value.DoubleValue
-2.591

@<SCITEGIC>MOL_PROPERTY
W(PB)
SciTegic.value.DoubleValue
-4.184

@<SCITEGIC>MOL_PROPERTY
W(SA)
SciTegic.value.DoubleValue
1.593

@<SCITEGIC>MOL_PROPERTY
Valence
SciTegic.value.DoubleValue
6.840

@<SCITEGIC>MOL_PROPERTY
Coulomb
SciTegic.value.DoubleValue
-7.916

@<SCITEGIC>MOL_PROPERTY
VdW
SciTegic.value.DoubleValue
0.893

@<SCITEGIC>MOL_PROPERTY
VdW6
SciTegic.value.DoubleValue
-2.167

@<SCITEGIC>MOL_PROPERTY
VdW12
SciTegic.value.DoubleValue
3.060

@<SCITEGIC>MOL_PROPERTY
Bond
SciTegic.value.DoubleValue
0.059

@<SCITEGIC>MOL_PROPERTY
Angle
SciTegic.value.DoubleValue
0.918

@<SCITEGIC>MOL_PROPERTY
Pdih
SciTegic.value.DoubleValue
5.862

@<SCITEGIC>MOL_PROPERTY
Idih
SciTegic.value.DoubleValue
0.000

@<SCITEGIC>MOL_PROPERTY
Tether
SciTegic.value.DoubleValue
0.000

@<TRIPOS>MOLECULE
guest-s16_confgen4.mol2 : confsearch ligand conformer 580
          13          13           1
SMALL
USER_CHARGES
 
@<TRIPOS>ATOM
       1    C1      19.814622   19.904755   22.824581 C.3        1 MOL1        -0.1693
       2    H1      19.367377   20.554573   23.586213 H          1 MOL1         0.0829
       3    H2      20.783037   20.329812   22.531672 H          1 MOL1         0.0829
       4    C2      18.882428   19.506675   21.631818 C.3        1 MOL1        -0.1768
       5    H3      17.818163   19.444036   21.889562 H          1 MOL1         0.0829
       6    H4      18.984884   20.103327   20.718462 H          1 MOL1         0.0829
       7    C3      19.619787   18.131798   21.634358 C.3        1 MOL1         0.1211
       8    H5      18.986210   17.268775   21.392988 H          1 MOL1         0.0786
       9    C4      19.840772   18.375903   23.159340 C.3        1 MOL1        -0.1768
      10    H6      19.011480   18.036016   23.791611 H          1 MOL1         0.0829
      11    H7      20.777383   17.988315   23.575565 H          1 MOL1         0.0829
      12    O1      20.801688   18.092941   20.864081 O.3        1 MOL1        -0.5515
      13    H8      21.324025   18.881044   21.119759 H          1 MOL1         0.3773
@<TRIPOS>BOND
    1     1     2    1
    2     1     3    1
    3     1     4    1
    4     4     5    1
    5     4     6    1
    6     4     7    1
    7     7     8    1
    8     1     9    1
    9     7     9    1
   10     9    10    1
   11     9    11    1
   12     7    12    1
   13    12    13    1
@<TRIPOS>SUBSTRUCTURE
       1 MOL1            1 RESIDUE      1      MOL     
@<SCITEGIC>MOL_PROPERTY
VConf Rank
SciTegic.value.IntegerValue
580

@<SCITEGIC>MOL_PROPERTY
Conf_Id
SciTegic.value.IntegerValue
44

@<SCITEGIC>MOL_PROPERTY
Delta U+W
SciTegic.value.DoubleValue
0.823

@<SCITEGIC>MOL_PROPERTY
U+W
SciTegic.value.DoubleValue
-2.308

@<SCITEGIC>MOL_PROPERTY
Grad RMS
SciTegic.value.DoubleValue
0.000000

@<SCITEGIC>MOL_PROPERTY
U
SciTegic.value.DoubleValue
0.039

@<SCITEGIC>MOL_PROPERTY
W
SciTegic.value.DoubleValue
-2.348

@<SCITEGIC>MOL_PROPERTY
W(PB)
SciTegic.value.DoubleValue
-3.918

@<SCITEGIC>MOL_PROPERTY
W(SA)
SciTegic.value.DoubleValue
1.571

@<SCITEGIC>MOL_PROPERTY
Valence
SciTegic.value.DoubleValue
7.320

@<SCITEGIC>MOL_PROPERTY
Coulomb
SciTegic.value.DoubleValue
-8.530

@<SCITEGIC>MOL_PROPERTY
VdW
SciTegic.value.DoubleValue
1.249

@<SCITEGIC>MOL_PROPERTY
VdW6
SciTegic.value.DoubleValue
-2.615

@<SCITEGIC>MOL_PROPERTY
VdW12
SciTegic.value.DoubleValue
3.864

@<SCITEGIC>MOL_PROPERTY
Bond
SciTegic.value.DoubleValue
0.056

@<SCITEGIC>MOL_PROPERTY
Angle
SciTegic.value.DoubleValue
0.694

@<SCITEGIC>MOL_PROPERTY
Pdih
SciTegic.value.DoubleValue
6.570

@<SCITEGIC>MOL_PROPERTY
Idih
SciTegic.value.DoubleValue
0.000

@<SCITEGIC>MOL_PROPERTY
Tether
SciTegic.value.DoubleValue
0.000

@<TRIPOS>MOLECULE
guest-s16_confgen4.mol2 : confsearch ligand conformer 581
          13          13           1
SMALL
USER_CHARGES
 
@<TRIPOS>ATOM
       1    C1      18.564985   18.732904   22.904423 C.3        1 MOL1        -0.1693
       2    H1      18.613049   17.755106   23.401603 H          1 MOL1         0.0829
       3    H2      17.604598   19.202842   23.147639 H          1 MOL1         0.0829
       4    C2      18.958215   18.717221   21.390345 C.3        1 MOL1        -0.1768
       5    H3      18.711143   17.805364   20.835880 H          1 MOL1         0.0829
       6    H4      18.610299   19.584740   20.815933 H          1 MOL1         0.0829
       7    C3      20.428365   18.825351   21.896124 C.3        1 MOL1         0.1211
       8    H5      20.870883   17.860811   22.180561 H          1 MOL1         0.0786
       9    C4      19.834814   19.626751   23.093892 C.3        1 MOL1        -0.1768
      10    H6      20.361729   19.519860   24.048411 H          1 MOL1         0.0829
      11    H7      19.677497   20.694192   22.894858 H          1 MOL1         0.0829
      12    O1      21.301201   19.549069   21.060101 O.3        1 MOL1        -0.5515
      13    H8      22.135950   19.683695   21.558372 H          1 MOL1         0.3773
@<TRIPOS>BOND
    1     1     2    1
    2     1     3    1
    3     1     4    1
    4     4     5    1
    5     4     6    1
    6     4     7    1
    7     7     8    1
    8     1     9    1
    9     7     9    1
   10     9    10    1
   11     9    11    1
   12     7    12    1
   13    12    13    1
@<TRIPOS>SUBSTRUCTURE
       1 MOL1            1 RESIDUE      1      MOL     
@<SCITEGIC>MOL_PROPERTY
VConf Rank
SciTegic.value.IntegerValue
581

@<SCITEGIC>MOL_PROPERTY
Conf_Id
SciTegic.value.IntegerValue
22

@<SCITEGIC>MOL_PROPERTY
Delta U+W
SciTegic.value.DoubleValue
0.000

@<SCITEGIC>MOL_PROPERTY
U+W
SciTegic.value.DoubleValue
-3.131

@<SCITEGIC>MOL_PROPERTY
Grad RMS
SciTegic.value.DoubleValue
0.000000

@<SCITEGIC>MOL_PROPERTY
U
SciTegic.value.DoubleValue
-0.154

@<SCITEGIC>MOL_PROPERTY
W
SciTegic.value.DoubleValue
-2.978

@<SCITEGIC>MOL_PROPERTY
W(PB)
SciTegic.value.DoubleValue
-4.579

@<SCITEGIC>MOL_PROPERTY
W(SA)
SciTegic.value.DoubleValue
1.601

@<SCITEGIC>MOL_PROPERTY
Valence
SciTegic.value.DoubleValue
6.333

@<SCITEGIC>MOL_PROPERTY
Coulomb
SciTegic.value.DoubleValue
-7.439

@<SCITEGIC>MOL_PROPERTY
VdW
SciTegic.value.DoubleValue
0.952

@<SCITEGIC>MOL_PROPERTY
VdW6
SciTegic.value.DoubleValue
-2.120

@<SCITEGIC>MOL_PROPERTY
VdW12
SciTegic.value.DoubleValue
3.072

@<SCITEGIC>MOL_PROPERTY
Bond
SciTegic.value.DoubleValue
0.065

@<SCITEGIC>MOL_PROPERTY
Angle
SciTegic.value.DoubleValue
0.931

@<SCITEGIC>MOL_PROPERTY
Pdih
SciTegic.value.DoubleValue
5.338

@<SCITEGIC>MOL_PROPERTY
Idih
SciTegic.value.DoubleValue
0.000

@<SCITEGIC>MOL_PROPERTY
Tether
SciTegic.value.DoubleValue
0.000

@<TRIPOS>MOLECULE
guest-s16_confgen4.mol2 : confsearch ligand conformer 582
          13          13           1
SMALL
USER_CHARGES
 
@<TRIPOS>ATOM
       1    C1      20.901796   18.639820   22.044514 C.3        1 MOL1        -0.1693
       2    H1      21.587110   19.246532   22.651005 H          1 MOL1         0.0829
       3    H2      21.494875   17.988551   21.391488 H          1 MOL1         0.0829
       4    C2      19.753076   19.444923   21.351997 C.3        1 MOL1        -0.1768
       5    H3      19.277365   18.930223   20.507854 H          1 MOL1         0.0829
       6    H4      19.996971   20.468951   21.048594 H          1 MOL1         0.0829
       7    C3      18.998405   19.298989   22.707862 C.3        1 MOL1         0.1211
       8    H5      19.283934   20.047321   23.459882 H          1 MOL1         0.0786
       9    C4      19.755613   17.944335   22.850660 C.3        1 MOL1        -0.1768
      10    H6      19.278493   17.100667   22.336688 H          1 MOL1         0.0829
      11    H7      19.999744   17.640784   23.874485 H          1 MOL1         0.0829
      12    O1      17.596722   19.198006   22.609699 O.3        1 MOL1        -0.5515
      13    H8      17.257997   20.085279   22.362282 H          1 MOL1         0.3773
@<TRIPOS>BOND
    1     1     2    1
    2     1     3    1
    3     1     4    1
    4     4     5    1
    5     4     6    1
    6     4     7    1
    7     7     8    1
    8     1     9    1
    9     7     9    1
   10     9    10    1
   11     9    11    1
   12     7    12    1
   13    12    13    1
@<TRIPOS>SUBSTRUCTURE
       1 MOL1            1 RESIDUE      1      MOL     
@<SCITEGIC>MOL_PROPERTY
VConf Rank
SciTegic.value.IntegerValue
582

@<SCITEGIC>MOL_PROPERTY
Conf_Id
SciTegic.value.IntegerValue
19

@<SCITEGIC>MOL_PROPERTY
Delta U+W
SciTegic.value.DoubleValue
-0.011

@<SCITEGIC>MOL_PROPERTY
U+W
SciTegic.value.DoubleValue
-3.142

@<SCITEGIC>MOL_PROPERTY
Grad RMS
SciTegic.value.DoubleValue
0.000000

@<SCITEGIC>MOL_PROPERTY
U
SciTegic.value.DoubleValue
-0.154

@<SCITEGIC>MOL_PROPERTY
W
SciTegic.value.DoubleValue
-2.989

@<SCITEGIC>MOL_PROPERTY
W(PB)
SciTegic.value.DoubleValue
-4.588

@<SCITEGIC>MOL_PROPERTY
W(SA)
SciTegic.value.DoubleValue
1.599

@<SCITEGIC>MOL_PROPERTY
Valence
SciTegic.value.DoubleValue
6.334

@<SCITEGIC>MOL_PROPERTY
Coulomb
SciTegic.value.DoubleValue
-7.439

@<SCITEGIC>MOL_PROPERTY
VdW
SciTegic.value.DoubleValue
0.951

@<SCITEGIC>MOL_PROPERTY
VdW6
SciTegic.value.DoubleValue
-2.120

@<SCITEGIC>MOL_PROPERTY
VdW12
SciTegic.value.DoubleValue
3.072

@<SCITEGIC>MOL_PROPERTY
Bond
SciTegic.value.DoubleValue
0.065

@<SCITEGIC>MOL_PROPERTY
Angle
SciTegic.value.DoubleValue
0.930

@<SCITEGIC>MOL_PROPERTY
Pdih
SciTegic.value.DoubleValue
5.339

@<SCITEGIC>MOL_PROPERTY
Idih
SciTegic.value.DoubleValue
0.000

@<SCITEGIC>MOL_PROPERTY
Tether
SciTegic.value.DoubleValue
0.000

@<TRIPOS>MOLECULE
guest-s16_confgen4.mol2 : confsearch ligand conformer 583
          13          13           1
SMALL
USER_CHARGES
 
@<TRIPOS>ATOM
       1    C1      18.928874   19.004175   21.270311 C.3        1 MOL1        -0.1693
       2    H1      18.814343   19.348914   20.235895 H          1 MOL1         0.0829
       3    H2      18.132307   18.281293   21.489696 H          1 MOL1         0.0829
       4    C2      19.108892   20.120509   22.352144 C.3        1 MOL1        -0.1768
       5    H3      19.618979   21.022979   21.994200 H          1 MOL1         0.0829
       6    H4      18.202514   20.420160   22.889807 H          1 MOL1         0.0829
       7    C3      20.038812   19.114160   23.099097 C.3        1 MOL1         0.1211
       8    H5      20.891162   19.575410   23.614422 H          1 MOL1         0.0786
       9    C4      20.363481   18.537184   21.685667 C.3        1 MOL1        -0.1768
      10    H6      20.549883   17.458568   21.638826 H          1 MOL1         0.0829
      11    H7      21.177976   19.055775   21.165439 H          1 MOL1         0.0829
      12    O1      19.372231   18.222034   23.969686 O.3        1 MOL1        -0.5515
      13    H8      20.022234   17.538536   24.238911 H          1 MOL1         0.3773
@<TRIPOS>BOND
    1     1     2    1
    2     1     3    1
    3     1     4    1
    4     4     5    1
    5     4     6    1
    6     4     7    1
    7     7     8    1
    8     1     9    1
    9     7     9    1
   10     9    10    1
   11     9    11    1
   12     7    12    1
   13    12    13    1
@<TRIPOS>SUBSTRUCTURE
       1 MOL1            1 RESIDUE      1      MOL     
@<SCITEGIC>MOL_PROPERTY
VConf Rank
SciTegic.value.IntegerValue
583

@<SCITEGIC>MOL_PROPERTY
Conf_Id
SciTegic.value.IntegerValue
20

@<SCITEGIC>MOL_PROPERTY
Delta U+W
SciTegic.value.DoubleValue
1.030

@<SCITEGIC>MOL_PROPERTY
U+W
SciTegic.value.DoubleValue
-2.101

@<SCITEGIC>MOL_PROPERTY
Grad RMS
SciTegic.value.DoubleValue
0.000000

@<SCITEGIC>MOL_PROPERTY
U
SciTegic.value.DoubleValue
0.841

@<SCITEGIC>MOL_PROPERTY
W
SciTegic.value.DoubleValue
-2.942

@<SCITEGIC>MOL_PROPERTY
W(PB)
SciTegic.value.DoubleValue
-4.530

@<SCITEGIC>MOL_PROPERTY
W(SA)
SciTegic.value.DoubleValue
1.587

@<SCITEGIC>MOL_PROPERTY
Valence
SciTegic.value.DoubleValue
6.736

@<SCITEGIC>MOL_PROPERTY
Coulomb
SciTegic.value.DoubleValue
-7.246

@<SCITEGIC>MOL_PROPERTY
VdW
SciTegic.value.DoubleValue
1.352

@<SCITEGIC>MOL_PROPERTY
VdW6
SciTegic.value.DoubleValue
-2.500

@<SCITEGIC>MOL_PROPERTY
VdW12
SciTegic.value.DoubleValue
3.851

@<SCITEGIC>MOL_PROPERTY
Bond
SciTegic.value.DoubleValue
0.063

@<SCITEGIC>MOL_PROPERTY
Angle
SciTegic.value.DoubleValue
0.687

@<SCITEGIC>MOL_PROPERTY
Pdih
SciTegic.value.DoubleValue
5.986

@<SCITEGIC>MOL_PROPERTY
Idih
SciTegic.value.DoubleValue
0.000

@<SCITEGIC>MOL_PROPERTY
Tether
SciTegic.value.DoubleValue
0.000

@<TRIPOS>MOLECULE
guest-s16_confgen4.mol2 : confsearch ligand conformer 584
          13          13           1
SMALL
USER_CHARGES
 
@<TRIPOS>ATOM
       1    C1      20.486817   19.790192   21.583830 C.3        1 MOL1        -0.1693
       2    H1      19.995268   20.525806   20.933506 H          1 MOL1         0.0829
       3    H2      21.570205   19.954151   21.541297 H          1 MOL1         0.0829
       4    C2      20.006604   18.315009   21.382366 C.3        1 MOL1        -0.1768
       5    H3      19.706445   18.040331   20.365140 H          1 MOL1         0.0829
       6    H4      20.697572   17.552892   21.763323 H          1 MOL1         0.0829
       7    C3      18.845820   18.689978   22.352487 C.3        1 MOL1         0.1211
       8    H5      18.002999   19.195740   21.862027 H          1 MOL1         0.0786
       9    C4      19.866495   19.664234   23.014456 C.3        1 MOL1        -0.1768
      10    H6      20.526147   19.203686   23.760206 H          1 MOL1         0.0829
      11    H7      19.442597   20.581126   23.438616 H          1 MOL1         0.0829
      12    O1      18.385466   17.645475   23.176444 O.3        1 MOL1        -0.5515
      13    H8      19.176167   17.234216   23.584337 H          1 MOL1         0.3773
@<TRIPOS>BOND
    1     1     2    1
    2     1     3    1
    3     1     4    1
    4     4     5    1
    5     4     6    1
    6     4     7    1
    7     7     8    1
    8     1     9    1
    9     7     9    1
   10     9    10    1
   11     9    11    1
   12     7    12    1
   13    12    13    1
@<TRIPOS>SUBSTRUCTURE
       1 MOL1            1 RESIDUE      1      MOL     
@<SCITEGIC>MOL_PROPERTY
VConf Rank
SciTegic.value.IntegerValue
584

@<SCITEGIC>MOL_PROPERTY
Conf_Id
SciTegic.value.IntegerValue
24

@<SCITEGIC>MOL_PROPERTY
Delta U+W
SciTegic.value.DoubleValue
0.356

@<SCITEGIC>MOL_PROPERTY
U+W
SciTegic.value.DoubleValue
-2.775

@<SCITEGIC>MOL_PROPERTY
Grad RMS
SciTegic.value.DoubleValue
0.000000

@<SCITEGIC>MOL_PROPERTY
U
SciTegic.value.DoubleValue
-0.184

@<SCITEGIC>MOL_PROPERTY
W
SciTegic.value.DoubleValue
-2.591

@<SCITEGIC>MOL_PROPERTY
W(PB)
SciTegic.value.DoubleValue
-4.184

@<SCITEGIC>MOL_PROPERTY
W(SA)
SciTegic.value.DoubleValue
1.593

@<SCITEGIC>MOL_PROPERTY
Valence
SciTegic.value.DoubleValue
6.840

@<SCITEGIC>MOL_PROPERTY
Coulomb
SciTegic.value.DoubleValue
-7.916

@<SCITEGIC>MOL_PROPERTY
VdW
SciTegic.value.DoubleValue
0.893

@<SCITEGIC>MOL_PROPERTY
VdW6
SciTegic.value.DoubleValue
-2.167

@<SCITEGIC>MOL_PROPERTY
VdW12
SciTegic.value.DoubleValue
3.060

@<SCITEGIC>MOL_PROPERTY
Bond
SciTegic.value.DoubleValue
0.059

@<SCITEGIC>MOL_PROPERTY
Angle
SciTegic.value.DoubleValue
0.918

@<SCITEGIC>MOL_PROPERTY
Pdih
SciTegic.value.DoubleValue
5.862

@<SCITEGIC>MOL_PROPERTY
Idih
SciTegic.value.DoubleValue
0.000

@<SCITEGIC>MOL_PROPERTY
Tether
SciTegic.value.DoubleValue
0.000

@<TRIPOS>MOLECULE
guest-s16_confgen4.mol2 : confsearch ligand conformer 585
          13          13           1
SMALL
USER_CHARGES
 
@<TRIPOS>ATOM
       1    C1      19.359481   20.002041   21.907915 C.3        1 MOL1        -0.1693
       2    H1      19.657662   20.958746   21.462745 H          1 MOL1         0.0829
       3    H2      18.296779   20.060521   22.175385 H          1 MOL1         0.0829
       4    C2      20.293453   19.452341   23.037368 C.3        1 MOL1        -0.1768
       5    H3      21.348062   19.734203   22.930744 H          1 MOL1         0.0829
       6    H4      19.980182   19.659240   24.066816 H          1 MOL1         0.0829
       7    C3      19.957412   18.028434   22.495560 C.3        1 MOL1         0.1211
       8    H5      20.785828   17.310123   22.542921 H          1 MOL1         0.0786
       9    C4      19.767884   18.719099   21.109539 C.3        1 MOL1        -0.1768
      10    H6      20.693630   18.821182   20.530239 H          1 MOL1         0.0829
      11    H7      18.997149   18.287776   20.460974 H          1 MOL1         0.0829
      12    O1      18.787371   17.451509   23.033974 O.3        1 MOL1        -0.5515
      13    H8      18.086964   18.132758   22.965828 H          1 MOL1         0.3773
@<TRIPOS>BOND
    1     1     2    1
    2     1     3    1
    3     1     4    1
    4     4     5    1
    5     4     6    1
    6     4     7    1
    7     7     8    1
    8     1     9    1
    9     7     9    1
   10     9    10    1
   11     9    11    1
   12     7    12    1
   13    12    13    1
@<TRIPOS>SUBSTRUCTURE
       1 MOL1            1 RESIDUE      1      MOL     
@<SCITEGIC>MOL_PROPERTY
VConf Rank
SciTegic.value.IntegerValue
585

@<SCITEGIC>MOL_PROPERTY
Conf_Id
SciTegic.value.IntegerValue
44

@<SCITEGIC>MOL_PROPERTY
Delta U+W
SciTegic.value.DoubleValue
0.823

@<SCITEGIC>MOL_PROPERTY
U+W
SciTegic.value.DoubleValue
-2.308

@<SCITEGIC>MOL_PROPERTY
Grad RMS
SciTegic.value.DoubleValue
0.000000

@<SCITEGIC>MOL_PROPERTY
U
SciTegic.value.DoubleValue
0.039

@<SCITEGIC>MOL_PROPERTY
W
SciTegic.value.DoubleValue
-2.348

@<SCITEGIC>MOL_PROPERTY
W(PB)
SciTegic.value.DoubleValue
-3.918

@<SCITEGIC>MOL_PROPERTY
W(SA)
SciTegic.value.DoubleValue
1.571

@<SCITEGIC>MOL_PROPERTY
Valence
SciTegic.value.DoubleValue
7.320

@<SCITEGIC>MOL_PROPERTY
Coulomb
SciTegic.value.DoubleValue
-8.530

@<SCITEGIC>MOL_PROPERTY
VdW
SciTegic.value.DoubleValue
1.249

@<SCITEGIC>MOL_PROPERTY
VdW6
SciTegic.value.DoubleValue
-2.615

@<SCITEGIC>MOL_PROPERTY
VdW12
SciTegic.value.DoubleValue
3.864

@<SCITEGIC>MOL_PROPERTY
Bond
SciTegic.value.DoubleValue
0.056

@<SCITEGIC>MOL_PROPERTY
Angle
SciTegic.value.DoubleValue
0.694

@<SCITEGIC>MOL_PROPERTY
Pdih
SciTegic.value.DoubleValue
6.570

@<SCITEGIC>MOL_PROPERTY
Idih
SciTegic.value.DoubleValue
0.000

@<SCITEGIC>MOL_PROPERTY
Tether
SciTegic.value.DoubleValue
0.000

@<TRIPOS>MOLECULE
guest-s16_confgen4.mol2 : confsearch ligand conformer 586
          13          13           1
SMALL
USER_CHARGES
 
@<TRIPOS>ATOM
       1    C1      20.101072   18.096422   23.058972 C.3        1 MOL1        -0.1693
       2    H1      20.058453   17.091263   22.619171 H          1 MOL1         0.0829
       3    H2      20.552808   18.024021   24.055481 H          1 MOL1         0.0829
       4    C2      18.766940   18.908153   22.966825 C.3        1 MOL1        -0.1768
       5    H3      17.841262   18.324560   23.016822 H          1 MOL1         0.0829
       6    H4      18.691656   19.749944   23.666330 H          1 MOL1         0.0829
       7    C3      19.245321   19.298669   21.535918 C.3        1 MOL1         0.1211
       8    H5      19.019088   18.542541   20.771620 H          1 MOL1         0.0786
       9    C4      20.688117   19.198801   22.116916 C.3        1 MOL1        -0.1768
      10    H6      21.463891   18.871199   21.416186 H          1 MOL1         0.0829
      11    H7      21.035954   20.103308   22.631377 H          1 MOL1         0.0829
      12    O1      18.858266   20.581343   21.100622 O.3        1 MOL1        -0.5515
      13    H8      19.349901   20.767684   20.271903 H          1 MOL1         0.3773
@<TRIPOS>BOND
    1     1     2    1
    2     1     3    1
    3     1     4    1
    4     4     5    1
    5     4     6    1
    6     4     7    1
    7     7     8    1
    8     1     9    1
    9     7     9    1
   10     9    10    1
   11     9    11    1
   12     7    12    1
   13    12    13    1
@<TRIPOS>SUBSTRUCTURE
       1 MOL1            1 RESIDUE      1      MOL     
@<SCITEGIC>MOL_PROPERTY
VConf Rank
SciTegic.value.IntegerValue
586

@<SCITEGIC>MOL_PROPERTY
Conf_Id
SciTegic.value.IntegerValue
22

@<SCITEGIC>MOL_PROPERTY
Delta U+W
SciTegic.value.DoubleValue
0.000

@<SCITEGIC>MOL_PROPERTY
U+W
SciTegic.value.DoubleValue
-3.131

@<SCITEGIC>MOL_PROPERTY
Grad RMS
SciTegic.value.DoubleValue
0.000000

@<SCITEGIC>MOL_PROPERTY
U
SciTegic.value.DoubleValue
-0.154

@<SCITEGIC>MOL_PROPERTY
W
SciTegic.value.DoubleValue
-2.978

@<SCITEGIC>MOL_PROPERTY
W(PB)
SciTegic.value.DoubleValue
-4.579

@<SCITEGIC>MOL_PROPERTY
W(SA)
SciTegic.value.DoubleValue
1.601

@<SCITEGIC>MOL_PROPERTY
Valence
SciTegic.value.DoubleValue
6.333

@<SCITEGIC>MOL_PROPERTY
Coulomb
SciTegic.value.DoubleValue
-7.439

@<SCITEGIC>MOL_PROPERTY
VdW
SciTegic.value.DoubleValue
0.952

@<SCITEGIC>MOL_PROPERTY
VdW6
SciTegic.value.DoubleValue
-2.120

@<SCITEGIC>MOL_PROPERTY
VdW12
SciTegic.value.DoubleValue
3.072

@<SCITEGIC>MOL_PROPERTY
Bond
SciTegic.value.DoubleValue
0.065

@<SCITEGIC>MOL_PROPERTY
Angle
SciTegic.value.DoubleValue
0.931

@<SCITEGIC>MOL_PROPERTY
Pdih
SciTegic.value.DoubleValue
5.338

@<SCITEGIC>MOL_PROPERTY
Idih
SciTegic.value.DoubleValue
0.000

@<SCITEGIC>MOL_PROPERTY
Tether
SciTegic.value.DoubleValue
0.000

@<TRIPOS>MOLECULE
guest-s16_confgen4.mol2 : confsearch ligand conformer 587
          13          13           1
SMALL
USER_CHARGES
 
@<TRIPOS>ATOM
       1    C1      19.029988   18.168400   21.346761 C.3        1 MOL1        -0.1693
       2    H1      19.431928   17.147816   21.297385 H          1 MOL1         0.0829
       3    H2      18.258108   18.278688   20.575803 H          1 MOL1         0.0829
       4    C2      20.112568   19.296388   21.401459 C.3        1 MOL1        -0.1768
       5    H3      19.749324   20.293806   21.123965 H          1 MOL1         0.0829
       6    H4      21.044239   19.097243   20.860622 H          1 MOL1         0.0829
       7    C3      20.145086   19.022751   22.935493 C.3        1 MOL1         0.1211
       8    H5      20.784212   18.177008   23.224106 H          1 MOL1         0.0786
       9    C4      18.639702   18.649232   22.783348 C.3        1 MOL1        -0.1768
      10    H6      17.954047   19.505200   22.811269 H          1 MOL1         0.0829
      11    H7      18.268814   17.878175   23.467361 H          1 MOL1         0.0829
      12    O1      20.408062   20.146847   23.742836 O.3        1 MOL1        -0.5515
      13    H8      21.356021   20.372827   23.626600 H          1 MOL1         0.3773
@<TRIPOS>BOND
    1     1     2    1
    2     1     3    1
    3     1     4    1
    4     4     5    1
    5     4     6    1
    6     4     7    1
    7     7     8    1
    8     1     9    1
    9     7     9    1
   10     9    10    1
   11     9    11    1
   12     7    12    1
   13    12    13    1
@<TRIPOS>SUBSTRUCTURE
       1 MOL1            1 RESIDUE      1      MOL     
@<SCITEGIC>MOL_PROPERTY
VConf Rank
SciTegic.value.IntegerValue
587

@<SCITEGIC>MOL_PROPERTY
Conf_Id
SciTegic.value.IntegerValue
19

@<SCITEGIC>MOL_PROPERTY
Delta U+W
SciTegic.value.DoubleValue
-0.011

@<SCITEGIC>MOL_PROPERTY
U+W
SciTegic.value.DoubleValue
-3.142

@<SCITEGIC>MOL_PROPERTY
Grad RMS
SciTegic.value.DoubleValue
0.000000

@<SCITEGIC>MOL_PROPERTY
U
SciTegic.value.DoubleValue
-0.154

@<SCITEGIC>MOL_PROPERTY
W
SciTegic.value.DoubleValue
-2.989

@<SCITEGIC>MOL_PROPERTY
W(PB)
SciTegic.value.DoubleValue
-4.588

@<SCITEGIC>MOL_PROPERTY
W(SA)
SciTegic.value.DoubleValue
1.599

@<SCITEGIC>MOL_PROPERTY
Valence
SciTegic.value.DoubleValue
6.334

@<SCITEGIC>MOL_PROPERTY
Coulomb
SciTegic.value.DoubleValue
-7.439

@<SCITEGIC>MOL_PROPERTY
VdW
SciTegic.value.DoubleValue
0.951

@<SCITEGIC>MOL_PROPERTY
VdW6
SciTegic.value.DoubleValue
-2.120

@<SCITEGIC>MOL_PROPERTY
VdW12
SciTegic.value.DoubleValue
3.072

@<SCITEGIC>MOL_PROPERTY
Bond
SciTegic.value.DoubleValue
0.065

@<SCITEGIC>MOL_PROPERTY
Angle
SciTegic.value.DoubleValue
0.930

@<SCITEGIC>MOL_PROPERTY
Pdih
SciTegic.value.DoubleValue
5.339

@<SCITEGIC>MOL_PROPERTY
Idih
SciTegic.value.DoubleValue
0.000

@<SCITEGIC>MOL_PROPERTY
Tether
SciTegic.value.DoubleValue
0.000

@<TRIPOS>MOLECULE
guest-s16_confgen4.mol2 : confsearch ligand conformer 588
          13          13           1
SMALL
USER_CHARGES
 
@<TRIPOS>ATOM
       1    C1      20.795794   19.110250   22.681557 C.3        1 MOL1        -0.1693
       2    H1      21.657146   18.527221   23.028151 H          1 MOL1         0.0829
       3    H2      21.092955   20.164359   22.605691 H          1 MOL1         0.0829
       4    C2      19.449583   18.868041   23.441835 C.3        1 MOL1        -0.1768
       5    H3      19.326414   17.852333   23.836719 H          1 MOL1         0.0829
       6    H4      19.209660   19.584141   24.235580 H          1 MOL1         0.0829
       7    C3      18.742180   19.111765   22.072307 C.3        1 MOL1         0.1211
       8    H5      17.847179   18.498841   21.904643 H          1 MOL1         0.0786
       9    C4      20.047943   18.553229   21.424916 C.3        1 MOL1        -0.1768
      10    H6      20.332505   18.992827   20.462560 H          1 MOL1         0.0829
      11    H7      20.070383   17.460715   21.330656 H          1 MOL1         0.0829
      12    O1      18.462687   20.466224   21.779955 O.3        1 MOL1        -0.5515
      13    H8      18.187259   20.509751   20.839530 H          1 MOL1         0.3773
@<TRIPOS>BOND
    1     1     2    1
    2     1     3    1
    3     1     4    1
    4     4     5    1
    5     4     6    1
    6     4     7    1
    7     7     8    1
    8     1     9    1
    9     7     9    1
   10     9    10    1
   11     9    11    1
   12     7    12    1
   13    12    13    1
@<TRIPOS>SUBSTRUCTURE
       1 MOL1            1 RESIDUE      1      MOL     
@<SCITEGIC>MOL_PROPERTY
VConf Rank
SciTegic.value.IntegerValue
588

@<SCITEGIC>MOL_PROPERTY
Conf_Id
SciTegic.value.IntegerValue
20

@<SCITEGIC>MOL_PROPERTY
Delta U+W
SciTegic.value.DoubleValue
1.030

@<SCITEGIC>MOL_PROPERTY
U+W
SciTegic.value.DoubleValue
-2.101

@<SCITEGIC>MOL_PROPERTY
Grad RMS
SciTegic.value.DoubleValue
0.000000

@<SCITEGIC>MOL_PROPERTY
U
SciTegic.value.DoubleValue
0.841

@<SCITEGIC>MOL_PROPERTY
W
SciTegic.value.DoubleValue
-2.942

@<SCITEGIC>MOL_PROPERTY
W(PB)
SciTegic.value.DoubleValue
-4.530

@<SCITEGIC>MOL_PROPERTY
W(SA)
SciTegic.value.DoubleValue
1.587

@<SCITEGIC>MOL_PROPERTY
Valence
SciTegic.value.DoubleValue
6.736

@<SCITEGIC>MOL_PROPERTY
Coulomb
SciTegic.value.DoubleValue
-7.246

@<SCITEGIC>MOL_PROPERTY
VdW
SciTegic.value.DoubleValue
1.352

@<SCITEGIC>MOL_PROPERTY
VdW6
SciTegic.value.DoubleValue
-2.500

@<SCITEGIC>MOL_PROPERTY
VdW12
SciTegic.value.DoubleValue
3.851

@<SCITEGIC>MOL_PROPERTY
Bond
SciTegic.value.DoubleValue
0.063

@<SCITEGIC>MOL_PROPERTY
Angle
SciTegic.value.DoubleValue
0.687

@<SCITEGIC>MOL_PROPERTY
Pdih
SciTegic.value.DoubleValue
5.986

@<SCITEGIC>MOL_PROPERTY
Idih
SciTegic.value.DoubleValue
0.000

@<SCITEGIC>MOL_PROPERTY
Tether
SciTegic.value.DoubleValue
0.000

@<TRIPOS>MOLECULE
guest-s16_confgen4.mol2 : confsearch ligand conformer 589
          13          13           1
SMALL
USER_CHARGES
 
@<TRIPOS>ATOM
       1    C1      20.252249   18.376225   23.238957 C.3        1 MOL1        -0.1693
       2    H1      21.345851   18.299587   23.300833 H          1 MOL1         0.0829
       3    H2      19.817685   17.909339   24.130918 H          1 MOL1         0.0829
       4    C2      19.642438   17.936728   21.866977 C.3        1 MOL1        -0.1768
       5    H3      20.171247   17.135702   21.338763 H          1 MOL1         0.0829
       6    H4      18.573690   17.691481   21.898914 H          1 MOL1         0.0829
       7    C3      19.967709   19.386795   21.397230 C.3        1 MOL1         0.1211
       8    H5      21.006665   19.524468   21.068126 H          1 MOL1         0.0786
       9    C4      19.715836   19.800903   22.878523 C.3        1 MOL1        -0.1768
      10    H6      18.663494   19.972321   23.136554 H          1 MOL1         0.0829
      11    H7      20.309465   20.646227   23.243657 H          1 MOL1         0.0829
      12    O1      19.073512   19.932357   20.456703 O.3        1 MOL1        -0.5515
      13    H8      18.168760   19.780707   20.801879 H          1 MOL1         0.3773
@<TRIPOS>BOND
    1     1     2    1
    2     1     3    1
    3     1     4    1
    4     4     5    1
    5     4     6    1
    6     4     7    1
    7     7     8    1
    8     1     9    1
    9     7     9    1
   10     9    10    1
   11     9    11    1
   12     7    12    1
   13    12    13    1
@<TRIPOS>SUBSTRUCTURE
       1 MOL1            1 RESIDUE      1      MOL     
@<SCITEGIC>MOL_PROPERTY
VConf Rank
SciTegic.value.IntegerValue
589

@<SCITEGIC>MOL_PROPERTY
Conf_Id
SciTegic.value.IntegerValue
24

@<SCITEGIC>MOL_PROPERTY
Delta U+W
SciTegic.value.DoubleValue
0.356

@<SCITEGIC>MOL_PROPERTY
U+W
SciTegic.value.DoubleValue
-2.775

@<SCITEGIC>MOL_PROPERTY
Grad RMS
SciTegic.value.DoubleValue
0.000000

@<SCITEGIC>MOL_PROPERTY
U
SciTegic.value.DoubleValue
-0.184

@<SCITEGIC>MOL_PROPERTY
W
SciTegic.value.DoubleValue
-2.591

@<SCITEGIC>MOL_PROPERTY
W(PB)
SciTegic.value.DoubleValue
-4.184

@<SCITEGIC>MOL_PROPERTY
W(SA)
SciTegic.value.DoubleValue
1.593

@<SCITEGIC>MOL_PROPERTY
Valence
SciTegic.value.DoubleValue
6.840

@<SCITEGIC>MOL_PROPERTY
Coulomb
SciTegic.value.DoubleValue
-7.916

@<SCITEGIC>MOL_PROPERTY
VdW
SciTegic.value.DoubleValue
0.893

@<SCITEGIC>MOL_PROPERTY
VdW6
SciTegic.value.DoubleValue
-2.167

@<SCITEGIC>MOL_PROPERTY
VdW12
SciTegic.value.DoubleValue
3.060

@<SCITEGIC>MOL_PROPERTY
Bond
SciTegic.value.DoubleValue
0.059

@<SCITEGIC>MOL_PROPERTY
Angle
SciTegic.value.DoubleValue
0.918

@<SCITEGIC>MOL_PROPERTY
Pdih
SciTegic.value.DoubleValue
5.862

@<SCITEGIC>MOL_PROPERTY
Idih
SciTegic.value.DoubleValue
0.000

@<SCITEGIC>MOL_PROPERTY
Tether
SciTegic.value.DoubleValue
0.000

@<TRIPOS>MOLECULE
guest-s16_confgen4.mol2 : confsearch ligand conformer 590
          13          13           1
SMALL
USER_CHARGES
 
@<TRIPOS>ATOM
       1    C1      19.491938   18.873078   23.311950 C.3        1 MOL1        -0.1693
       2    H1      19.366188   18.182230   24.154143 H          1 MOL1         0.0829
       3    H2      19.375846   19.898682   23.684715 H          1 MOL1         0.0829
       4    C2      18.663189   18.542129   22.025954 C.3        1 MOL1        -0.1768
       5    H3      18.475008   17.472796   21.870618 H          1 MOL1         0.0829
       6    H4      17.717375   19.082752   21.908170 H          1 MOL1         0.0829
       7    C3      19.873009   19.099884   21.214019 C.3        1 MOL1         0.1211
       8    H5      20.072961   18.579036   20.268913 H          1 MOL1         0.0786
       9    C4      20.753484   18.637017   22.415896 C.3        1 MOL1        -0.1768
      10    H6      21.077813   17.590948   22.356171 H          1 MOL1         0.0829
      11    H7      21.627095   19.260228   22.637526 H          1 MOL1         0.0829
      12    O1      19.849524   20.494722   21.000471 O.3        1 MOL1        -0.5515
      13    H8      19.668426   20.904468   21.871462 H          1 MOL1         0.3773
@<TRIPOS>BOND
    1     1     2    1
    2     1     3    1
    3     1     4    1
    4     4     5    1
    5     4     6    1
    6     4     7    1
    7     7     8    1
    8     1     9    1
    9     7     9    1
   10     9    10    1
   11     9    11    1
   12     7    12    1
   13    12    13    1
@<TRIPOS>SUBSTRUCTURE
       1 MOL1            1 RESIDUE      1      MOL     
@<SCITEGIC>MOL_PROPERTY
VConf Rank
SciTegic.value.IntegerValue
590

@<SCITEGIC>MOL_PROPERTY
Conf_Id
SciTegic.value.IntegerValue
44

@<SCITEGIC>MOL_PROPERTY
Delta U+W
SciTegic.value.DoubleValue
0.823

@<SCITEGIC>MOL_PROPERTY
U+W
SciTegic.value.DoubleValue
-2.308

@<SCITEGIC>MOL_PROPERTY
Grad RMS
SciTegic.value.DoubleValue
0.000000

@<SCITEGIC>MOL_PROPERTY
U
SciTegic.value.DoubleValue
0.039

@<SCITEGIC>MOL_PROPERTY
W
SciTegic.value.DoubleValue
-2.348

@<SCITEGIC>MOL_PROPERTY
W(PB)
SciTegic.value.DoubleValue
-3.918

@<SCITEGIC>MOL_PROPERTY
W(SA)
SciTegic.value.DoubleValue
1.571

@<SCITEGIC>MOL_PROPERTY
Valence
SciTegic.value.DoubleValue
7.320

@<SCITEGIC>MOL_PROPERTY
Coulomb
SciTegic.value.DoubleValue
-8.530

@<SCITEGIC>MOL_PROPERTY
VdW
SciTegic.value.DoubleValue
1.249

@<SCITEGIC>MOL_PROPERTY
VdW6
SciTegic.value.DoubleValue
-2.615

@<SCITEGIC>MOL_PROPERTY
VdW12
SciTegic.value.DoubleValue
3.864

@<SCITEGIC>MOL_PROPERTY
Bond
SciTegic.value.DoubleValue
0.056

@<SCITEGIC>MOL_PROPERTY
Angle
SciTegic.value.DoubleValue
0.694

@<SCITEGIC>MOL_PROPERTY
Pdih
SciTegic.value.DoubleValue
6.570

@<SCITEGIC>MOL_PROPERTY
Idih
SciTegic.value.DoubleValue
0.000

@<SCITEGIC>MOL_PROPERTY
Tether
SciTegic.value.DoubleValue
0.000

@<TRIPOS>MOLECULE
guest-s16_confgen4.mol2 : confsearch ligand conformer 591
          13          13           1
SMALL
USER_CHARGES
 
@<TRIPOS>ATOM
       1    C1      19.882912   19.923571   21.289571 C.3        1 MOL1        -0.1693
       2    H1      19.928949   19.476247   20.287888 H          1 MOL1         0.0829
       3    H2      19.982395   21.011239   21.192517 H          1 MOL1         0.0829
       4    C2      20.804734   19.241662   22.353785 C.3        1 MOL1        -0.1768
       5    H3      21.745712   18.822541   21.981146 H          1 MOL1         0.0829
       6    H4      21.017273   19.854735   23.238406 H          1 MOL1         0.0829
       7    C3      19.636487   18.226603   22.537359 C.3        1 MOL1         0.1211
       8    H5      19.632659   17.416830   21.794853 H          1 MOL1         0.0786
       9    C4      18.698636   19.418521   22.178245 C.3        1 MOL1        -0.1768
      10    H6      17.775628   19.157713   21.648899 H          1 MOL1         0.0829
      11    H7      18.448616   20.072374   23.023088 H          1 MOL1         0.0829
      12    O1      19.485084   17.711726   23.839866 O.3        1 MOL1        -0.5515
      13    H8      18.633641   17.224146   23.862521 H          1 MOL1         0.3773
@<TRIPOS>BOND
    1     1     2    1
    2     1     3    1
    3     1     4    1
    4     4     5    1
    5     4     6    1
    6     4     7    1
    7     7     8    1
    8     1     9    1
    9     7     9    1
   10     9    10    1
   11     9    11    1
   12     7    12    1
   13    12    13    1
@<TRIPOS>SUBSTRUCTURE
       1 MOL1            1 RESIDUE      1      MOL     
@<SCITEGIC>MOL_PROPERTY
VConf Rank
SciTegic.value.IntegerValue
591

@<SCITEGIC>MOL_PROPERTY
Conf_Id
SciTegic.value.IntegerValue
22

@<SCITEGIC>MOL_PROPERTY
Delta U+W
SciTegic.value.DoubleValue
0.000

@<SCITEGIC>MOL_PROPERTY
U+W
SciTegic.value.DoubleValue
-3.131

@<SCITEGIC>MOL_PROPERTY
Grad RMS
SciTegic.value.DoubleValue
0.000000

@<SCITEGIC>MOL_PROPERTY
U
SciTegic.value.DoubleValue
-0.154

@<SCITEGIC>MOL_PROPERTY
W
SciTegic.value.DoubleValue
-2.978

@<SCITEGIC>MOL_PROPERTY
W(PB)
SciTegic.value.DoubleValue
-4.579

@<SCITEGIC>MOL_PROPERTY
W(SA)
SciTegic.value.DoubleValue
1.601

@<SCITEGIC>MOL_PROPERTY
Valence
SciTegic.value.DoubleValue
6.333

@<SCITEGIC>MOL_PROPERTY
Coulomb
SciTegic.value.DoubleValue
-7.439

@<SCITEGIC>MOL_PROPERTY
VdW
SciTegic.value.DoubleValue
0.952

@<SCITEGIC>MOL_PROPERTY
VdW6
SciTegic.value.DoubleValue
-2.120

@<SCITEGIC>MOL_PROPERTY
VdW12
SciTegic.value.DoubleValue
3.072

@<SCITEGIC>MOL_PROPERTY
Bond
SciTegic.value.DoubleValue
0.065

@<SCITEGIC>MOL_PROPERTY
Angle
SciTegic.value.DoubleValue
0.931

@<SCITEGIC>MOL_PROPERTY
Pdih
SciTegic.value.DoubleValue
5.338

@<SCITEGIC>MOL_PROPERTY
Idih
SciTegic.value.DoubleValue
0.000

@<SCITEGIC>MOL_PROPERTY
Tether
SciTegic.value.DoubleValue
0.000

@<TRIPOS>MOLECULE
guest-s16_confgen4.mol2 : confsearch ligand conformer 592
          13          13           1
SMALL
USER_CHARGES
 
@<TRIPOS>ATOM
       1    C1      19.890962   17.698821   22.655330 C.3        1 MOL1        -0.1693
       2    H1      20.746028   17.640348   23.341645 H          1 MOL1         0.0829
       3    H2      19.524279   16.683108   22.465044 H          1 MOL1         0.0829
       4    C2      20.124764   18.592656   21.392901 C.3        1 MOL1        -0.1768
       5    H3      19.432863   18.402982   20.562787 H          1 MOL1         0.0829
       6    H4      21.147611   18.615901   21.001218 H          1 MOL1         0.0829
       7    C3      19.721550   19.784760   22.312413 C.3        1 MOL1         0.1211
       8    H5      20.544110   20.168423   22.931493 H          1 MOL1         0.0786
       9    C4      18.808332   18.757815   23.047438 C.3        1 MOL1        -0.1768
      10    H6      17.827070   18.606701   22.580667 H          1 MOL1         0.0829
      11    H7      18.665732   18.929436   24.119899 H          1 MOL1         0.0829
      12    O1      19.045130   20.840006   21.669404 O.3        1 MOL1        -0.5515
      13    H8      19.703668   21.313424   21.116770 H          1 MOL1         0.3773
@<TRIPOS>BOND
    1     1     2    1
    2     1     3    1
    3     1     4    1
    4     4     5    1
    5     4     6    1
    6     4     7    1
    7     7     8    1
    8     1     9    1
    9     7     9    1
   10     9    10    1
   11     9    11    1
   12     7    12    1
   13    12    13    1
@<TRIPOS>SUBSTRUCTURE
       1 MOL1            1 RESIDUE      1      MOL     
@<SCITEGIC>MOL_PROPERTY
VConf Rank
SciTegic.value.IntegerValue
592

@<SCITEGIC>MOL_PROPERTY
Conf_Id
SciTegic.value.IntegerValue
19

@<SCITEGIC>MOL_PROPERTY
Delta U+W
SciTegic.value.DoubleValue
-0.011

@<SCITEGIC>MOL_PROPERTY
U+W
SciTegic.value.DoubleValue
-3.142

@<SCITEGIC>MOL_PROPERTY
Grad RMS
SciTegic.value.DoubleValue
0.000000

@<SCITEGIC>MOL_PROPERTY
U
SciTegic.value.DoubleValue
-0.154

@<SCITEGIC>MOL_PROPERTY
W
SciTegic.value.DoubleValue
-2.989

@<SCITEGIC>MOL_PROPERTY
W(PB)
SciTegic.value.DoubleValue
-4.588

@<SCITEGIC>MOL_PROPERTY
W(SA)
SciTegic.value.DoubleValue
1.599

@<SCITEGIC>MOL_PROPERTY
Valence
SciTegic.value.DoubleValue
6.334

@<SCITEGIC>MOL_PROPERTY
Coulomb
SciTegic.value.DoubleValue
-7.439

@<SCITEGIC>MOL_PROPERTY
VdW
SciTegic.value.DoubleValue
0.951

@<SCITEGIC>MOL_PROPERTY
VdW6
SciTegic.value.DoubleValue
-2.120

@<SCITEGIC>MOL_PROPERTY
VdW12
SciTegic.value.DoubleValue
3.072

@<SCITEGIC>MOL_PROPERTY
Bond
SciTegic.value.DoubleValue
0.065

@<SCITEGIC>MOL_PROPERTY
Angle
SciTegic.value.DoubleValue
0.930

@<SCITEGIC>MOL_PROPERTY
Pdih
SciTegic.value.DoubleValue
5.339

@<SCITEGIC>MOL_PROPERTY
Idih
SciTegic.value.DoubleValue
0.000

@<SCITEGIC>MOL_PROPERTY
Tether
SciTegic.value.DoubleValue
0.000

@<TRIPOS>MOLECULE
guest-s16_confgen4.mol2 : confsearch ligand conformer 593
          13          13           1
SMALL
USER_CHARGES
 
@<TRIPOS>ATOM
       1    C1      19.737783   18.230169   23.190301 C.3        1 MOL1        -0.1693
       2    H1      19.814112   18.093243   24.275382 H          1 MOL1         0.0829
       3    H2      19.674774   17.242410   22.715360 H          1 MOL1         0.0829
       4    C2      20.784714   19.196523   22.542947 C.3        1 MOL1        -0.1768
       5    H3      21.116032   20.012364   23.196703 H          1 MOL1         0.0829
       6    H4      21.667257   18.722459   22.099355 H          1 MOL1         0.0829
       7    C3      19.655498   19.596914   21.542953 C.3        1 MOL1         0.1211
       8    H5      19.665554   20.652073   21.240709 H          1 MOL1         0.0786
       9    C4      18.664143   19.257454   22.699706 C.3        1 MOL1        -0.1768
      10    H6      17.699284   18.836047   22.396695 H          1 MOL1         0.0829
      11    H7      18.481022   20.088107   23.392134 H          1 MOL1         0.0829
      12    O1      19.549281   18.768084   20.402820 O.3        1 MOL1        -0.5515
      13    H8      18.712232   19.003849   19.949037 H          1 MOL1         0.3773
@<TRIPOS>BOND
    1     1     2    1
    2     1     3    1
    3     1     4    1
    4     4     5    1
    5     4     6    1
    6     4     7    1
    7     7     8    1
    8     1     9    1
    9     7     9    1
   10     9    10    1
   11     9    11    1
   12     7    12    1
   13    12    13    1
@<TRIPOS>SUBSTRUCTURE
       1 MOL1            1 RESIDUE      1      MOL     
@<SCITEGIC>MOL_PROPERTY
VConf Rank
SciTegic.value.IntegerValue
593

@<SCITEGIC>MOL_PROPERTY
Conf_Id
SciTegic.value.IntegerValue
20

@<SCITEGIC>MOL_PROPERTY
Delta U+W
SciTegic.value.DoubleValue
1.030

@<SCITEGIC>MOL_PROPERTY
U+W
SciTegic.value.DoubleValue
-2.101

@<SCITEGIC>MOL_PROPERTY
Grad RMS
SciTegic.value.DoubleValue
0.000000

@<SCITEGIC>MOL_PROPERTY
U
SciTegic.value.DoubleValue
0.841

@<SCITEGIC>MOL_PROPERTY
W
SciTegic.value.DoubleValue
-2.942

@<SCITEGIC>MOL_PROPERTY
W(PB)
SciTegic.value.DoubleValue
-4.530

@<SCITEGIC>MOL_PROPERTY
W(SA)
SciTegic.value.DoubleValue
1.587

@<SCITEGIC>MOL_PROPERTY
Valence
SciTegic.value.DoubleValue
6.736

@<SCITEGIC>MOL_PROPERTY
Coulomb
SciTegic.value.DoubleValue
-7.246

@<SCITEGIC>MOL_PROPERTY
VdW
SciTegic.value.DoubleValue
1.352

@<SCITEGIC>MOL_PROPERTY
VdW6
SciTegic.value.DoubleValue
-2.500

@<SCITEGIC>MOL_PROPERTY
VdW12
SciTegic.value.DoubleValue
3.851

@<SCITEGIC>MOL_PROPERTY
Bond
SciTegic.value.DoubleValue
0.063

@<SCITEGIC>MOL_PROPERTY
Angle
SciTegic.value.DoubleValue
0.687

@<SCITEGIC>MOL_PROPERTY
Pdih
SciTegic.value.DoubleValue
5.986

@<SCITEGIC>MOL_PROPERTY
Idih
SciTegic.value.DoubleValue
0.000

@<SCITEGIC>MOL_PROPERTY
Tether
SciTegic.value.DoubleValue
0.000

@<TRIPOS>MOLECULE
guest-s16_confgen4.mol2 : confsearch ligand conformer 594
          13          13           1
SMALL
USER_CHARGES
 
@<TRIPOS>ATOM
       1    C1      20.432095   18.681225   23.260566 C.3        1 MOL1        -0.1693
       2    H1      19.913737   18.213402   24.107984 H          1 MOL1         0.0829
       3    H2      21.487267   18.815835   23.526860 H          1 MOL1         0.0829
       4    C2      19.709309   19.932909   22.662048 C.3        1 MOL1        -0.1768
       5    H3      19.142334   20.546871   23.370485 H          1 MOL1         0.0829
       6    H4      20.352320   20.589663   22.063216 H          1 MOL1         0.0829
       7    C3      18.875494   18.905102   21.838930 C.3        1 MOL1         0.1211
       8    H5      18.023655   18.482358   22.388795 H          1 MOL1         0.0786
       9    C4      20.153161   18.013188   21.873743 C.3        1 MOL1        -0.1768
      10    H6      20.895378   18.240860   21.098716 H          1 MOL1         0.0829
      11    H7      19.978173   16.931744   21.885984 H          1 MOL1         0.0829
      12    O1      18.474800   19.337422   20.560509 O.3        1 MOL1        -0.5515
      13    H8      19.270878   19.702260   20.120199 H          1 MOL1         0.3773
@<TRIPOS>BOND
    1     1     2    1
    2     1     3    1
    3     1     4    1
    4     4     5    1
    5     4     6    1
    6     4     7    1
    7     7     8    1
    8     1     9    1
    9     7     9    1
   10     9    10    1
   11     9    11    1
   12     7    12    1
   13    12    13    1
@<TRIPOS>SUBSTRUCTURE
       1 MOL1            1 RESIDUE      1      MOL     
@<SCITEGIC>MOL_PROPERTY
VConf Rank
SciTegic.value.IntegerValue
594

@<SCITEGIC>MOL_PROPERTY
Conf_Id
SciTegic.value.IntegerValue
24

@<SCITEGIC>MOL_PROPERTY
Delta U+W
SciTegic.value.DoubleValue
0.356

@<SCITEGIC>MOL_PROPERTY
U+W
SciTegic.value.DoubleValue
-2.775

@<SCITEGIC>MOL_PROPERTY
Grad RMS
SciTegic.value.DoubleValue
0.000000

@<SCITEGIC>MOL_PROPERTY
U
SciTegic.value.DoubleValue
-0.184

@<SCITEGIC>MOL_PROPERTY
W
SciTegic.value.DoubleValue
-2.591

@<SCITEGIC>MOL_PROPERTY
W(PB)
SciTegic.value.DoubleValue
-4.184

@<SCITEGIC>MOL_PROPERTY
W(SA)
SciTegic.value.DoubleValue
1.593

@<SCITEGIC>MOL_PROPERTY
Valence
SciTegic.value.DoubleValue
6.840

@<SCITEGIC>MOL_PROPERTY
Coulomb
SciTegic.value.DoubleValue
-7.916

@<SCITEGIC>MOL_PROPERTY
VdW
SciTegic.value.DoubleValue
0.893

@<SCITEGIC>MOL_PROPERTY
VdW6
SciTegic.value.DoubleValue
-2.167

@<SCITEGIC>MOL_PROPERTY
VdW12
SciTegic.value.DoubleValue
3.060

@<SCITEGIC>MOL_PROPERTY
Bond
SciTegic.value.DoubleValue
0.059

@<SCITEGIC>MOL_PROPERTY
Angle
SciTegic.value.DoubleValue
0.918

@<SCITEGIC>MOL_PROPERTY
Pdih
SciTegic.value.DoubleValue
5.862

@<SCITEGIC>MOL_PROPERTY
Idih
SciTegic.value.DoubleValue
0.000

@<SCITEGIC>MOL_PROPERTY
Tether
SciTegic.value.DoubleValue
0.000

@<TRIPOS>MOLECULE
guest-s16_confgen4.mol2 : confsearch ligand conformer 595
          13          13           1
SMALL
USER_CHARGES
 
@<TRIPOS>ATOM
       1    C1      20.613027   19.017751   21.562898 C.3        1 MOL1        -0.1693
       2    H1      21.304520   18.453833   20.925553 H          1 MOL1         0.0829
       3    H2      20.942860   20.064032   21.591231 H          1 MOL1         0.0829
       4    C2      20.302857   18.387033   22.961514 C.3        1 MOL1        -0.1768
       5    H3      20.342853   17.291164   22.983557 H          1 MOL1         0.0829
       6    H4      20.884693   18.773672   23.805721 H          1 MOL1         0.0829
       7    C3      18.863820   18.968215   22.802168 C.3        1 MOL1         0.1211
       8    H5      18.064688   18.339492   23.215184 H          1 MOL1         0.0786
       9    C4      19.089518   18.815450   21.266031 C.3        1 MOL1        -0.1768
      10    H6      18.832022   17.824622   20.872366 H          1 MOL1         0.0829
      11    H7      18.615247   19.574987   20.634464 H          1 MOL1         0.0829
      12    O1      18.710265   20.298343   23.248160 O.3        1 MOL1        -0.5515
      13    H8      19.445486   20.809377   22.851162 H          1 MOL1         0.3773
@<TRIPOS>BOND
    1     1     2    1
    2     1     3    1
    3     1     4    1
    4     4     5    1
    5     4     6    1
    6     4     7    1
    7     7     8    1
    8     1     9    1
    9     7     9    1
   10     9    10    1
   11     9    11    1
   12     7    12    1
   13    12    13    1
@<TRIPOS>SUBSTRUCTURE
       1 MOL1            1 RESIDUE      1      MOL     
@<SCITEGIC>MOL_PROPERTY
VConf Rank
SciTegic.value.IntegerValue
595

@<SCITEGIC>MOL_PROPERTY
Conf_Id
SciTegic.value.IntegerValue
44

@<SCITEGIC>MOL_PROPERTY
Delta U+W
SciTegic.value.DoubleValue
0.823

@<SCITEGIC>MOL_PROPERTY
U+W
SciTegic.value.DoubleValue
-2.308

@<SCITEGIC>MOL_PROPERTY
Grad RMS
SciTegic.value.DoubleValue
0.000000

@<SCITEGIC>MOL_PROPERTY
U
SciTegic.value.DoubleValue
0.039

@<SCITEGIC>MOL_PROPERTY
W
SciTegic.value.DoubleValue
-2.348

@<SCITEGIC>MOL_PROPERTY
W(PB)
SciTegic.value.DoubleValue
-3.918

@<SCITEGIC>MOL_PROPERTY
W(SA)
SciTegic.value.DoubleValue
1.571

@<SCITEGIC>MOL_PROPERTY
Valence
SciTegic.value.DoubleValue
7.320

@<SCITEGIC>MOL_PROPERTY
Coulomb
SciTegic.value.DoubleValue
-8.530

@<SCITEGIC>MOL_PROPERTY
VdW
SciTegic.value.DoubleValue
1.249

@<SCITEGIC>MOL_PROPERTY
VdW6
SciTegic.value.DoubleValue
-2.615

@<SCITEGIC>MOL_PROPERTY
VdW12
SciTegic.value.DoubleValue
3.864

@<SCITEGIC>MOL_PROPERTY
Bond
SciTegic.value.DoubleValue
0.056

@<SCITEGIC>MOL_PROPERTY
Angle
SciTegic.value.DoubleValue
0.694

@<SCITEGIC>MOL_PROPERTY
Pdih
SciTegic.value.DoubleValue
6.570

@<SCITEGIC>MOL_PROPERTY
Idih
SciTegic.value.DoubleValue
0.000

@<SCITEGIC>MOL_PROPERTY
Tether
SciTegic.value.DoubleValue
0.000

@<TRIPOS>MOLECULE
guest-s16_confgen4.mol2 : confsearch ligand conformer 596
          13          13           1
SMALL
USER_CHARGES
 
@<TRIPOS>ATOM
       1    C1      20.326707   17.903282   22.161668 C.3        1 MOL1        -0.1693
       2    H1      19.824228   17.068269   22.667489 H          1 MOL1         0.0829
       3    H2      21.232591   17.523649   21.674235 H          1 MOL1         0.0829
       4    C2      20.504508   19.187305   23.037441 C.3        1 MOL1        -0.1768
       5    H3      20.653486   19.024168   24.110359 H          1 MOL1         0.0829
       6    H4      21.268767   19.887217   22.677416 H          1 MOL1         0.0829
       7    C3      19.050285   19.538867   22.600996 C.3        1 MOL1         0.1211
       8    H5      18.275518   19.046399   23.204547 H          1 MOL1         0.0786
       9    C4      19.390866   18.791082   21.276603 C.3        1 MOL1        -0.1768
      10    H6      18.555410   18.275494   20.790440 H          1 MOL1         0.0829
      11    H7      19.911866   19.402272   20.529073 H          1 MOL1         0.0829
      12    O1      18.778530   20.914324   22.463835 O.3        1 MOL1        -0.5515
      13    H8      17.899965   20.995576   22.034040 H          1 MOL1         0.3773
@<TRIPOS>BOND
    1     1     2    1
    2     1     3    1
    3     1     4    1
    4     4     5    1
    5     4     6    1
    6     4     7    1
    7     7     8    1
    8     1     9    1
    9     7     9    1
   10     9    10    1
   11     9    11    1
   12     7    12    1
   13    12    13    1
@<TRIPOS>SUBSTRUCTURE
       1 MOL1            1 RESIDUE      1      MOL     
@<SCITEGIC>MOL_PROPERTY
VConf Rank
SciTegic.value.IntegerValue
596

@<SCITEGIC>MOL_PROPERTY
Conf_Id
SciTegic.value.IntegerValue
22

@<SCITEGIC>MOL_PROPERTY
Delta U+W
SciTegic.value.DoubleValue
0.000

@<SCITEGIC>MOL_PROPERTY
U+W
SciTegic.value.DoubleValue
-3.131

@<SCITEGIC>MOL_PROPERTY
Grad RMS
SciTegic.value.DoubleValue
0.000000

@<SCITEGIC>MOL_PROPERTY
U
SciTegic.value.DoubleValue
-0.154

@<SCITEGIC>MOL_PROPERTY
W
SciTegic.value.DoubleValue
-2.978

@<SCITEGIC>MOL_PROPERTY
W(PB)
SciTegic.value.DoubleValue
-4.579

@<SCITEGIC>MOL_PROPERTY
W(SA)
SciTegic.value.DoubleValue
1.601

@<SCITEGIC>MOL_PROPERTY
Valence
SciTegic.value.DoubleValue
6.333

@<SCITEGIC>MOL_PROPERTY
Coulomb
SciTegic.value.DoubleValue
-7.439

@<SCITEGIC>MOL_PROPERTY
VdW
SciTegic.value.DoubleValue
0.952

@<SCITEGIC>MOL_PROPERTY
VdW6
SciTegic.value.DoubleValue
-2.120

@<SCITEGIC>MOL_PROPERTY
VdW12
SciTegic.value.DoubleValue
3.072

@<SCITEGIC>MOL_PROPERTY
Bond
SciTegic.value.DoubleValue
0.065

@<SCITEGIC>MOL_PROPERTY
Angle
SciTegic.value.DoubleValue
0.931

@<SCITEGIC>MOL_PROPERTY
Pdih
SciTegic.value.DoubleValue
5.338

@<SCITEGIC>MOL_PROPERTY
Idih
SciTegic.value.DoubleValue
0.000

@<SCITEGIC>MOL_PROPERTY
Tether
SciTegic.value.DoubleValue
0.000

@<TRIPOS>MOLECULE
guest-s16_confgen4.mol2 : confsearch ligand conformer 597
          13          13           1
SMALL
USER_CHARGES
 
@<TRIPOS>ATOM
       1    C1      20.261585   18.674830   21.115127 C.3        1 MOL1        -0.1693
       2    H1      19.873593   17.795956   20.583497 H          1 MOL1         0.0829
       3    H2      21.120316   19.069731   20.559275 H          1 MOL1         0.0829
       4    C2      20.473008   18.469938   22.651567 C.3        1 MOL1        -0.1768
       5    H3      21.147233   19.196439   23.122111 H          1 MOL1         0.0829
       6    H4      20.763861   17.462297   22.968171 H          1 MOL1         0.0829
       7    C3      18.958296   18.813050   22.782389 C.3        1 MOL1         0.1211
       8    H5      18.290499   17.959870   22.600204 H          1 MOL1         0.0786
       9    C4      19.174630   19.719383   21.533147 C.3        1 MOL1        -0.1768
      10    H6      19.562035   20.720485   21.759634 H          1 MOL1         0.0829
      11    H7      18.314863   19.817864   20.861535 H          1 MOL1         0.0829
      12    O1      18.593510   19.490817   23.962267 O.3        1 MOL1        -0.5515
      13    H8      18.648673   18.843721   24.698085 H          1 MOL1         0.3773
@<TRIPOS>BOND
    1     1     2    1
    2     1     3    1
    3     1     4    1
    4     4     5    1
    5     4     6    1
    6     4     7    1
    7     7     8    1
    8     1     9    1
    9     7     9    1
   10     9    10    1
   11     9    11    1
   12     7    12    1
   13    12    13    1
@<TRIPOS>SUBSTRUCTURE
       1 MOL1            1 RESIDUE      1      MOL     
@<SCITEGIC>MOL_PROPERTY
VConf Rank
SciTegic.value.IntegerValue
597

@<SCITEGIC>MOL_PROPERTY
Conf_Id
SciTegic.value.IntegerValue
19

@<SCITEGIC>MOL_PROPERTY
Delta U+W
SciTegic.value.DoubleValue
-0.011

@<SCITEGIC>MOL_PROPERTY
U+W
SciTegic.value.DoubleValue
-3.142

@<SCITEGIC>MOL_PROPERTY
Grad RMS
SciTegic.value.DoubleValue
0.000000

@<SCITEGIC>MOL_PROPERTY
U
SciTegic.value.DoubleValue
-0.154

@<SCITEGIC>MOL_PROPERTY
W
SciTegic.value.DoubleValue
-2.989

@<SCITEGIC>MOL_PROPERTY
W(PB)
SciTegic.value.DoubleValue
-4.588

@<SCITEGIC>MOL_PROPERTY
W(SA)
SciTegic.value.DoubleValue
1.599

@<SCITEGIC>MOL_PROPERTY
Valence
SciTegic.value.DoubleValue
6.334

@<SCITEGIC>MOL_PROPERTY
Coulomb
SciTegic.value.DoubleValue
-7.439

@<SCITEGIC>MOL_PROPERTY
VdW
SciTegic.value.DoubleValue
0.951

@<SCITEGIC>MOL_PROPERTY
VdW6
SciTegic.value.DoubleValue
-2.120

@<SCITEGIC>MOL_PROPERTY
VdW12
SciTegic.value.DoubleValue
3.072

@<SCITEGIC>MOL_PROPERTY
Bond
SciTegic.value.DoubleValue
0.065

@<SCITEGIC>MOL_PROPERTY
Angle
SciTegic.value.DoubleValue
0.930

@<SCITEGIC>MOL_PROPERTY
Pdih
SciTegic.value.DoubleValue
5.339

@<SCITEGIC>MOL_PROPERTY
Idih
SciTegic.value.DoubleValue
0.000

@<SCITEGIC>MOL_PROPERTY
Tether
SciTegic.value.DoubleValue
0.000

@<TRIPOS>MOLECULE
guest-s16_confgen4.mol2 : confsearch ligand conformer 598
          13          13           1
SMALL
USER_CHARGES
 
@<TRIPOS>ATOM
       1    C1      20.448290   19.022314   21.357835 C.3        1 MOL1        -0.1693
       2    H1      21.023206   19.624333   20.644378 H          1 MOL1         0.0829
       3    H2      20.752392   17.972342   21.256414 H          1 MOL1         0.0829
       4    C2      18.900418   19.252621   21.362870 C.3        1 MOL1        -0.1768
       5    H3      18.591148   20.271515   21.100247 H          1 MOL1         0.0829
       6    H4      18.306549   18.543701   20.775379 H          1 MOL1         0.0829
       7    C3      18.960158   18.978208   22.897978 C.3        1 MOL1         0.1211
       8    H5      18.258765   19.573782   23.496435 H          1 MOL1         0.0786
       9    C4      20.411149   19.549352   22.830776 C.3        1 MOL1        -0.1768
      10    H6      21.135680   19.101249   23.519695 H          1 MOL1         0.0829
      11    H7      20.468689   20.640676   22.923916 H          1 MOL1         0.0829
      12    O1      18.871029   17.615367   23.262484 O.3        1 MOL1        -0.5515
      13    H8      19.094215   17.554235   24.215693 H          1 MOL1         0.3773
@<TRIPOS>BOND
    1     1     2    1
    2     1     3    1
    3     1     4    1
    4     4     5    1
    5     4     6    1
    6     4     7    1
    7     7     8    1
    8     1     9    1
    9     7     9    1
   10     9    10    1
   11     9    11    1
   12     7    12    1
   13    12    13    1
@<TRIPOS>SUBSTRUCTURE
       1 MOL1            1 RESIDUE      1      MOL     
@<SCITEGIC>MOL_PROPERTY
VConf Rank
SciTegic.value.IntegerValue
598

@<SCITEGIC>MOL_PROPERTY
Conf_Id
SciTegic.value.IntegerValue
20

@<SCITEGIC>MOL_PROPERTY
Delta U+W
SciTegic.value.DoubleValue
1.030

@<SCITEGIC>MOL_PROPERTY
U+W
SciTegic.value.DoubleValue
-2.101

@<SCITEGIC>MOL_PROPERTY
Grad RMS
SciTegic.value.DoubleValue
0.000000

@<SCITEGIC>MOL_PROPERTY
U
SciTegic.value.DoubleValue
0.841

@<SCITEGIC>MOL_PROPERTY
W
SciTegic.value.DoubleValue
-2.942

@<SCITEGIC>MOL_PROPERTY
W(PB)
SciTegic.value.DoubleValue
-4.530

@<SCITEGIC>MOL_PROPERTY
W(SA)
SciTegic.value.DoubleValue
1.587

@<SCITEGIC>MOL_PROPERTY
Valence
SciTegic.value.DoubleValue
6.736

@<SCITEGIC>MOL_PROPERTY
Coulomb
SciTegic.value.DoubleValue
-7.246

@<SCITEGIC>MOL_PROPERTY
VdW
SciTegic.value.DoubleValue
1.352

@<SCITEGIC>MOL_PROPERTY
VdW6
SciTegic.value.DoubleValue
-2.500

@<SCITEGIC>MOL_PROPERTY
VdW12
SciTegic.value.DoubleValue
3.851

@<SCITEGIC>MOL_PROPERTY
Bond
SciTegic.value.DoubleValue
0.063

@<SCITEGIC>MOL_PROPERTY
Angle
SciTegic.value.DoubleValue
0.687

@<SCITEGIC>MOL_PROPERTY
Pdih
SciTegic.value.DoubleValue
5.986

@<SCITEGIC>MOL_PROPERTY
Idih
SciTegic.value.DoubleValue
0.000

@<SCITEGIC>MOL_PROPERTY
Tether
SciTegic.value.DoubleValue
0.000

@<TRIPOS>MOLECULE
guest-s16_confgen4.mol2 : confsearch ligand conformer 599
          13          13           1
SMALL
USER_CHARGES
 
@<TRIPOS>ATOM
       1    C1      19.497047   19.853280   23.089901 C.3        1 MOL1        -0.1693
       2    H1      19.773699   20.890247   22.857882 H          1 MOL1         0.0829
       3    H2      19.040374   19.827533   24.086500 H          1 MOL1         0.0829
       4    C2      20.622949   18.800570   22.822499 C.3        1 MOL1        -0.1768
       5    H3      21.651592   19.145565   22.974694 H          1 MOL1         0.0829
       6    H4      20.490668   17.846067   23.346726 H          1 MOL1         0.0829
       7    C3      20.115719   18.814002   21.348832 C.3        1 MOL1         0.1211
       8    H5      20.525286   19.635663   20.745656 H          1 MOL1         0.0786
       9    C4      18.712039   19.116277   21.955023 C.3        1 MOL1        -0.1768
      10    H6      18.152647   18.232339   22.285359 H          1 MOL1         0.0829
      11    H7      18.053059   19.740087   21.341104 H          1 MOL1         0.0829
      12    O1      20.226183   17.591021   20.660405 O.3        1 MOL1        -0.5515
      13    H8      19.847340   16.900186   21.243453 H          1 MOL1         0.3773
@<TRIPOS>BOND
    1     1     2    1
    2     1     3    1
    3     1     4    1
    4     4     5    1
    5     4     6    1
    6     4     7    1
    7     7     8    1
    8     1     9    1
    9     7     9    1
   10     9    10    1
   11     9    11    1
   12     7    12    1
   13    12    13    1
@<TRIPOS>SUBSTRUCTURE
       1 MOL1            1 RESIDUE      1      MOL     
@<SCITEGIC>MOL_PROPERTY
VConf Rank
SciTegic.value.IntegerValue
599

@<SCITEGIC>MOL_PROPERTY
Conf_Id
SciTegic.value.IntegerValue
24

@<SCITEGIC>MOL_PROPERTY
Delta U+W
SciTegic.value.DoubleValue
0.356

@<SCITEGIC>MOL_PROPERTY
U+W
SciTegic.value.DoubleValue
-2.775

@<SCITEGIC>MOL_PROPERTY
Grad RMS
SciTegic.value.DoubleValue
0.000000

@<SCITEGIC>MOL_PROPERTY
U
SciTegic.value.DoubleValue
-0.184

@<SCITEGIC>MOL_PROPERTY
W
SciTegic.value.DoubleValue
-2.591

@<SCITEGIC>MOL_PROPERTY
W(PB)
SciTegic.value.DoubleValue
-4.184

@<SCITEGIC>MOL_PROPERTY
W(SA)
SciTegic.value.DoubleValue
1.593

@<SCITEGIC>MOL_PROPERTY
Valence
SciTegic.value.DoubleValue
6.840

@<SCITEGIC>MOL_PROPERTY
Coulomb
SciTegic.value.DoubleValue
-7.916

@<SCITEGIC>MOL_PROPERTY
VdW
SciTegic.value.DoubleValue
0.893

@<SCITEGIC>MOL_PROPERTY
VdW6
SciTegic.value.DoubleValue
-2.167

@<SCITEGIC>MOL_PROPERTY
VdW12
SciTegic.value.DoubleValue
3.060

@<SCITEGIC>MOL_PROPERTY
Bond
SciTegic.value.DoubleValue
0.059

@<SCITEGIC>MOL_PROPERTY
Angle
SciTegic.value.DoubleValue
0.918

@<SCITEGIC>MOL_PROPERTY
Pdih
SciTegic.value.DoubleValue
5.862

@<SCITEGIC>MOL_PROPERTY
Idih
SciTegic.value.DoubleValue
0.000

@<SCITEGIC>MOL_PROPERTY
Tether
SciTegic.value.DoubleValue
0.000

@<TRIPOS>MOLECULE
guest-s16_confgen4.mol2 : confsearch ligand conformer 600
          13          13           1
SMALL
USER_CHARGES
 
@<TRIPOS>ATOM
       1    C1      18.931740   19.065100   21.386288 C.3        1 MOL1        -0.1693
       2    H1      18.351091   18.535485   20.621613 H          1 MOL1         0.0829
       3    H2      18.672737   20.130580   21.341947 H          1 MOL1         0.0829
       4    C2      20.467031   18.761200   21.412039 C.3        1 MOL1        -0.1768
       5    H3      20.734454   17.749391   21.083797 H          1 MOL1         0.0829
       6    H4      21.110366   19.478080   20.889630 H          1 MOL1         0.0829
       7    C3      20.380399   18.925606   22.961058 C.3        1 MOL1         0.1211
       8    H5      21.033945   18.254477   23.532853 H          1 MOL1         0.0786
       9    C4      18.904397   18.439992   22.821081 C.3        1 MOL1        -0.1768
      10    H6      18.788686   17.349429   22.838314 H          1 MOL1         0.0829
      11    H7      18.187592   18.877287   23.525119 H          1 MOL1         0.0829
      12    O1      20.525801   20.250718   23.424378 O.3        1 MOL1        -0.5515
      13    H8      19.923619   20.800625   22.881891 H          1 MOL1         0.3773
@<TRIPOS>BOND
    1     1     2    1
    2     1     3    1
    3     1     4    1
    4     4     5    1
    5     4     6    1
    6     4     7    1
    7     7     8    1
    8     1     9    1
    9     7     9    1
   10     9    10    1
   11     9    11    1
   12     7    12    1
   13    12    13    1
@<TRIPOS>SUBSTRUCTURE
       1 MOL1            1 RESIDUE      1      MOL     
@<SCITEGIC>MOL_PROPERTY
VConf Rank
SciTegic.value.IntegerValue
600

@<SCITEGIC>MOL_PROPERTY
Conf_Id
SciTegic.value.IntegerValue
44

@<SCITEGIC>MOL_PROPERTY
Delta U+W
SciTegic.value.DoubleValue
0.823

@<SCITEGIC>MOL_PROPERTY
U+W
SciTegic.value.DoubleValue
-2.308

@<SCITEGIC>MOL_PROPERTY
Grad RMS
SciTegic.value.DoubleValue
0.000000

@<SCITEGIC>MOL_PROPERTY
U
SciTegic.value.DoubleValue
0.039

@<SCITEGIC>MOL_PROPERTY
W
SciTegic.value.DoubleValue
-2.348

@<SCITEGIC>MOL_PROPERTY
W(PB)
SciTegic.value.DoubleValue
-3.918

@<SCITEGIC>MOL_PROPERTY
W(SA)
SciTegic.value.DoubleValue
1.571

@<SCITEGIC>MOL_PROPERTY
Valence
SciTegic.value.DoubleValue
7.320

@<SCITEGIC>MOL_PROPERTY
Coulomb
SciTegic.value.DoubleValue
-8.530

@<SCITEGIC>MOL_PROPERTY
VdW
SciTegic.value.DoubleValue
1.249

@<SCITEGIC>MOL_PROPERTY
VdW6
SciTegic.value.DoubleValue
-2.615

@<SCITEGIC>MOL_PROPERTY
VdW12
SciTegic.value.DoubleValue
3.864

@<SCITEGIC>MOL_PROPERTY
Bond
SciTegic.value.DoubleValue
0.056

@<SCITEGIC>MOL_PROPERTY
Angle
SciTegic.value.DoubleValue
0.694

@<SCITEGIC>MOL_PROPERTY
Pdih
SciTegic.value.DoubleValue
6.570

@<SCITEGIC>MOL_PROPERTY
Idih
SciTegic.value.DoubleValue
0.000

@<SCITEGIC>MOL_PROPERTY
Tether
SciTegic.value.DoubleValue
0.000

@<TRIPOS>MOLECULE
guest-s16_confgen4.mol2 : confsearch ligand conformer 601
          13          13           1
SMALL
USER_CHARGES
 
@<TRIPOS>ATOM
       1    C1      20.327172   20.183116   22.173458 C.3        1 MOL1        -0.1693
       2    H1      19.772093   21.036883   22.584011 H          1 MOL1         0.0829
       3    H2      21.318547   20.528995   21.857418 H          1 MOL1         0.0829
       4    C2      19.534070   19.326752   21.131855 C.3        1 MOL1        -0.1768
       5    H3      18.816602   19.868698   20.506160 H          1 MOL1         0.0829
       6    H4      20.156804   18.693854   20.487472 H          1 MOL1         0.0829
       7    C3      18.935456   18.595183   22.370933 C.3        1 MOL1         0.1211
       8    H5      18.081453   19.117449   22.823681 H          1 MOL1         0.0786
       9    C4      20.299611   18.895963   23.062168 C.3        1 MOL1        -0.1768
      10    H6      20.261215   19.058268   24.144921 H          1 MOL1         0.0829
      11    H7      21.092175   18.169995   22.841698 H          1 MOL1         0.0829
      12    O1      18.643760   17.230051   22.181527 O.3        1 MOL1        -0.5515
      13    H8      18.433769   16.852699   23.062840 H          1 MOL1         0.3773
@<TRIPOS>BOND
    1     1     2    1
    2     1     3    1
    3     1     4    1
    4     4     5    1
    5     4     6    1
    6     4     7    1
    7     7     8    1
    8     1     9    1
    9     7     9    1
   10     9    10    1
   11     9    11    1
   12     7    12    1
   13    12    13    1
@<TRIPOS>SUBSTRUCTURE
       1 MOL1            1 RESIDUE      1      MOL     
@<SCITEGIC>MOL_PROPERTY
VConf Rank
SciTegic.value.IntegerValue
601

@<SCITEGIC>MOL_PROPERTY
Conf_Id
SciTegic.value.IntegerValue
22

@<SCITEGIC>MOL_PROPERTY
Delta U+W
SciTegic.value.DoubleValue
0.000

@<SCITEGIC>MOL_PROPERTY
U+W
SciTegic.value.DoubleValue
-3.131

@<SCITEGIC>MOL_PROPERTY
Grad RMS
SciTegic.value.DoubleValue
0.000000

@<SCITEGIC>MOL_PROPERTY
U
SciTegic.value.DoubleValue
-0.154

@<SCITEGIC>MOL_PROPERTY
W
SciTegic.value.DoubleValue
-2.978

@<SCITEGIC>MOL_PROPERTY
W(PB)
SciTegic.value.DoubleValue
-4.579

@<SCITEGIC>MOL_PROPERTY
W(SA)
SciTegic.value.DoubleValue
1.601

@<SCITEGIC>MOL_PROPERTY
Valence
SciTegic.value.DoubleValue
6.333

@<SCITEGIC>MOL_PROPERTY
Coulomb
SciTegic.value.DoubleValue
-7.439

@<SCITEGIC>MOL_PROPERTY
VdW
SciTegic.value.DoubleValue
0.952

@<SCITEGIC>MOL_PROPERTY
VdW6
SciTegic.value.DoubleValue
-2.120

@<SCITEGIC>MOL_PROPERTY
VdW12
SciTegic.value.DoubleValue
3.072

@<SCITEGIC>MOL_PROPERTY
Bond
SciTegic.value.DoubleValue
0.065

@<SCITEGIC>MOL_PROPERTY
Angle
SciTegic.value.DoubleValue
0.931

@<SCITEGIC>MOL_PROPERTY
Pdih
SciTegic.value.DoubleValue
5.338

@<SCITEGIC>MOL_PROPERTY
Idih
SciTegic.value.DoubleValue
0.000

@<SCITEGIC>MOL_PROPERTY
Tether
SciTegic.value.DoubleValue
0.000

@<TRIPOS>MOLECULE
guest-s16_confgen4.mol2 : confsearch ligand conformer 602
          13          13           1
SMALL
USER_CHARGES
 
@<TRIPOS>ATOM
       1    C1      19.682511   18.000330   21.306698 C.3        1 MOL1        -0.1693
       2    H1      18.859345   18.064805   20.582939 H          1 MOL1         0.0829
       3    H2      20.299139   17.128044   21.059259 H          1 MOL1         0.0829
       4    C2      19.249528   18.133182   22.804098 C.3        1 MOL1        -0.1768
       5    H3      19.980595   17.751854   23.527923 H          1 MOL1         0.0829
       6    H4      18.261200   17.734234   23.057514 H          1 MOL1         0.0829
       7    C3      19.320177   19.671150   22.561490 C.3        1 MOL1         0.1211
       8    H5      18.416830   20.091476   22.098508 H          1 MOL1         0.0786
       9    C4      20.452714   19.341329   21.542951 C.3        1 MOL1        -0.1768
      10    H6      21.447679   19.227340   21.990874 H          1 MOL1         0.0829
      11    H7      20.529033   20.013524   20.681389 H          1 MOL1         0.0829
      12    O1      19.715780   20.439329   23.674122 O.3        1 MOL1        -0.5515
      13    H8      18.967566   20.437783   24.309243 H          1 MOL1         0.3773
@<TRIPOS>BOND
    1     1     2    1
    2     1     3    1
    3     1     4    1
    4     4     5    1
    5     4     6    1
    6     4     7    1
    7     7     8    1
    8     1     9    1
    9     7     9    1
   10     9    10    1
   11     9    11    1
   12     7    12    1
   13    12    13    1
@<TRIPOS>SUBSTRUCTURE
       1 MOL1            1 RESIDUE      1      MOL     
@<SCITEGIC>MOL_PROPERTY
VConf Rank
SciTegic.value.IntegerValue
602

@<SCITEGIC>MOL_PROPERTY
Conf_Id
SciTegic.value.IntegerValue
19

@<SCITEGIC>MOL_PROPERTY
Delta U+W
SciTegic.value.DoubleValue
-0.011

@<SCITEGIC>MOL_PROPERTY
U+W
SciTegic.value.DoubleValue
-3.142

@<SCITEGIC>MOL_PROPERTY
Grad RMS
SciTegic.value.DoubleValue
0.000000

@<SCITEGIC>MOL_PROPERTY
U
SciTegic.value.DoubleValue
-0.154

@<SCITEGIC>MOL_PROPERTY
W
SciTegic.value.DoubleValue
-2.989

@<SCITEGIC>MOL_PROPERTY
W(PB)
SciTegic.value.DoubleValue
-4.588

@<SCITEGIC>MOL_PROPERTY
W(SA)
SciTegic.value.DoubleValue
1.599

@<SCITEGIC>MOL_PROPERTY
Valence
SciTegic.value.DoubleValue
6.334

@<SCITEGIC>MOL_PROPERTY
Coulomb
SciTegic.value.DoubleValue
-7.439

@<SCITEGIC>MOL_PROPERTY
VdW
SciTegic.value.DoubleValue
0.951

@<SCITEGIC>MOL_PROPERTY
VdW6
SciTegic.value.DoubleValue
-2.120

@<SCITEGIC>MOL_PROPERTY
VdW12
SciTegic.value.DoubleValue
3.072

@<SCITEGIC>MOL_PROPERTY
Bond
SciTegic.value.DoubleValue
0.065

@<SCITEGIC>MOL_PROPERTY
Angle
SciTegic.value.DoubleValue
0.930

@<SCITEGIC>MOL_PROPERTY
Pdih
SciTegic.value.DoubleValue
5.339

@<SCITEGIC>MOL_PROPERTY
Idih
SciTegic.value.DoubleValue
0.000

@<SCITEGIC>MOL_PROPERTY
Tether
SciTegic.value.DoubleValue
0.000

@<TRIPOS>MOLECULE
guest-s16_confgen4.mol2 : confsearch ligand conformer 603
          13          13           1
SMALL
USER_CHARGES
 
@<TRIPOS>ATOM
       1    C1      19.578072   20.213307   22.692890 C.3        1 MOL1        -0.1693
       2    H1      19.559533   20.850961   23.584535 H          1 MOL1         0.0829
       3    H2      19.619379   20.855043   21.803129 H          1 MOL1         0.0829
       4    C2      18.495122   19.085347   22.630458 C.3        1 MOL1        -0.1768
       5    H3      18.195905   18.687271   23.607581 H          1 MOL1         0.0829
       6    H4      17.592069   19.316644   22.054793 H          1 MOL1         0.0829
       7    C3      19.568650   18.226703   21.891744 C.3        1 MOL1         0.1211
       8    H5      19.539013   17.155280   22.128361 H          1 MOL1         0.0786
       9    C4      20.620784   19.046532   22.702293 C.3        1 MOL1        -0.1768
      10    H6      21.569781   19.246293   22.192537 H          1 MOL1         0.0829
      11    H7      20.837275   18.639318   23.697422 H          1 MOL1         0.0829
      12    O1      19.617482   18.411667   20.491191 O.3        1 MOL1        -0.5515
      13    H8      20.428620   17.965331   20.167164 H          1 MOL1         0.3773
@<TRIPOS>BOND
    1     1     2    1
    2     1     3    1
    3     1     4    1
    4     4     5    1
    5     4     6    1
    6     4     7    1
    7     7     8    1
    8     1     9    1
    9     7     9    1
   10     9    10    1
   11     9    11    1
   12     7    12    1
   13    12    13    1
@<TRIPOS>SUBSTRUCTURE
       1 MOL1            1 RESIDUE      1      MOL     
@<SCITEGIC>MOL_PROPERTY
VConf Rank
SciTegic.value.IntegerValue
603

@<SCITEGIC>MOL_PROPERTY
Conf_Id
SciTegic.value.IntegerValue
20

@<SCITEGIC>MOL_PROPERTY
Delta U+W
SciTegic.value.DoubleValue
1.030

@<SCITEGIC>MOL_PROPERTY
U+W
SciTegic.value.DoubleValue
-2.101

@<SCITEGIC>MOL_PROPERTY
Grad RMS
SciTegic.value.DoubleValue
0.000000

@<SCITEGIC>MOL_PROPERTY
U
SciTegic.value.DoubleValue
0.841

@<SCITEGIC>MOL_PROPERTY
W
SciTegic.value.DoubleValue
-2.942

@<SCITEGIC>MOL_PROPERTY
W(PB)
SciTegic.value.DoubleValue
-4.530

@<SCITEGIC>MOL_PROPERTY
W(SA)
SciTegic.value.DoubleValue
1.587

@<SCITEGIC>MOL_PROPERTY
Valence
SciTegic.value.DoubleValue
6.736

@<SCITEGIC>MOL_PROPERTY
Coulomb
SciTegic.value.DoubleValue
-7.246

@<SCITEGIC>MOL_PROPERTY
VdW
SciTegic.value.DoubleValue
1.352

@<SCITEGIC>MOL_PROPERTY
VdW6
SciTegic.value.DoubleValue
-2.500

@<SCITEGIC>MOL_PROPERTY
VdW12
SciTegic.value.DoubleValue
3.851

@<SCITEGIC>MOL_PROPERTY
Bond
SciTegic.value.DoubleValue
0.063

@<SCITEGIC>MOL_PROPERTY
Angle
SciTegic.value.DoubleValue
0.687

@<SCITEGIC>MOL_PROPERTY
Pdih
SciTegic.value.DoubleValue
5.986

@<SCITEGIC>MOL_PROPERTY
Idih
SciTegic.value.DoubleValue
0.000

@<SCITEGIC>MOL_PROPERTY
Tether
SciTegic.value.DoubleValue
0.000

@<TRIPOS>MOLECULE
guest-s16_confgen4.mol2 : confsearch ligand conformer 604
          13          13           1
SMALL
USER_CHARGES
 
@<TRIPOS>ATOM
       1    C1      18.656441   18.576134   22.770391 C.3        1 MOL1        -0.1693
       2    H1      18.038520   17.835242   22.246062 H          1 MOL1         0.0829
       3    H2      18.163030   18.838641   23.713820 H          1 MOL1         0.0829
       4    C2      19.130493   19.776106   21.885688 C.3        1 MOL1        -0.1768
       5    H3      18.443726   20.091060   21.092311 H          1 MOL1         0.0829
       6    H4      19.447791   20.662408   22.448873 H          1 MOL1         0.0829
       7    C3      20.289102   18.832443   21.442650 C.3        1 MOL1         0.1211
       8    H5      20.014790   18.142071   20.633433 H          1 MOL1         0.0786
       9    C4      20.174487   18.210744   22.867258 C.3        1 MOL1        -0.1768
      10    H6      20.725130   18.747169   23.649837 H          1 MOL1         0.0829
      11    H7      20.409727   17.143246   22.940756 H          1 MOL1         0.0829
      12    O1      21.511848   19.469217   21.157642 O.3        1 MOL1        -0.5515
      13    H8      21.703517   20.068356   21.909316 H          1 MOL1         0.3773
@<TRIPOS>BOND
    1     1     2    1
    2     1     3    1
    3     1     4    1
    4     4     5    1
    5     4     6    1
    6     4     7    1
    7     7     8    1
    8     1     9    1
    9     7     9    1
   10     9    10    1
   11     9    11    1
   12     7    12    1
   13    12    13    1
@<TRIPOS>SUBSTRUCTURE
       1 MOL1            1 RESIDUE      1      MOL     
@<SCITEGIC>MOL_PROPERTY
VConf Rank
SciTegic.value.IntegerValue
604

@<SCITEGIC>MOL_PROPERTY
Conf_Id
SciTegic.value.IntegerValue
24

@<SCITEGIC>MOL_PROPERTY
Delta U+W
SciTegic.value.DoubleValue
0.356

@<SCITEGIC>MOL_PROPERTY
U+W
SciTegic.value.DoubleValue
-2.775

@<SCITEGIC>MOL_PROPERTY
Grad RMS
SciTegic.value.DoubleValue
0.000000

@<SCITEGIC>MOL_PROPERTY
U
SciTegic.value.DoubleValue
-0.184

@<SCITEGIC>MOL_PROPERTY
W
SciTegic.value.DoubleValue
-2.591

@<SCITEGIC>MOL_PROPERTY
W(PB)
SciTegic.value.DoubleValue
-4.184

@<SCITEGIC>MOL_PROPERTY
W(SA)
SciTegic.value.DoubleValue
1.593

@<SCITEGIC>MOL_PROPERTY
Valence
SciTegic.value.DoubleValue
6.840

@<SCITEGIC>MOL_PROPERTY
Coulomb
SciTegic.value.DoubleValue
-7.916

@<SCITEGIC>MOL_PROPERTY
VdW
SciTegic.value.DoubleValue
0.893

@<SCITEGIC>MOL_PROPERTY
VdW6
SciTegic.value.DoubleValue
-2.167

@<SCITEGIC>MOL_PROPERTY
VdW12
SciTegic.value.DoubleValue
3.060

@<SCITEGIC>MOL_PROPERTY
Bond
SciTegic.value.DoubleValue
0.059

@<SCITEGIC>MOL_PROPERTY
Angle
SciTegic.value.DoubleValue
0.918

@<SCITEGIC>MOL_PROPERTY
Pdih
SciTegic.value.DoubleValue
5.862

@<SCITEGIC>MOL_PROPERTY
Idih
SciTegic.value.DoubleValue
0.000

@<SCITEGIC>MOL_PROPERTY
Tether
SciTegic.value.DoubleValue
0.000

@<TRIPOS>MOLECULE
guest-s16_confgen4.mol2 : confsearch ligand conformer 605
          13          13           1
SMALL
USER_CHARGES
 
@<TRIPOS>ATOM
       1    C1      19.395002   19.381861   21.205261 C.3        1 MOL1        -0.1693
       2    H1      19.705373   19.560376   20.168837 H          1 MOL1         0.0829
       3    H2      18.369963   19.753724   21.328993 H          1 MOL1         0.0829
       4    C2      20.401665   19.845832   22.310476 C.3        1 MOL1        -0.1768
       5    H3      21.455643   19.804998   22.009678 H          1 MOL1         0.0829
       6    H4      20.206159   20.824969   22.761892 H          1 MOL1         0.0829
       7    C3      19.926353   18.608528   23.133367 C.3        1 MOL1         0.1211
       8    H5      20.709676   18.123104   23.729401 H          1 MOL1         0.0786
       9    C4      19.642005   17.936941   21.754196 C.3        1 MOL1        -0.1768
      10    H6      20.509724   17.428076   21.317007 H          1 MOL1         0.0829
      11    H7      18.785280   17.254551   21.721418 H          1 MOL1         0.0829
      12    O1      18.782782   18.831547   23.929756 O.3        1 MOL1        -0.5515
      13    H8      18.122231   19.263465   23.349728 H          1 MOL1         0.3773
@<TRIPOS>BOND
    1     1     2    1
    2     1     3    1
    3     1     4    1
    4     4     5    1
    5     4     6    1
    6     4     7    1
    7     7     8    1
    8     1     9    1
    9     7     9    1
   10     9    10    1
   11     9    11    1
   12     7    12    1
   13    12    13    1
@<TRIPOS>SUBSTRUCTURE
       1 MOL1            1 RESIDUE      1      MOL     
@<SCITEGIC>MOL_PROPERTY
VConf Rank
SciTegic.value.IntegerValue
605

@<SCITEGIC>MOL_PROPERTY
Conf_Id
SciTegic.value.IntegerValue
44

@<SCITEGIC>MOL_PROPERTY
Delta U+W
SciTegic.value.DoubleValue
0.823

@<SCITEGIC>MOL_PROPERTY
U+W
SciTegic.value.DoubleValue
-2.308

@<SCITEGIC>MOL_PROPERTY
Grad RMS
SciTegic.value.DoubleValue
0.000000

@<SCITEGIC>MOL_PROPERTY
U
SciTegic.value.DoubleValue
0.039

@<SCITEGIC>MOL_PROPERTY
W
SciTegic.value.DoubleValue
-2.348

@<SCITEGIC>MOL_PROPERTY
W(PB)
SciTegic.value.DoubleValue
-3.918

@<SCITEGIC>MOL_PROPERTY
W(SA)
SciTegic.value.DoubleValue
1.571

@<SCITEGIC>MOL_PROPERTY
Valence
SciTegic.value.DoubleValue
7.320

@<SCITEGIC>MOL_PROPERTY
Coulomb
SciTegic.value.DoubleValue
-8.530

@<SCITEGIC>MOL_PROPERTY
VdW
SciTegic.value.DoubleValue
1.249

@<SCITEGIC>MOL_PROPERTY
VdW6
SciTegic.value.DoubleValue
-2.615

@<SCITEGIC>MOL_PROPERTY
VdW12
SciTegic.value.DoubleValue
3.864

@<SCITEGIC>MOL_PROPERTY
Bond
SciTegic.value.DoubleValue
0.056

@<SCITEGIC>MOL_PROPERTY
Angle
SciTegic.value.DoubleValue
0.694

@<SCITEGIC>MOL_PROPERTY
Pdih
SciTegic.value.DoubleValue
6.570

@<SCITEGIC>MOL_PROPERTY
Idih
SciTegic.value.DoubleValue
0.000

@<SCITEGIC>MOL_PROPERTY
Tether
SciTegic.value.DoubleValue
0.000

@<TRIPOS>MOLECULE
guest-s16_confgen4.mol2 : confsearch ligand conformer 606
          13          13           1
SMALL
USER_CHARGES
 
@<TRIPOS>ATOM
       1    C1      19.831161   17.745582   22.071315 C.3        1 MOL1        -0.1693
       2    H1      19.141476   17.314779   21.333529 H          1 MOL1         0.0829
       3    H2      20.509332   16.957269   22.419146 H          1 MOL1         0.0829
       4    C2      19.145323   18.602854   23.185773 C.3        1 MOL1        -0.1768
       5    H3      18.141444   18.287056   23.489845 H          1 MOL1         0.0829
       6    H4      19.753666   18.759283   24.085236 H          1 MOL1         0.0829
       7    C3      19.205272   19.770102   22.154858 C.3        1 MOL1         0.1211
       8    H5      18.377687   19.765659   21.432262 H          1 MOL1         0.0786
       9    C4      20.505134   19.087280   21.632072 C.3        1 MOL1        -0.1768
      10    H6      20.705553   19.198152   20.560759 H          1 MOL1         0.0829
      11    H7      21.413088   19.348025   22.190129 H          1 MOL1         0.0829
      12    O1      19.379434   21.053902   22.708096 O.3        1 MOL1        -0.5515
      13    H8      19.564157   21.667964   21.965123 H          1 MOL1         0.3773
@<TRIPOS>BOND
    1     1     2    1
    2     1     3    1
    3     1     4    1
    4     4     5    1
    5     4     6    1
    6     4     7    1
    7     7     8    1
    8     1     9    1
    9     7     9    1
   10     9    10    1
   11     9    11    1
   12     7    12    1
   13    12    13    1
@<TRIPOS>SUBSTRUCTURE
       1 MOL1            1 RESIDUE      1      MOL     
@<SCITEGIC>MOL_PROPERTY
VConf Rank
SciTegic.value.IntegerValue
606

@<SCITEGIC>MOL_PROPERTY
Conf_Id
SciTegic.value.IntegerValue
22

@<SCITEGIC>MOL_PROPERTY
Delta U+W
SciTegic.value.DoubleValue
0.000

@<SCITEGIC>MOL_PROPERTY
U+W
SciTegic.value.DoubleValue
-3.131

@<SCITEGIC>MOL_PROPERTY
Grad RMS
SciTegic.value.DoubleValue
0.000000

@<SCITEGIC>MOL_PROPERTY
U
SciTegic.value.DoubleValue
-0.154

@<SCITEGIC>MOL_PROPERTY
W
SciTegic.value.DoubleValue
-2.978

@<SCITEGIC>MOL_PROPERTY
W(PB)
SciTegic.value.DoubleValue
-4.579

@<SCITEGIC>MOL_PROPERTY
W(SA)
SciTegic.value.DoubleValue
1.601

@<SCITEGIC>MOL_PROPERTY
Valence
SciTegic.value.DoubleValue
6.333

@<SCITEGIC>MOL_PROPERTY
Coulomb
SciTegic.value.DoubleValue
-7.439

@<SCITEGIC>MOL_PROPERTY
VdW
SciTegic.value.DoubleValue
0.952

@<SCITEGIC>MOL_PROPERTY
VdW6
SciTegic.value.DoubleValue
-2.120

@<SCITEGIC>MOL_PROPERTY
VdW12
SciTegic.value.DoubleValue
3.072

@<SCITEGIC>MOL_PROPERTY
Bond
SciTegic.value.DoubleValue
0.065

@<SCITEGIC>MOL_PROPERTY
Angle
SciTegic.value.DoubleValue
0.931

@<SCITEGIC>MOL_PROPERTY
Pdih
SciTegic.value.DoubleValue
5.338

@<SCITEGIC>MOL_PROPERTY
Idih
SciTegic.value.DoubleValue
0.000

@<SCITEGIC>MOL_PROPERTY
Tether
SciTegic.value.DoubleValue
0.000

@<TRIPOS>MOLECULE
guest-s16_confgen4.mol2 : confsearch ligand conformer 607
          13          13           1
SMALL
USER_CHARGES
 
@<TRIPOS>ATOM
       1    C1      18.660428   18.288211   22.875213 C.3        1 MOL1        -0.1693
       2    H1      18.496014   18.645803   23.900241 H          1 MOL1         0.0829
       3    H2      17.984548   17.445920   22.685297 H          1 MOL1         0.0829
       4    C2      20.160780   18.065026   22.492507 C.3        1 MOL1        -0.1768
       5    H3      20.319923   17.416070   21.622264 H          1 MOL1         0.0829
       6    H4      20.821431   17.737084   23.302548 H          1 MOL1         0.0829
       7    C3      20.180334   19.590740   22.174687 C.3        1 MOL1         0.1211
       8    H5      20.335792   20.227856   23.056150 H          1 MOL1         0.0786
       9    C4      18.681860   19.410909   21.785996 C.3        1 MOL1        -0.1768
      10    H6      18.517616   19.059207   20.759880 H          1 MOL1         0.0829
      11    H7      18.035033   20.275636   21.969905 H          1 MOL1         0.0829
      12    O1      21.033475   19.976274   21.122041 O.3        1 MOL1        -0.5515
      13    H8      21.954866   19.895644   21.450280 H          1 MOL1         0.3773
@<TRIPOS>BOND
    1     1     2    1
    2     1     3    1
    3     1     4    1
    4     4     5    1
    5     4     6    1
    6     4     7    1
    7     7     8    1
    8     1     9    1
    9     7     9    1
   10     9    10    1
   11     9    11    1
   12     7    12    1
   13    12    13    1
@<TRIPOS>SUBSTRUCTURE
       1 MOL1            1 RESIDUE      1      MOL     
@<SCITEGIC>MOL_PROPERTY
VConf Rank
SciTegic.value.IntegerValue
607

@<SCITEGIC>MOL_PROPERTY
Conf_Id
SciTegic.value.IntegerValue
19

@<SCITEGIC>MOL_PROPERTY
Delta U+W
SciTegic.value.DoubleValue
-0.011

@<SCITEGIC>MOL_PROPERTY
U+W
SciTegic.value.DoubleValue
-3.142

@<SCITEGIC>MOL_PROPERTY
Grad RMS
SciTegic.value.DoubleValue
0.000000

@<SCITEGIC>MOL_PROPERTY
U
SciTegic.value.DoubleValue
-0.154

@<SCITEGIC>MOL_PROPERTY
W
SciTegic.value.DoubleValue
-2.989

@<SCITEGIC>MOL_PROPERTY
W(PB)
SciTegic.value.DoubleValue
-4.588

@<SCITEGIC>MOL_PROPERTY
W(SA)
SciTegic.value.DoubleValue
1.599

@<SCITEGIC>MOL_PROPERTY
Valence
SciTegic.value.DoubleValue
6.334

@<SCITEGIC>MOL_PROPERTY
Coulomb
SciTegic.value.DoubleValue
-7.439

@<SCITEGIC>MOL_PROPERTY
VdW
SciTegic.value.DoubleValue
0.951

@<SCITEGIC>MOL_PROPERTY
VdW6
SciTegic.value.DoubleValue
-2.120

@<SCITEGIC>MOL_PROPERTY
VdW12
SciTegic.value.DoubleValue
3.072

@<SCITEGIC>MOL_PROPERTY
Bond
SciTegic.value.DoubleValue
0.065

@<SCITEGIC>MOL_PROPERTY
Angle
SciTegic.value.DoubleValue
0.930

@<SCITEGIC>MOL_PROPERTY
Pdih
SciTegic.value.DoubleValue
5.339

@<SCITEGIC>MOL_PROPERTY
Idih
SciTegic.value.DoubleValue
0.000

@<SCITEGIC>MOL_PROPERTY
Tether
SciTegic.value.DoubleValue
0.000

@<TRIPOS>MOLECULE
guest-s16_confgen4.mol2 : confsearch ligand conformer 608
          13          13           1
SMALL
USER_CHARGES
 
@<TRIPOS>ATOM
       1    C1      19.708805   19.021398   23.509418 C.3        1 MOL1        -0.1693
       2    H1      19.400759   18.487587   24.416132 H          1 MOL1         0.0829
       3    H2      20.411184   19.816519   23.791646 H          1 MOL1         0.0829
       4    C2      18.556160   19.481236   22.556040 C.3        1 MOL1        -0.1768
       5    H3      17.675181   18.828066   22.559246 H          1 MOL1         0.0829
       6    H4      18.223451   20.518993   22.668995 H          1 MOL1         0.0829
       7    C3      19.548016   19.211258   21.381833 C.3        1 MOL1         0.1211
       8    H5      19.080815   18.816404   20.470446 H          1 MOL1         0.0786
       9    C4      20.181456   18.130533   22.312897 C.3        1 MOL1        -0.1768
      10    H6      21.263719   17.989398   22.217290 H          1 MOL1         0.0829
      11    H7      19.694562   17.149285   22.257575 H          1 MOL1         0.0829
      12    O1      20.397438   20.294282   21.059829 O.3        1 MOL1        -0.5515
      13    H8      21.080141   19.954739   20.442753 H          1 MOL1         0.3773
@<TRIPOS>BOND
    1     1     2    1
    2     1     3    1
    3     1     4    1
    4     4     5    1
    5     4     6    1
    6     4     7    1
    7     7     8    1
    8     1     9    1
    9     7     9    1
   10     9    10    1
   11     9    11    1
   12     7    12    1
   13    12    13    1
@<TRIPOS>SUBSTRUCTURE
       1 MOL1            1 RESIDUE      1      MOL     
@<SCITEGIC>MOL_PROPERTY
VConf Rank
SciTegic.value.IntegerValue
608

@<SCITEGIC>MOL_PROPERTY
Conf_Id
SciTegic.value.IntegerValue
20

@<SCITEGIC>MOL_PROPERTY
Delta U+W
SciTegic.value.DoubleValue
1.030

@<SCITEGIC>MOL_PROPERTY
U+W
SciTegic.value.DoubleValue
-2.101

@<SCITEGIC>MOL_PROPERTY
Grad RMS
SciTegic.value.DoubleValue
0.000000

@<SCITEGIC>MOL_PROPERTY
U
SciTegic.value.DoubleValue
0.841

@<SCITEGIC>MOL_PROPERTY
W
SciTegic.value.DoubleValue
-2.942

@<SCITEGIC>MOL_PROPERTY
W(PB)
SciTegic.value.DoubleValue
-4.530

@<SCITEGIC>MOL_PROPERTY
W(SA)
SciTegic.value.DoubleValue
1.587

@<SCITEGIC>MOL_PROPERTY
Valence
SciTegic.value.DoubleValue
6.736

@<SCITEGIC>MOL_PROPERTY
Coulomb
SciTegic.value.DoubleValue
-7.246

@<SCITEGIC>MOL_PROPERTY
VdW
SciTegic.value.DoubleValue
1.352

@<SCITEGIC>MOL_PROPERTY
VdW6
SciTegic.value.DoubleValue
-2.500

@<SCITEGIC>MOL_PROPERTY
VdW12
SciTegic.value.DoubleValue
3.851

@<SCITEGIC>MOL_PROPERTY
Bond
SciTegic.value.DoubleValue
0.063

@<SCITEGIC>MOL_PROPERTY
Angle
SciTegic.value.DoubleValue
0.687

@<SCITEGIC>MOL_PROPERTY
Pdih
SciTegic.value.DoubleValue
5.986

@<SCITEGIC>MOL_PROPERTY
Idih
SciTegic.value.DoubleValue
0.000

@<SCITEGIC>MOL_PROPERTY
Tether
SciTegic.value.DoubleValue
0.000

@<TRIPOS>MOLECULE
guest-s16_confgen4.mol2 : confsearch ligand conformer 609
          13          13           1
SMALL
USER_CHARGES
 
@<TRIPOS>ATOM
       1    C1      19.413682   19.687432   23.208579 C.3        1 MOL1        -0.1693
       2    H1      19.462138   20.777366   23.084619 H          1 MOL1         0.0829
       3    H2      19.067980   19.465879   24.225351 H          1 MOL1         0.0829
       4    C2      20.690260   18.917832   22.733795 C.3        1 MOL1        -0.1768
       5    H3      21.643049   19.445752   22.851210 H          1 MOL1         0.0829
       6    H4      20.794891   17.906827   23.146481 H          1 MOL1         0.0829
       7    C3      20.051307   18.982466   21.313683 C.3        1 MOL1         0.1211
       8    H5      20.235494   19.928406   20.786457 H          1 MOL1         0.0786
       9    C4      18.680252   18.929759   22.052997 C.3        1 MOL1        -0.1768
      10    H6      18.335621   17.921420   22.313517 H          1 MOL1         0.0829
      11    H7      17.857898   19.468210   21.569163 H          1 MOL1         0.0829
      12    O1      20.328654   17.885860   20.475619 O.3        1 MOL1        -0.5515
      13    H8      20.147375   17.075628   20.996562 H          1 MOL1         0.3773
@<TRIPOS>BOND
    1     1     2    1
    2     1     3    1
    3     1     4    1
    4     4     5    1
    5     4     6    1
    6     4     7    1
    7     7     8    1
    8     1     9    1
    9     7     9    1
   10     9    10    1
   11     9    11    1
   12     7    12    1
   13    12    13    1
@<TRIPOS>SUBSTRUCTURE
       1 MOL1            1 RESIDUE      1      MOL     
@<SCITEGIC>MOL_PROPERTY
VConf Rank
SciTegic.value.IntegerValue
609

@<SCITEGIC>MOL_PROPERTY
Conf_Id
SciTegic.value.IntegerValue
24

@<SCITEGIC>MOL_PROPERTY
Delta U+W
SciTegic.value.DoubleValue
0.356

@<SCITEGIC>MOL_PROPERTY
U+W
SciTegic.value.DoubleValue
-2.775

@<SCITEGIC>MOL_PROPERTY
Grad RMS
SciTegic.value.DoubleValue
0.000000

@<SCITEGIC>MOL_PROPERTY
U
SciTegic.value.DoubleValue
-0.184

@<SCITEGIC>MOL_PROPERTY
W
SciTegic.value.DoubleValue
-2.591

@<SCITEGIC>MOL_PROPERTY
W(PB)
SciTegic.value.DoubleValue
-4.184

@<SCITEGIC>MOL_PROPERTY
W(SA)
SciTegic.value.DoubleValue
1.593

@<SCITEGIC>MOL_PROPERTY
Valence
SciTegic.value.DoubleValue
6.840

@<SCITEGIC>MOL_PROPERTY
Coulomb
SciTegic.value.DoubleValue
-7.916

@<SCITEGIC>MOL_PROPERTY
VdW
SciTegic.value.DoubleValue
0.893

@<SCITEGIC>MOL_PROPERTY
VdW6
SciTegic.value.DoubleValue
-2.167

@<SCITEGIC>MOL_PROPERTY
VdW12
SciTegic.value.DoubleValue
3.060

@<SCITEGIC>MOL_PROPERTY
Bond
SciTegic.value.DoubleValue
0.059

@<SCITEGIC>MOL_PROPERTY
Angle
SciTegic.value.DoubleValue
0.918

@<SCITEGIC>MOL_PROPERTY
Pdih
SciTegic.value.DoubleValue
5.862

@<SCITEGIC>MOL_PROPERTY
Idih
SciTegic.value.DoubleValue
0.000

@<SCITEGIC>MOL_PROPERTY
Tether
SciTegic.value.DoubleValue
0.000

@<TRIPOS>MOLECULE
guest-s16_confgen4.mol2 : confsearch ligand conformer 610
          13          13           1
SMALL
USER_CHARGES
 
@<TRIPOS>ATOM
       1    C1      20.212316   19.569657   21.410670 C.3        1 MOL1        -0.1693
       2    H1      20.536678   19.597809   20.363593 H          1 MOL1         0.0829
       3    H2      20.511613   20.509578   21.891569 H          1 MOL1         0.0829
       4    C2      20.584238   18.274743   22.207544 C.3        1 MOL1        -0.1768
       5    H3      20.636798   17.365622   21.596191 H          1 MOL1         0.0829
       6    H4      21.486740   18.330709   22.826468 H          1 MOL1         0.0829
       7    C3      19.229553   18.458703   22.959195 C.3        1 MOL1         0.1211
       8    H5      18.713947   17.524220   23.214885 H          1 MOL1         0.0786
       9    C4      18.724309   19.149754   21.654905 C.3        1 MOL1        -0.1768
      10    H6      18.320842   18.455175   20.908052 H          1 MOL1         0.0829
      11    H7      18.007901   19.967344   21.792801 H          1 MOL1         0.0829
      12    O1      19.289977   19.301201   24.089802 O.3        1 MOL1        -0.5515
      13    H8      19.756946   20.113457   23.804332 H          1 MOL1         0.3773
@<TRIPOS>BOND
    1     1     2    1
    2     1     3    1
    3     1     4    1
    4     4     5    1
    5     4     6    1
    6     4     7    1
    7     7     8    1
    8     1     9    1
    9     7     9    1
   10     9    10    1
   11     9    11    1
   12     7    12    1
   13    12    13    1
@<TRIPOS>SUBSTRUCTURE
       1 MOL1            1 RESIDUE      1      MOL     
@<SCITEGIC>MOL_PROPERTY
VConf Rank
SciTegic.value.IntegerValue
610

@<SCITEGIC>MOL_PROPERTY
Conf_Id
SciTegic.value.IntegerValue
44

@<SCITEGIC>MOL_PROPERTY
Delta U+W
SciTegic.value.DoubleValue
0.823

@<SCITEGIC>MOL_PROPERTY
U+W
SciTegic.value.DoubleValue
-2.308

@<SCITEGIC>MOL_PROPERTY
Grad RMS
SciTegic.value.DoubleValue
0.000000

@<SCITEGIC>MOL_PROPERTY
U
SciTegic.value.DoubleValue
0.039

@<SCITEGIC>MOL_PROPERTY
W
SciTegic.value.DoubleValue
-2.348

@<SCITEGIC>MOL_PROPERTY
W(PB)
SciTegic.value.DoubleValue
-3.918

@<SCITEGIC>MOL_PROPERTY
W(SA)
SciTegic.value.DoubleValue
1.571

@<SCITEGIC>MOL_PROPERTY
Valence
SciTegic.value.DoubleValue
7.320

@<SCITEGIC>MOL_PROPERTY
Coulomb
SciTegic.value.DoubleValue
-8.530

@<SCITEGIC>MOL_PROPERTY
VdW
SciTegic.value.DoubleValue
1.249

@<SCITEGIC>MOL_PROPERTY
VdW6
SciTegic.value.DoubleValue
-2.615

@<SCITEGIC>MOL_PROPERTY
VdW12
SciTegic.value.DoubleValue
3.864

@<SCITEGIC>MOL_PROPERTY
Bond
SciTegic.value.DoubleValue
0.056

@<SCITEGIC>MOL_PROPERTY
Angle
SciTegic.value.DoubleValue
0.694

@<SCITEGIC>MOL_PROPERTY
Pdih
SciTegic.value.DoubleValue
6.570

@<SCITEGIC>MOL_PROPERTY
Idih
SciTegic.value.DoubleValue
0.000

@<SCITEGIC>MOL_PROPERTY
Tether
SciTegic.value.DoubleValue
0.000

@<TRIPOS>MOLECULE
guest-s16_confgen4.mol2 : confsearch ligand conformer 611
          13          13           1
SMALL
USER_CHARGES
 
@<TRIPOS>ATOM
       1    C1      18.449990   19.322938   21.822336 C.3        1 MOL1        -0.1693
       2    H1      18.292319   20.390898   21.621865 H          1 MOL1         0.0829
       3    H2      17.537491   18.777520   21.553630 H          1 MOL1         0.0829
       4    C2      19.051875   19.003317   23.230485 C.3        1 MOL1        -0.1768
       5    H3      18.765738   19.679326   24.043564 H          1 MOL1         0.0829
       6    H4      18.911804   17.968312   23.566236 H          1 MOL1         0.0829
       7    C3      20.434496   19.285932   22.569172 C.3        1 MOL1         0.1211
       8    H5      20.695960   20.352233   22.527925 H          1 MOL1         0.0786
       9    C4      19.788809   18.741844   21.259114 C.3        1 MOL1        -0.1768
      10    H6      20.152903   19.186468   20.326421 H          1 MOL1         0.0829
      11    H7      19.808546   17.649254   21.160870 H          1 MOL1         0.0829
      12    O1      21.509131   18.526444   23.072048 O.3        1 MOL1        -0.5515
      13    H8      22.273664   18.673420   22.474477 H          1 MOL1         0.3773
@<TRIPOS>BOND
    1     1     2    1
    2     1     3    1
    3     1     4    1
    4     4     5    1
    5     4     6    1
    6     4     7    1
    7     7     8    1
    8     1     9    1
    9     7     9    1
   10     9    10    1
   11     9    11    1
   12     7    12    1
   13    12    13    1
@<TRIPOS>SUBSTRUCTURE
       1 MOL1            1 RESIDUE      1      MOL     
@<SCITEGIC>MOL_PROPERTY
VConf Rank
SciTegic.value.IntegerValue
611

@<SCITEGIC>MOL_PROPERTY
Conf_Id
SciTegic.value.IntegerValue
22

@<SCITEGIC>MOL_PROPERTY
Delta U+W
SciTegic.value.DoubleValue
0.000

@<SCITEGIC>MOL_PROPERTY
U+W
SciTegic.value.DoubleValue
-3.131

@<SCITEGIC>MOL_PROPERTY
Grad RMS
SciTegic.value.DoubleValue
0.000000

@<SCITEGIC>MOL_PROPERTY
U
SciTegic.value.DoubleValue
-0.154

@<SCITEGIC>MOL_PROPERTY
W
SciTegic.value.DoubleValue
-2.978

@<SCITEGIC>MOL_PROPERTY
W(PB)
SciTegic.value.DoubleValue
-4.579

@<SCITEGIC>MOL_PROPERTY
W(SA)
SciTegic.value.DoubleValue
1.601

@<SCITEGIC>MOL_PROPERTY
Valence
SciTegic.value.DoubleValue
6.333

@<SCITEGIC>MOL_PROPERTY
Coulomb
SciTegic.value.DoubleValue
-7.439

@<SCITEGIC>MOL_PROPERTY
VdW
SciTegic.value.DoubleValue
0.952

@<SCITEGIC>MOL_PROPERTY
VdW6
SciTegic.value.DoubleValue
-2.120

@<SCITEGIC>MOL_PROPERTY
VdW12
SciTegic.value.DoubleValue
3.072

@<SCITEGIC>MOL_PROPERTY
Bond
SciTegic.value.DoubleValue
0.065

@<SCITEGIC>MOL_PROPERTY
Angle
SciTegic.value.DoubleValue
0.931

@<SCITEGIC>MOL_PROPERTY
Pdih
SciTegic.value.DoubleValue
5.338

@<SCITEGIC>MOL_PROPERTY
Idih
SciTegic.value.DoubleValue
0.000

@<SCITEGIC>MOL_PROPERTY
Tether
SciTegic.value.DoubleValue
0.000

@<TRIPOS>MOLECULE
guest-s16_confgen4.mol2 : confsearch ligand conformer 612
          13          13           1
SMALL
USER_CHARGES
 
@<TRIPOS>ATOM
       1    C1      19.858881   20.200579   21.994150 C.3        1 MOL1        -0.1693
       2    H1      19.471152   20.530354   21.021267 H          1 MOL1         0.0829
       3    H2      20.384013   21.040186   22.464930 H          1 MOL1         0.0829
       4    C2      20.628063   18.838659   21.964766 C.3        1 MOL1        -0.1768
       5    H3      21.284586   18.664648   22.826446 H          1 MOL1         0.0829
       6    H4      21.184744   18.618939   21.047160 H          1 MOL1         0.0829
       7    C3      19.220121   18.180173   22.080046 C.3        1 MOL1         0.1211
       8    H5      18.692979   18.083993   21.120915 H          1 MOL1         0.0786
       9    C4      18.820954   19.449313   22.891709 C.3        1 MOL1        -0.1768
      10    H6      19.079580   19.407353   23.957043 H          1 MOL1         0.0829
      11    H7      17.777405   19.767992   22.794706 H          1 MOL1         0.0829
      12    O1      19.178274   16.968582   22.797572 O.3        1 MOL1        -0.5515
      13    H8      19.601347   16.283611   22.236298 H          1 MOL1         0.3773
@<TRIPOS>BOND
    1     1     2    1
    2     1     3    1
    3     1     4    1
    4     4     5    1
    5     4     6    1
    6     4     7    1
    7     7     8    1
    8     1     9    1
    9     7     9    1
   10     9    10    1
   11     9    11    1
   12     7    12    1
   13    12    13    1
@<TRIPOS>SUBSTRUCTURE
       1 MOL1            1 RESIDUE      1      MOL     
@<SCITEGIC>MOL_PROPERTY
VConf Rank
SciTegic.value.IntegerValue
612

@<SCITEGIC>MOL_PROPERTY
Conf_Id
SciTegic.value.IntegerValue
19

@<SCITEGIC>MOL_PROPERTY
Delta U+W
SciTegic.value.DoubleValue
-0.011

@<SCITEGIC>MOL_PROPERTY
U+W
SciTegic.value.DoubleValue
-3.142

@<SCITEGIC>MOL_PROPERTY
Grad RMS
SciTegic.value.DoubleValue
0.000000

@<SCITEGIC>MOL_PROPERTY
U
SciTegic.value.DoubleValue
-0.154

@<SCITEGIC>MOL_PROPERTY
W
SciTegic.value.DoubleValue
-2.989

@<SCITEGIC>MOL_PROPERTY
W(PB)
SciTegic.value.DoubleValue
-4.588

@<SCITEGIC>MOL_PROPERTY
W(SA)
SciTegic.value.DoubleValue
1.599

@<SCITEGIC>MOL_PROPERTY
Valence
SciTegic.value.DoubleValue
6.334

@<SCITEGIC>MOL_PROPERTY
Coulomb
SciTegic.value.DoubleValue
-7.439

@<SCITEGIC>MOL_PROPERTY
VdW
SciTegic.value.DoubleValue
0.951

@<SCITEGIC>MOL_PROPERTY
VdW6
SciTegic.value.DoubleValue
-2.120

@<SCITEGIC>MOL_PROPERTY
VdW12
SciTegic.value.DoubleValue
3.072

@<SCITEGIC>MOL_PROPERTY
Bond
SciTegic.value.DoubleValue
0.065

@<SCITEGIC>MOL_PROPERTY
Angle
SciTegic.value.DoubleValue
0.930

@<SCITEGIC>MOL_PROPERTY
Pdih
SciTegic.value.DoubleValue
5.339

@<SCITEGIC>MOL_PROPERTY
Idih
SciTegic.value.DoubleValue
0.000

@<SCITEGIC>MOL_PROPERTY
Tether
SciTegic.value.DoubleValue
0.000

@<TRIPOS>MOLECULE
guest-s16_confgen4.mol2 : confsearch ligand conformer 613
          13          13           1
SMALL
USER_CHARGES
 
@<TRIPOS>ATOM
       1    C1      18.445145   19.379772   22.239452 C.3        1 MOL1        -0.1693
       2    H1      17.471755   19.296510   22.737003 H          1 MOL1         0.0829
       3    H2      18.348915   20.072906   21.393574 H          1 MOL1         0.0829
       4    C2      19.160322   18.030929   21.895770 C.3        1 MOL1        -0.1768
       5    H3      18.947036   17.212156   22.593541 H          1 MOL1         0.0829
       6    H4      19.027315   17.662893   20.872417 H          1 MOL1         0.0829
       7    C3      20.500385   18.779125   22.178371 C.3        1 MOL1         0.1211
       8    H5      21.277768   18.162809   22.648096 H          1 MOL1         0.0786
       9    C4      19.672738   19.655482   23.169882 C.3        1 MOL1        -0.1768
      10    H6      19.982658   20.702592   23.258558 H          1 MOL1         0.0829
      11    H7      19.583255   19.230736   24.177135 H          1 MOL1         0.0829
      12    O1      21.037838   19.475140   21.071641 O.3        1 MOL1        -0.5515
      13    H8      21.766559   20.038645   21.408661 H          1 MOL1         0.3773
@<TRIPOS>BOND
    1     1     2    1
    2     1     3    1
    3     1     4    1
    4     4     5    1
    5     4     6    1
    6     4     7    1
    7     7     8    1
    8     1     9    1
    9     7     9    1
   10     9    10    1
   11     9    11    1
   12     7    12    1
   13    12    13    1
@<TRIPOS>SUBSTRUCTURE
       1 MOL1            1 RESIDUE      1      MOL     
@<SCITEGIC>MOL_PROPERTY
VConf Rank
SciTegic.value.IntegerValue
613

@<SCITEGIC>MOL_PROPERTY
Conf_Id
SciTegic.value.IntegerValue
20

@<SCITEGIC>MOL_PROPERTY
Delta U+W
SciTegic.value.DoubleValue
1.030

@<SCITEGIC>MOL_PROPERTY
U+W
SciTegic.value.DoubleValue
-2.101

@<SCITEGIC>MOL_PROPERTY
Grad RMS
SciTegic.value.DoubleValue
0.000000

@<SCITEGIC>MOL_PROPERTY
U
SciTegic.value.DoubleValue
0.841

@<SCITEGIC>MOL_PROPERTY
W
SciTegic.value.DoubleValue
-2.942

@<SCITEGIC>MOL_PROPERTY
W(PB)
SciTegic.value.DoubleValue
-4.530

@<SCITEGIC>MOL_PROPERTY
W(SA)
SciTegic.value.DoubleValue
1.587

@<SCITEGIC>MOL_PROPERTY
Valence
SciTegic.value.DoubleValue
6.736

@<SCITEGIC>MOL_PROPERTY
Coulomb
SciTegic.value.DoubleValue
-7.246

@<SCITEGIC>MOL_PROPERTY
VdW
SciTegic.value.DoubleValue
1.352

@<SCITEGIC>MOL_PROPERTY
VdW6
SciTegic.value.DoubleValue
-2.500

@<SCITEGIC>MOL_PROPERTY
VdW12
SciTegic.value.DoubleValue
3.851

@<SCITEGIC>MOL_PROPERTY
Bond
SciTegic.value.DoubleValue
0.063

@<SCITEGIC>MOL_PROPERTY
Angle
SciTegic.value.DoubleValue
0.687

@<SCITEGIC>MOL_PROPERTY
Pdih
SciTegic.value.DoubleValue
5.986

@<SCITEGIC>MOL_PROPERTY
Idih
SciTegic.value.DoubleValue
0.000

@<SCITEGIC>MOL_PROPERTY
Tether
SciTegic.value.DoubleValue
0.000

@<TRIPOS>MOLECULE
guest-s16_confgen4.mol2 : confsearch ligand conformer 614
          13          13           1
SMALL
USER_CHARGES
 
@<TRIPOS>ATOM
       1    C1      19.505203   19.224601   20.983007 C.3        1 MOL1        -0.1693
       2    H1      18.797436   20.034914   20.763625 H          1 MOL1         0.0829
       3    H2      19.864952   18.807854   20.034680 H          1 MOL1         0.0829
       4    C2      19.005093   18.188608   22.043179 C.3        1 MOL1        -0.1768
       5    H3      17.926003   18.000128   22.061428 H          1 MOL1         0.0829
       6    H4      19.530299   17.225687   22.025052 H          1 MOL1         0.0829
       7    C3      19.532985   19.202509   23.102656 C.3        1 MOL1         0.1211
       8    H5      18.827364   20.012434   23.332469 H          1 MOL1         0.0786
       9    C4      20.604302   19.583688   22.036759 C.3        1 MOL1        -0.1768
      10    H6      21.486951   18.932585   22.017197 H          1 MOL1         0.0829
      11    H7      20.937558   20.627275   22.049341 H          1 MOL1         0.0829
      12    O1      20.035473   18.631950   24.287471 O.3        1 MOL1        -0.5515
      13    H8      20.654983   17.920606   24.021171 H          1 MOL1         0.3773
@<TRIPOS>BOND
    1     1     2    1
    2     1     3    1
    3     1     4    1
    4     4     5    1
    5     4     6    1
    6     4     7    1
    7     7     8    1
    8     1     9    1
    9     7     9    1
   10     9    10    1
   11     9    11    1
   12     7    12    1
   13    12    13    1
@<TRIPOS>SUBSTRUCTURE
       1 MOL1            1 RESIDUE      1      MOL     
@<SCITEGIC>MOL_PROPERTY
VConf Rank
SciTegic.value.IntegerValue
614

@<SCITEGIC>MOL_PROPERTY
Conf_Id
SciTegic.value.IntegerValue
24

@<SCITEGIC>MOL_PROPERTY
Delta U+W
SciTegic.value.DoubleValue
0.356

@<SCITEGIC>MOL_PROPERTY
U+W
SciTegic.value.DoubleValue
-2.775

@<SCITEGIC>MOL_PROPERTY
Grad RMS
SciTegic.value.DoubleValue
0.000000

@<SCITEGIC>MOL_PROPERTY
U
SciTegic.value.DoubleValue
-0.184

@<SCITEGIC>MOL_PROPERTY
W
SciTegic.value.DoubleValue
-2.591

@<SCITEGIC>MOL_PROPERTY
W(PB)
SciTegic.value.DoubleValue
-4.184

@<SCITEGIC>MOL_PROPERTY
W(SA)
SciTegic.value.DoubleValue
1.593

@<SCITEGIC>MOL_PROPERTY
Valence
SciTegic.value.DoubleValue
6.840

@<SCITEGIC>MOL_PROPERTY
Coulomb
SciTegic.value.DoubleValue
-7.916

@<SCITEGIC>MOL_PROPERTY
VdW
SciTegic.value.DoubleValue
0.893

@<SCITEGIC>MOL_PROPERTY
VdW6
SciTegic.value.DoubleValue
-2.167

@<SCITEGIC>MOL_PROPERTY
VdW12
SciTegic.value.DoubleValue
3.060

@<SCITEGIC>MOL_PROPERTY
Bond
SciTegic.value.DoubleValue
0.059

@<SCITEGIC>MOL_PROPERTY
Angle
SciTegic.value.DoubleValue
0.918

@<SCITEGIC>MOL_PROPERTY
Pdih
SciTegic.value.DoubleValue
5.862

@<SCITEGIC>MOL_PROPERTY
Idih
SciTegic.value.DoubleValue
0.000

@<SCITEGIC>MOL_PROPERTY
Tether
SciTegic.value.DoubleValue
0.000

@<TRIPOS>MOLECULE
guest-s16_confgen4.mol2 : confsearch ligand conformer 615
          13          13           1
SMALL
USER_CHARGES
 
@<TRIPOS>ATOM
       1    C1      19.321898   18.205513   22.945952 C.3        1 MOL1        -0.1693
       2    H1      18.442417   17.755561   23.421798 H          1 MOL1         0.0829
       3    H2      20.219794   17.716072   23.344104 H          1 MOL1         0.0829
       4    C2      19.371995   19.769996   22.941320 C.3        1 MOL1        -0.1768
       5    H3      18.388718   20.254963   22.909856 H          1 MOL1         0.0829
       6    H4      19.965148   20.236833   23.735638 H          1 MOL1         0.0829
       7    C3      20.068216   19.652128   21.550142 C.3        1 MOL1         0.1211
       8    H5      19.802096   20.439658   20.833578 H          1 MOL1         0.0786
       9    C4      19.271799   18.320709   21.385710 C.3        1 MOL1        -0.1768
      10    H6      18.263956   18.450332   20.972835 H          1 MOL1         0.0829
      11    H7      19.777739   17.526064   20.826003 H          1 MOL1         0.0829
      12    O1      21.470377   19.500293   21.601292 O.3        1 MOL1        -0.5515
      13    H8      21.647705   18.789847   22.251780 H          1 MOL1         0.3773
@<TRIPOS>BOND
    1     1     2    1
    2     1     3    1
    3     1     4    1
    4     4     5    1
    5     4     6    1
    6     4     7    1
    7     7     8    1
    8     1     9    1
    9     7     9    1
   10     9    10    1
   11     9    11    1
   12     7    12    1
   13    12    13    1
@<TRIPOS>SUBSTRUCTURE
       1 MOL1            1 RESIDUE      1      MOL     
@<SCITEGIC>MOL_PROPERTY
VConf Rank
SciTegic.value.IntegerValue
615

@<SCITEGIC>MOL_PROPERTY
Conf_Id
SciTegic.value.IntegerValue
44

@<SCITEGIC>MOL_PROPERTY
Delta U+W
SciTegic.value.DoubleValue
0.823

@<SCITEGIC>MOL_PROPERTY
U+W
SciTegic.value.DoubleValue
-2.308

@<SCITEGIC>MOL_PROPERTY
Grad RMS
SciTegic.value.DoubleValue
0.000000

@<SCITEGIC>MOL_PROPERTY
U
SciTegic.value.DoubleValue
0.039

@<SCITEGIC>MOL_PROPERTY
W
SciTegic.value.DoubleValue
-2.348

@<SCITEGIC>MOL_PROPERTY
W(PB)
SciTegic.value.DoubleValue
-3.918

@<SCITEGIC>MOL_PROPERTY
W(SA)
SciTegic.value.DoubleValue
1.571

@<SCITEGIC>MOL_PROPERTY
Valence
SciTegic.value.DoubleValue
7.320

@<SCITEGIC>MOL_PROPERTY
Coulomb
SciTegic.value.DoubleValue
-8.530

@<SCITEGIC>MOL_PROPERTY
VdW
SciTegic.value.DoubleValue
1.249

@<SCITEGIC>MOL_PROPERTY
VdW6
SciTegic.value.DoubleValue
-2.615

@<SCITEGIC>MOL_PROPERTY
VdW12
SciTegic.value.DoubleValue
3.864

@<SCITEGIC>MOL_PROPERTY
Bond
SciTegic.value.DoubleValue
0.056

@<SCITEGIC>MOL_PROPERTY
Angle
SciTegic.value.DoubleValue
0.694

@<SCITEGIC>MOL_PROPERTY
Pdih
SciTegic.value.DoubleValue
6.570

@<SCITEGIC>MOL_PROPERTY
Idih
SciTegic.value.DoubleValue
0.000

@<SCITEGIC>MOL_PROPERTY
Tether
SciTegic.value.DoubleValue
0.000

@<TRIPOS>MOLECULE
guest-s16_confgen4.mol2 : confsearch ligand conformer 616
          13          13           1
SMALL
USER_CHARGES
 
@<TRIPOS>ATOM
       1    C1      19.653510   19.756032   21.138098 C.3        1 MOL1        -0.1693
       2    H1      20.469155   19.504529   20.447406 H          1 MOL1         0.0829
       3    H2      19.016762   20.514336   20.667072 H          1 MOL1         0.0829
       4    C2      20.107033   20.054790   22.605193 C.3        1 MOL1        -0.1768
       5    H3      21.090536   20.522911   22.721581 H          1 MOL1         0.0829
       6    H4      19.377995   20.610832   23.207610 H          1 MOL1         0.0829
       7    C3      20.064238   18.509638   22.803992 C.3        1 MOL1         0.1211
       8    H5      20.972696   17.994028   22.463533 H          1 MOL1         0.0786
       9    C4      18.913068   18.522937   21.753362 C.3        1 MOL1        -0.1768
      10    H6      18.839302   17.636413   21.113982 H          1 MOL1         0.0829
      11    H7      17.921080   18.743746   22.166881 H          1 MOL1         0.0829
      12    O1      19.697923   18.078310   24.094075 O.3        1 MOL1        -0.5515
      13    H8      19.549432   17.109403   24.045359 H          1 MOL1         0.3773
@<TRIPOS>BOND
    1     1     2    1
    2     1     3    1
    3     1     4    1
    4     4     5    1
    5     4     6    1
    6     4     7    1
    7     7     8    1
    8     1     9    1
    9     7     9    1
   10     9    10    1
   11     9    11    1
   12     7    12    1
   13    12    13    1
@<TRIPOS>SUBSTRUCTURE
       1 MOL1            1 RESIDUE      1      MOL     
@<SCITEGIC>MOL_PROPERTY
VConf Rank
SciTegic.value.IntegerValue
616

@<SCITEGIC>MOL_PROPERTY
Conf_Id
SciTegic.value.IntegerValue
22

@<SCITEGIC>MOL_PROPERTY
Delta U+W
SciTegic.value.DoubleValue
0.000

@<SCITEGIC>MOL_PROPERTY
U+W
SciTegic.value.DoubleValue
-3.131

@<SCITEGIC>MOL_PROPERTY
Grad RMS
SciTegic.value.DoubleValue
0.000000

@<SCITEGIC>MOL_PROPERTY
U
SciTegic.value.DoubleValue
-0.154

@<SCITEGIC>MOL_PROPERTY
W
SciTegic.value.DoubleValue
-2.978

@<SCITEGIC>MOL_PROPERTY
W(PB)
SciTegic.value.DoubleValue
-4.579

@<SCITEGIC>MOL_PROPERTY
W(SA)
SciTegic.value.DoubleValue
1.601

@<SCITEGIC>MOL_PROPERTY
Valence
SciTegic.value.DoubleValue
6.333

@<SCITEGIC>MOL_PROPERTY
Coulomb
SciTegic.value.DoubleValue
-7.439

@<SCITEGIC>MOL_PROPERTY
VdW
SciTegic.value.DoubleValue
0.952

@<SCITEGIC>MOL_PROPERTY
VdW6
SciTegic.value.DoubleValue
-2.120

@<SCITEGIC>MOL_PROPERTY
VdW12
SciTegic.value.DoubleValue
3.072

@<SCITEGIC>MOL_PROPERTY
Bond
SciTegic.value.DoubleValue
0.065

@<SCITEGIC>MOL_PROPERTY
Angle
SciTegic.value.DoubleValue
0.931

@<SCITEGIC>MOL_PROPERTY
Pdih
SciTegic.value.DoubleValue
5.338

@<SCITEGIC>MOL_PROPERTY
Idih
SciTegic.value.DoubleValue
0.000

@<SCITEGIC>MOL_PROPERTY
Tether
SciTegic.value.DoubleValue
0.000

@<TRIPOS>MOLECULE
guest-s16_confgen4.mol2 : confsearch ligand conformer 617
          13          13           1
SMALL
USER_CHARGES
 
@<TRIPOS>ATOM
       1    C1      19.409971   17.671214   21.900409 C.3        1 MOL1        -0.1693
       2    H1      18.352908   17.451768   21.700290 H          1 MOL1         0.0829
       3    H2      19.985468   16.743203   21.800729 H          1 MOL1         0.0829
       4    C2      19.671125   18.505659   23.197648 C.3        1 MOL1        -0.1768
       5    H3      20.698570   18.450699   23.578607 H          1 MOL1         0.0829
       6    H4      18.977398   18.335513   24.028290 H          1 MOL1         0.0829
       7    C3      19.375676   19.751831   22.309414 C.3        1 MOL1         0.1211
       8    H5      18.305785   19.972749   22.192835 H          1 MOL1         0.0786
       9    C4      19.975533   18.915402   21.139200 C.3        1 MOL1        -0.1768
      10    H6      21.069676   18.952723   21.068195 H          1 MOL1         0.0829
      11    H7      19.551245   19.110126   20.148229 H          1 MOL1         0.0829
      12    O1      20.093061   20.916316   22.646879 O.3        1 MOL1        -0.5515
      13    H8      19.715684   21.257177   23.486286 H          1 MOL1         0.3773
@<TRIPOS>BOND
    1     1     2    1
    2     1     3    1
    3     1     4    1
    4     4     5    1
    5     4     6    1
    6     4     7    1
    7     7     8    1
    8     1     9    1
    9     7     9    1
   10     9    10    1
   11     9    11    1
   12     7    12    1
   13    12    13    1
@<TRIPOS>SUBSTRUCTURE
       1 MOL1            1 RESIDUE      1      MOL     
@<SCITEGIC>MOL_PROPERTY
VConf Rank
SciTegic.value.IntegerValue
617

@<SCITEGIC>MOL_PROPERTY
Conf_Id
SciTegic.value.IntegerValue
19

@<SCITEGIC>MOL_PROPERTY
Delta U+W
SciTegic.value.DoubleValue
-0.011

@<SCITEGIC>MOL_PROPERTY
U+W
SciTegic.value.DoubleValue
-3.142

@<SCITEGIC>MOL_PROPERTY
Grad RMS
SciTegic.value.DoubleValue
0.000000

@<SCITEGIC>MOL_PROPERTY
U
SciTegic.value.DoubleValue
-0.154

@<SCITEGIC>MOL_PROPERTY
W
SciTegic.value.DoubleValue
-2.989

@<SCITEGIC>MOL_PROPERTY
W(PB)
SciTegic.value.DoubleValue
-4.588

@<SCITEGIC>MOL_PROPERTY
W(SA)
SciTegic.value.DoubleValue
1.599

@<SCITEGIC>MOL_PROPERTY
Valence
SciTegic.value.DoubleValue
6.334

@<SCITEGIC>MOL_PROPERTY
Coulomb
SciTegic.value.DoubleValue
-7.439

@<SCITEGIC>MOL_PROPERTY
VdW
SciTegic.value.DoubleValue
0.951

@<SCITEGIC>MOL_PROPERTY
VdW6
SciTegic.value.DoubleValue
-2.120

@<SCITEGIC>MOL_PROPERTY
VdW12
SciTegic.value.DoubleValue
3.072

@<SCITEGIC>MOL_PROPERTY
Bond
SciTegic.value.DoubleValue
0.065

@<SCITEGIC>MOL_PROPERTY
Angle
SciTegic.value.DoubleValue
0.930

@<SCITEGIC>MOL_PROPERTY
Pdih
SciTegic.value.DoubleValue
5.339

@<SCITEGIC>MOL_PROPERTY
Idih
SciTegic.value.DoubleValue
0.000

@<SCITEGIC>MOL_PROPERTY
Tether
SciTegic.value.DoubleValue
0.000

@<TRIPOS>MOLECULE
guest-s16_confgen4.mol2 : confsearch ligand conformer 618
          13          13           1
SMALL
USER_CHARGES
 
@<TRIPOS>ATOM
       1    C1      19.278628   18.059093   22.915066 C.3        1 MOL1        -0.1693
       2    H1      18.565923   17.667808   23.650542 H          1 MOL1         0.0829
       3    H2      19.896663   17.228914   22.548950 H          1 MOL1         0.0829
       4    C2      20.085662   19.328653   23.346212 C.3        1 MOL1        -0.1768
       5    H3      19.549734   19.997982   24.029985 H          1 MOL1         0.0829
       6    H4      21.088942   19.147713   23.747564 H          1 MOL1         0.0829
       7    C3      20.022590   19.761001   21.848038 C.3        1 MOL1         0.1211
       8    H5      19.925537   20.842579   21.688094 H          1 MOL1         0.0786
       9    C4      18.679174   18.968454   21.791492 C.3        1 MOL1        -0.1768
      10    H6      18.454314   18.472295   20.840905 H          1 MOL1         0.0829
      11    H7      17.801556   19.550266   22.098501 H          1 MOL1         0.0829
      12    O1      21.056509   19.242633   21.035356 O.3        1 MOL1        -0.5515
      13    H8      20.816455   19.432305   20.103394 H          1 MOL1         0.3773
@<TRIPOS>BOND
    1     1     2    1
    2     1     3    1
    3     1     4    1
    4     4     5    1
    5     4     6    1
    6     4     7    1
    7     7     8    1
    8     1     9    1
    9     7     9    1
   10     9    10    1
   11     9    11    1
   12     7    12    1
   13    12    13    1
@<TRIPOS>SUBSTRUCTURE
       1 MOL1            1 RESIDUE      1      MOL     
@<SCITEGIC>MOL_PROPERTY
VConf Rank
SciTegic.value.IntegerValue
618

@<SCITEGIC>MOL_PROPERTY
Conf_Id
SciTegic.value.IntegerValue
20

@<SCITEGIC>MOL_PROPERTY
Delta U+W
SciTegic.value.DoubleValue
1.030

@<SCITEGIC>MOL_PROPERTY
U+W
SciTegic.value.DoubleValue
-2.101

@<SCITEGIC>MOL_PROPERTY
Grad RMS
SciTegic.value.DoubleValue
0.000000

@<SCITEGIC>MOL_PROPERTY
U
SciTegic.value.DoubleValue
0.841

@<SCITEGIC>MOL_PROPERTY
W
SciTegic.value.DoubleValue
-2.942

@<SCITEGIC>MOL_PROPERTY
W(PB)
SciTegic.value.DoubleValue
-4.530

@<SCITEGIC>MOL_PROPERTY
W(SA)
SciTegic.value.DoubleValue
1.587

@<SCITEGIC>MOL_PROPERTY
Valence
SciTegic.value.DoubleValue
6.736

@<SCITEGIC>MOL_PROPERTY
Coulomb
SciTegic.value.DoubleValue
-7.246

@<SCITEGIC>MOL_PROPERTY
VdW
SciTegic.value.DoubleValue
1.352

@<SCITEGIC>MOL_PROPERTY
VdW6
SciTegic.value.DoubleValue
-2.500

@<SCITEGIC>MOL_PROPERTY
VdW12
SciTegic.value.DoubleValue
3.851

@<SCITEGIC>MOL_PROPERTY
Bond
SciTegic.value.DoubleValue
0.063

@<SCITEGIC>MOL_PROPERTY
Angle
SciTegic.value.DoubleValue
0.687

@<SCITEGIC>MOL_PROPERTY
Pdih
SciTegic.value.DoubleValue
5.986

@<SCITEGIC>MOL_PROPERTY
Idih
SciTegic.value.DoubleValue
0.000

@<SCITEGIC>MOL_PROPERTY
Tether
SciTegic.value.DoubleValue
0.000

@<TRIPOS>MOLECULE
guest-s16_confgen4.mol2 : confsearch ligand conformer 619
          13          13           1
SMALL
USER_CHARGES
 
@<TRIPOS>ATOM
       1    C1      18.608529   18.531978   22.623968 C.3        1 MOL1        -0.1693
       2    H1      18.286717   17.529397   22.312619 H          1 MOL1         0.0829
       3    H2      17.827803   18.968979   23.257938 H          1 MOL1         0.0829
       4    C2      19.139197   19.438025   21.464301 C.3        1 MOL1        -0.1768
       5    H3      18.676106   19.285921   20.483126 H          1 MOL1         0.0829
       6    H4      19.144236   20.511863   21.688435 H          1 MOL1         0.0829
       7    C3      20.502067   18.715934   21.688634 C.3        1 MOL1         0.1211
       8    H5      20.580865   17.747111   21.176905 H          1 MOL1         0.0786
       9    C4      20.068265   18.606510   23.181616 C.3        1 MOL1        -0.1768
      10    H6      20.280963   19.494493   23.789592 H          1 MOL1         0.0829
      11    H7      20.425686   17.720052   23.717092 H          1 MOL1         0.0829
      12    O1      21.647420   19.498219   21.447777 O.3        1 MOL1        -0.5515
      13    H8      21.520748   20.344355   21.926032 H          1 MOL1         0.3773
@<TRIPOS>BOND
    1     1     2    1
    2     1     3    1
    3     1     4    1
    4     4     5    1
    5     4     6    1
    6     4     7    1
    7     7     8    1
    8     1     9    1
    9     7     9    1
   10     9    10    1
   11     9    11    1
   12     7    12    1
   13    12    13    1
@<TRIPOS>SUBSTRUCTURE
       1 MOL1            1 RESIDUE      1      MOL     
@<SCITEGIC>MOL_PROPERTY
VConf Rank
SciTegic.value.IntegerValue
619

@<SCITEGIC>MOL_PROPERTY
Conf_Id
SciTegic.value.IntegerValue
24

@<SCITEGIC>MOL_PROPERTY
Delta U+W
SciTegic.value.DoubleValue
0.356

@<SCITEGIC>MOL_PROPERTY
U+W
SciTegic.value.DoubleValue
-2.775

@<SCITEGIC>MOL_PROPERTY
Grad RMS
SciTegic.value.DoubleValue
0.000000

@<SCITEGIC>MOL_PROPERTY
U
SciTegic.value.DoubleValue
-0.184

@<SCITEGIC>MOL_PROPERTY
W
SciTegic.value.DoubleValue
-2.591

@<SCITEGIC>MOL_PROPERTY
W(PB)
SciTegic.value.DoubleValue
-4.184

@<SCITEGIC>MOL_PROPERTY
W(SA)
SciTegic.value.DoubleValue
1.593

@<SCITEGIC>MOL_PROPERTY
Valence
SciTegic.value.DoubleValue
6.840

@<SCITEGIC>MOL_PROPERTY
Coulomb
SciTegic.value.DoubleValue
-7.916

@<SCITEGIC>MOL_PROPERTY
VdW
SciTegic.value.DoubleValue
0.893

@<SCITEGIC>MOL_PROPERTY
VdW6
SciTegic.value.DoubleValue
-2.167

@<SCITEGIC>MOL_PROPERTY
VdW12
SciTegic.value.DoubleValue
3.060

@<SCITEGIC>MOL_PROPERTY
Bond
SciTegic.value.DoubleValue
0.059

@<SCITEGIC>MOL_PROPERTY
Angle
SciTegic.value.DoubleValue
0.918

@<SCITEGIC>MOL_PROPERTY
Pdih
SciTegic.value.DoubleValue
5.862

@<SCITEGIC>MOL_PROPERTY
Idih
SciTegic.value.DoubleValue
0.000

@<SCITEGIC>MOL_PROPERTY
Tether
SciTegic.value.DoubleValue
0.000

@<TRIPOS>MOLECULE
guest-s16_confgen4.mol2 : confsearch ligand conformer 620
          13          13           1
SMALL
USER_CHARGES
 
@<TRIPOS>ATOM
       1    C1      20.495968   18.219208   21.970485 C.3        1 MOL1        -0.1693
       2    H1      20.727300   17.257231   21.497768 H          1 MOL1         0.0829
       3    H2      21.422996   18.631744   22.388491 H          1 MOL1         0.0829
       4    C2      19.273323   18.224772   22.947851 C.3        1 MOL1        -0.1768
       5    H3      18.486698   17.503816   22.693963 H          1 MOL1         0.0829
       6    H4      19.506371   18.124705   24.013864 H          1 MOL1         0.0829
       7    C3      18.994279   19.674735   22.444131 C.3        1 MOL1         0.1211
       8    H5      17.931887   19.938149   22.363988 H          1 MOL1         0.0786
       9    C4      19.659403   19.221971   21.107490 C.3        1 MOL1        -0.1768
      10    H6      18.967441   18.745513   20.402372 H          1 MOL1         0.0829
      11    H7      20.228501   19.989879   20.571624 H          1 MOL1         0.0829
      12    O1      19.691064   20.686627   23.138604 O.3        1 MOL1        -0.5515
      13    H8      20.626628   20.399622   23.179376 H          1 MOL1         0.3773
@<TRIPOS>BOND
    1     1     2    1
    2     1     3    1
    3     1     4    1
    4     4     5    1
    5     4     6    1
    6     4     7    1
    7     7     8    1
    8     1     9    1
    9     7     9    1
   10     9    10    1
   11     9    11    1
   12     7    12    1
   13    12    13    1
@<TRIPOS>SUBSTRUCTURE
       1 MOL1            1 RESIDUE      1      MOL     
@<SCITEGIC>MOL_PROPERTY
VConf Rank
SciTegic.value.IntegerValue
620

@<SCITEGIC>MOL_PROPERTY
Conf_Id
SciTegic.value.IntegerValue
44

@<SCITEGIC>MOL_PROPERTY
Delta U+W
SciTegic.value.DoubleValue
0.823

@<SCITEGIC>MOL_PROPERTY
U+W
SciTegic.value.DoubleValue
-2.308

@<SCITEGIC>MOL_PROPERTY
Grad RMS
SciTegic.value.DoubleValue
0.000000

@<SCITEGIC>MOL_PROPERTY
U
SciTegic.value.DoubleValue
0.039

@<SCITEGIC>MOL_PROPERTY
W
SciTegic.value.DoubleValue
-2.348

@<SCITEGIC>MOL_PROPERTY
W(PB)
SciTegic.value.DoubleValue
-3.918

@<SCITEGIC>MOL_PROPERTY
W(SA)
SciTegic.value.DoubleValue
1.571

@<SCITEGIC>MOL_PROPERTY
Valence
SciTegic.value.DoubleValue
7.320

@<SCITEGIC>MOL_PROPERTY
Coulomb
SciTegic.value.DoubleValue
-8.530

@<SCITEGIC>MOL_PROPERTY
VdW
SciTegic.value.DoubleValue
1.249

@<SCITEGIC>MOL_PROPERTY
VdW6
SciTegic.value.DoubleValue
-2.615

@<SCITEGIC>MOL_PROPERTY
VdW12
SciTegic.value.DoubleValue
3.864

@<SCITEGIC>MOL_PROPERTY
Bond
SciTegic.value.DoubleValue
0.056

@<SCITEGIC>MOL_PROPERTY
Angle
SciTegic.value.DoubleValue
0.694

@<SCITEGIC>MOL_PROPERTY
Pdih
SciTegic.value.DoubleValue
6.570

@<SCITEGIC>MOL_PROPERTY
Idih
SciTegic.value.DoubleValue
0.000

@<SCITEGIC>MOL_PROPERTY
Tether
SciTegic.value.DoubleValue
0.000

@<TRIPOS>MOLECULE
guest-s16_confgen4.mol2 : confsearch ligand conformer 621
          13          13           1
SMALL
USER_CHARGES
 
@<TRIPOS>ATOM
       1    C1      20.832666   18.473383   22.490137 C.3        1 MOL1        -0.1693
       2    H1      20.788998   17.376306   22.500197 H          1 MOL1         0.0829
       3    H2      21.873750   18.784001   22.638456 H          1 MOL1         0.0829
       4    C2      19.769642   19.178950   23.395379 C.3        1 MOL1        -0.1768
       5    H3      19.484491   18.648073   24.310157 H          1 MOL1         0.0829
       6    H4      20.000930   20.220831   23.649496 H          1 MOL1         0.0829
       7    C3      18.803653   19.009047   22.184245 C.3        1 MOL1         0.1211
       8    H5      18.329241   18.019488   22.131626 H          1 MOL1         0.0786
       9    C4      20.077762   19.147661   21.297326 C.3        1 MOL1        -0.1768
      10    H6      20.067469   18.588504   20.355302 H          1 MOL1         0.0829
      11    H7      20.378975   20.182252   21.090723 H          1 MOL1         0.0829
      12    O1      17.846956   20.031370   22.028896 O.3        1 MOL1        -0.5515
      13    H8      17.418194   19.898042   21.156204 H          1 MOL1         0.3773
@<TRIPOS>BOND
    1     1     2    1
    2     1     3    1
    3     1     4    1
    4     4     5    1
    5     4     6    1
    6     4     7    1
    7     7     8    1
    8     1     9    1
    9     7     9    1
   10     9    10    1
   11     9    11    1
   12     7    12    1
   13    12    13    1
@<TRIPOS>SUBSTRUCTURE
       1 MOL1            1 RESIDUE      1      MOL     
@<SCITEGIC>MOL_PROPERTY
VConf Rank
SciTegic.value.IntegerValue
621

@<SCITEGIC>MOL_PROPERTY
Conf_Id
SciTegic.value.IntegerValue
22

@<SCITEGIC>MOL_PROPERTY
Delta U+W
SciTegic.value.DoubleValue
0.000

@<SCITEGIC>MOL_PROPERTY
U+W
SciTegic.value.DoubleValue
-3.131

@<SCITEGIC>MOL_PROPERTY
Grad RMS
SciTegic.value.DoubleValue
0.000000

@<SCITEGIC>MOL_PROPERTY
U
SciTegic.value.DoubleValue
-0.154

@<SCITEGIC>MOL_PROPERTY
W
SciTegic.value.DoubleValue
-2.978

@<SCITEGIC>MOL_PROPERTY
W(PB)
SciTegic.value.DoubleValue
-4.579

@<SCITEGIC>MOL_PROPERTY
W(SA)
SciTegic.value.DoubleValue
1.601

@<SCITEGIC>MOL_PROPERTY
Valence
SciTegic.value.DoubleValue
6.333

@<SCITEGIC>MOL_PROPERTY
Coulomb
SciTegic.value.DoubleValue
-7.439

@<SCITEGIC>MOL_PROPERTY
VdW
SciTegic.value.DoubleValue
0.952

@<SCITEGIC>MOL_PROPERTY
VdW6
SciTegic.value.DoubleValue
-2.120

@<SCITEGIC>MOL_PROPERTY
VdW12
SciTegic.value.DoubleValue
3.072

@<SCITEGIC>MOL_PROPERTY
Bond
SciTegic.value.DoubleValue
0.065

@<SCITEGIC>MOL_PROPERTY
Angle
SciTegic.value.DoubleValue
0.931

@<SCITEGIC>MOL_PROPERTY
Pdih
SciTegic.value.DoubleValue
5.338

@<SCITEGIC>MOL_PROPERTY
Idih
SciTegic.value.DoubleValue
0.000

@<SCITEGIC>MOL_PROPERTY
Tether
SciTegic.value.DoubleValue
0.000

@<TRIPOS>MOLECULE
guest-s16_confgen4.mol2 : confsearch ligand conformer 622
          13          13           1
SMALL
USER_CHARGES
 
@<TRIPOS>ATOM
       1    C1      19.451771   18.022786   21.300157 C.3        1 MOL1        -0.1693
       2    H1      20.122472   17.158132   21.390257 H          1 MOL1         0.0829
       3    H2      18.846247   17.903610   20.393804 H          1 MOL1         0.0829
       4    C2      20.146588   19.412240   21.484490 C.3        1 MOL1        -0.1768
       5    H3      19.582763   20.263301   21.082507 H          1 MOL1         0.0829
       6    H4      21.184117   19.482082   21.139775 H          1 MOL1         0.0829
       7    C3      19.952417   19.170286   23.011890 C.3        1 MOL1         0.1211
       8    H5      20.731505   18.543110   23.466570 H          1 MOL1         0.0786
       9    C4      18.669830   18.383351   22.606245 C.3        1 MOL1        -0.1768
      10    H6      17.782112   19.009413   22.452665 H          1 MOL1         0.0829
      11    H7      18.400705   17.543690   23.256248 H          1 MOL1         0.0829
      12    O1      19.729900   20.328614   23.782156 O.3        1 MOL1        -0.5515
      13    H8      20.581674   20.813766   23.830246 H          1 MOL1         0.3773
@<TRIPOS>BOND
    1     1     2    1
    2     1     3    1
    3     1     4    1
    4     4     5    1
    5     4     6    1
    6     4     7    1
    7     7     8    1
    8     1     9    1
    9     7     9    1
   10     9    10    1
   11     9    11    1
   12     7    12    1
   13    12    13    1
@<TRIPOS>SUBSTRUCTURE
       1 MOL1            1 RESIDUE      1      MOL     
@<SCITEGIC>MOL_PROPERTY
VConf Rank
SciTegic.value.IntegerValue
622

@<SCITEGIC>MOL_PROPERTY
Conf_Id
SciTegic.value.IntegerValue
19

@<SCITEGIC>MOL_PROPERTY
Delta U+W
SciTegic.value.DoubleValue
-0.011

@<SCITEGIC>MOL_PROPERTY
U+W
SciTegic.value.DoubleValue
-3.142

@<SCITEGIC>MOL_PROPERTY
Grad RMS
SciTegic.value.DoubleValue
0.000000

@<SCITEGIC>MOL_PROPERTY
U
SciTegic.value.DoubleValue
-0.154

@<SCITEGIC>MOL_PROPERTY
W
SciTegic.value.DoubleValue
-2.989

@<SCITEGIC>MOL_PROPERTY
W(PB)
SciTegic.value.DoubleValue
-4.588

@<SCITEGIC>MOL_PROPERTY
W(SA)
SciTegic.value.DoubleValue
1.599

@<SCITEGIC>MOL_PROPERTY
Valence
SciTegic.value.DoubleValue
6.334

@<SCITEGIC>MOL_PROPERTY
Coulomb
SciTegic.value.DoubleValue
-7.439

@<SCITEGIC>MOL_PROPERTY
VdW
SciTegic.value.DoubleValue
0.951

@<SCITEGIC>MOL_PROPERTY
VdW6
SciTegic.value.DoubleValue
-2.120

@<SCITEGIC>MOL_PROPERTY
VdW12
SciTegic.value.DoubleValue
3.072

@<SCITEGIC>MOL_PROPERTY
Bond
SciTegic.value.DoubleValue
0.065

@<SCITEGIC>MOL_PROPERTY
Angle
SciTegic.value.DoubleValue
0.930

@<SCITEGIC>MOL_PROPERTY
Pdih
SciTegic.value.DoubleValue
5.339

@<SCITEGIC>MOL_PROPERTY
Idih
SciTegic.value.DoubleValue
0.000

@<SCITEGIC>MOL_PROPERTY
Tether
SciTegic.value.DoubleValue
0.000

@<TRIPOS>MOLECULE
guest-s16_confgen4.mol2 : confsearch ligand conformer 623
          13          13           1
SMALL
USER_CHARGES
 
@<TRIPOS>ATOM
       1    C1      19.975325   20.173841   21.898786 C.3        1 MOL1        -0.1693
       2    H1      20.819325   20.795520   21.577606 H          1 MOL1         0.0829
       3    H2      19.050111   20.754709   21.790259 H          1 MOL1         0.0829
       4    C2      20.134376   19.457934   23.281231 C.3        1 MOL1        -0.1768
       5    H3      21.166509   19.192488   23.540084 H          1 MOL1         0.0829
       6    H4      19.676301   19.961778   24.139544 H          1 MOL1         0.0829
       7    C3      19.308911   18.286830   22.662723 C.3        1 MOL1         0.1211
       8    H5      19.613810   17.286567   22.996375 H          1 MOL1         0.0786
       9    C4      19.912786   18.731944   21.294036 C.3        1 MOL1        -0.1768
      10    H6      19.264782   18.605452   20.419712 H          1 MOL1         0.0829
      11    H7      20.891712   18.290636   21.070599 H          1 MOL1         0.0829
      12    O1      17.906343   18.426050   22.770267 O.3        1 MOL1        -0.5515
      13    H8      17.501395   17.735948   22.202877 H          1 MOL1         0.3773
@<TRIPOS>BOND
    1     1     2    1
    2     1     3    1
    3     1     4    1
    4     4     5    1
    5     4     6    1
    6     4     7    1
    7     7     8    1
    8     1     9    1
    9     7     9    1
   10     9    10    1
   11     9    11    1
   12     7    12    1
   13    12    13    1
@<TRIPOS>SUBSTRUCTURE
       1 MOL1            1 RESIDUE      1      MOL     
@<SCITEGIC>MOL_PROPERTY
VConf Rank
SciTegic.value.IntegerValue
623

@<SCITEGIC>MOL_PROPERTY
Conf_Id
SciTegic.value.IntegerValue
20

@<SCITEGIC>MOL_PROPERTY
Delta U+W
SciTegic.value.DoubleValue
1.030

@<SCITEGIC>MOL_PROPERTY
U+W
SciTegic.value.DoubleValue
-2.101

@<SCITEGIC>MOL_PROPERTY
Grad RMS
SciTegic.value.DoubleValue
0.000000

@<SCITEGIC>MOL_PROPERTY
U
SciTegic.value.DoubleValue
0.841

@<SCITEGIC>MOL_PROPERTY
W
SciTegic.value.DoubleValue
-2.942

@<SCITEGIC>MOL_PROPERTY
W(PB)
SciTegic.value.DoubleValue
-4.530

@<SCITEGIC>MOL_PROPERTY
W(SA)
SciTegic.value.DoubleValue
1.587

@<SCITEGIC>MOL_PROPERTY
Valence
SciTegic.value.DoubleValue
6.736

@<SCITEGIC>MOL_PROPERTY
Coulomb
SciTegic.value.DoubleValue
-7.246

@<SCITEGIC>MOL_PROPERTY
VdW
SciTegic.value.DoubleValue
1.352

@<SCITEGIC>MOL_PROPERTY
VdW6
SciTegic.value.DoubleValue
-2.500

@<SCITEGIC>MOL_PROPERTY
VdW12
SciTegic.value.DoubleValue
3.851

@<SCITEGIC>MOL_PROPERTY
Bond
SciTegic.value.DoubleValue
0.063

@<SCITEGIC>MOL_PROPERTY
Angle
SciTegic.value.DoubleValue
0.687

@<SCITEGIC>MOL_PROPERTY
Pdih
SciTegic.value.DoubleValue
5.986

@<SCITEGIC>MOL_PROPERTY
Idih
SciTegic.value.DoubleValue
0.000

@<SCITEGIC>MOL_PROPERTY
Tether
SciTegic.value.DoubleValue
0.000

@<TRIPOS>MOLECULE
guest-s16_confgen4.mol2 : confsearch ligand conformer 624
          13          13           1
SMALL
USER_CHARGES
 
@<TRIPOS>ATOM
       1    C1      20.400802   18.266494   21.349951 C.3        1 MOL1        -0.1693
       2    H1      19.940607   17.345401   20.968538 H          1 MOL1         0.0829
       3    H2      21.379448   18.392771   20.871695 H          1 MOL1         0.0829
       4    C2      20.372484   18.415514   22.906983 C.3        1 MOL1        -0.1768
       5    H3      20.439282   17.485157   23.481671 H          1 MOL1         0.0829
       6    H4      21.098320   19.131816   23.311286 H          1 MOL1         0.0829
       7    C3      18.935464   18.983672   22.703691 C.3        1 MOL1         0.1211
       8    H5      18.161483   18.210065   22.607878 H          1 MOL1         0.0786
       9    C4      19.463626   19.519063   21.338570 C.3        1 MOL1        -0.1768
      10    H6      19.986322   20.482022   21.392314 H          1 MOL1         0.0829
      11    H7      18.727764   19.563310   20.528113 H          1 MOL1         0.0829
      12    O1      18.539077   19.969590   23.627087 O.3        1 MOL1        -0.5515
      13    H8      19.263924   20.627962   23.670258 H          1 MOL1         0.3773
@<TRIPOS>BOND
    1     1     2    1
    2     1     3    1
    3     1     4    1
    4     4     5    1
    5     4     6    1
    6     4     7    1
    7     7     8    1
    8     1     9    1
    9     7     9    1
   10     9    10    1
   11     9    11    1
   12     7    12    1
   13    12    13    1
@<TRIPOS>SUBSTRUCTURE
       1 MOL1            1 RESIDUE      1      MOL     
@<SCITEGIC>MOL_PROPERTY
VConf Rank
SciTegic.value.IntegerValue
624

@<SCITEGIC>MOL_PROPERTY
Conf_Id
SciTegic.value.IntegerValue
24

@<SCITEGIC>MOL_PROPERTY
Delta U+W
SciTegic.value.DoubleValue
0.356

@<SCITEGIC>MOL_PROPERTY
U+W
SciTegic.value.DoubleValue
-2.775

@<SCITEGIC>MOL_PROPERTY
Grad RMS
SciTegic.value.DoubleValue
0.000000

@<SCITEGIC>MOL_PROPERTY
U
SciTegic.value.DoubleValue
-0.184

@<SCITEGIC>MOL_PROPERTY
W
SciTegic.value.DoubleValue
-2.591

@<SCITEGIC>MOL_PROPERTY
W(PB)
SciTegic.value.DoubleValue
-4.184

@<SCITEGIC>MOL_PROPERTY
W(SA)
SciTegic.value.DoubleValue
1.593

@<SCITEGIC>MOL_PROPERTY
Valence
SciTegic.value.DoubleValue
6.840

@<SCITEGIC>MOL_PROPERTY
Coulomb
SciTegic.value.DoubleValue
-7.916

@<SCITEGIC>MOL_PROPERTY
VdW
SciTegic.value.DoubleValue
0.893

@<SCITEGIC>MOL_PROPERTY
VdW6
SciTegic.value.DoubleValue
-2.167

@<SCITEGIC>MOL_PROPERTY
VdW12
SciTegic.value.DoubleValue
3.060

@<SCITEGIC>MOL_PROPERTY
Bond
SciTegic.value.DoubleValue
0.059

@<SCITEGIC>MOL_PROPERTY
Angle
SciTegic.value.DoubleValue
0.918

@<SCITEGIC>MOL_PROPERTY
Pdih
SciTegic.value.DoubleValue
5.862

@<SCITEGIC>MOL_PROPERTY
Idih
SciTegic.value.DoubleValue
0.000

@<SCITEGIC>MOL_PROPERTY
Tether
SciTegic.value.DoubleValue
0.000

@<TRIPOS>MOLECULE
guest-s16_confgen4.mol2 : confsearch ligand conformer 625
          13          13           1
SMALL
USER_CHARGES
 
@<TRIPOS>ATOM
       1    C1      20.759054   18.837659   21.874065 C.3        1 MOL1        -0.1693
       2    H1      21.506400   18.138341   21.480616 H          1 MOL1         0.0829
       3    H2      21.233866   19.819377   21.996860 H          1 MOL1         0.0829
       4    C2      19.943397   18.340982   23.114289 C.3        1 MOL1        -0.1768
       5    H3      19.792660   17.255242   23.152506 H          1 MOL1         0.0829
       6    H4      20.300734   18.677528   24.093960 H          1 MOL1         0.0829
       7    C3      18.735756   19.130607   22.520919 C.3        1 MOL1         0.1211
       8    H5      17.756874   18.658339   22.673367 H          1 MOL1         0.0786
       9    C4      19.383428   18.860326   21.127555 C.3        1 MOL1        -0.1768
      10    H6      19.095396   17.901921   20.678654 H          1 MOL1         0.0829
      11    H7      19.253360   19.648914   20.377943 H          1 MOL1         0.0829
      12    O1      18.678204   20.490822   22.892712 O.3        1 MOL1        -0.5515
      13    H8      19.572729   20.857913   22.736563 H          1 MOL1         0.3773
@<TRIPOS>BOND
    1     1     2    1
    2     1     3    1
    3     1     4    1
    4     4     5    1
    5     4     6    1
    6     4     7    1
    7     7     8    1
    8     1     9    1
    9     7     9    1
   10     9    10    1
   11     9    11    1
   12     7    12    1
   13    12    13    1
@<TRIPOS>SUBSTRUCTURE
       1 MOL1            1 RESIDUE      1      MOL     
@<SCITEGIC>MOL_PROPERTY
VConf Rank
SciTegic.value.IntegerValue
625

@<SCITEGIC>MOL_PROPERTY
Conf_Id
SciTegic.value.IntegerValue
44

@<SCITEGIC>MOL_PROPERTY
Delta U+W
SciTegic.value.DoubleValue
0.823

@<SCITEGIC>MOL_PROPERTY
U+W
SciTegic.value.DoubleValue
-2.308

@<SCITEGIC>MOL_PROPERTY
Grad RMS
SciTegic.value.DoubleValue
0.000000

@<SCITEGIC>MOL_PROPERTY
U
SciTegic.value.DoubleValue
0.039

@<SCITEGIC>MOL_PROPERTY
W
SciTegic.value.DoubleValue
-2.348

@<SCITEGIC>MOL_PROPERTY
W(PB)
SciTegic.value.DoubleValue
-3.918

@<SCITEGIC>MOL_PROPERTY
W(SA)
SciTegic.value.DoubleValue
1.571

@<SCITEGIC>MOL_PROPERTY
Valence
SciTegic.value.DoubleValue
7.320

@<SCITEGIC>MOL_PROPERTY
Coulomb
SciTegic.value.DoubleValue
-8.530

@<SCITEGIC>MOL_PROPERTY
VdW
SciTegic.value.DoubleValue
1.249

@<SCITEGIC>MOL_PROPERTY
VdW6
SciTegic.value.DoubleValue
-2.615

@<SCITEGIC>MOL_PROPERTY
VdW12
SciTegic.value.DoubleValue
3.864

@<SCITEGIC>MOL_PROPERTY
Bond
SciTegic.value.DoubleValue
0.056

@<SCITEGIC>MOL_PROPERTY
Angle
SciTegic.value.DoubleValue
0.694

@<SCITEGIC>MOL_PROPERTY
Pdih
SciTegic.value.DoubleValue
6.570

@<SCITEGIC>MOL_PROPERTY
Idih
SciTegic.value.DoubleValue
0.000

@<SCITEGIC>MOL_PROPERTY
Tether
SciTegic.value.DoubleValue
0.000

@<TRIPOS>MOLECULE
guest-s16_confgen4.mol2 : confsearch ligand conformer 626
          13          13           1
SMALL
USER_CHARGES
 
@<TRIPOS>ATOM
       1    C1      19.687787   20.344801   22.033888 C.3        1 MOL1        -0.1693
       2    H1      19.212342   20.926893   22.834329 H          1 MOL1         0.0829
       3    H2      20.098237   21.039747   21.291649 H          1 MOL1         0.0829
       4    C2      18.816917   19.173635   21.470626 C.3        1 MOL1        -0.1768
       5    H3      17.733690   19.336508   21.463436 H          1 MOL1         0.0829
       6    H4      19.124901   18.804782   20.484381 H          1 MOL1         0.0829
       7    C3      19.369908   18.347046   22.670542 C.3        1 MOL1         0.1211
       8    H5      18.822573   18.508758   23.609337 H          1 MOL1         0.0786
       9    C4      20.654227   19.218633   22.528931 C.3        1 MOL1        -0.1768
      10    H6      21.197643   19.423437   23.457869 H          1 MOL1         0.0829
      11    H7      21.366383   18.861753   21.774435 H          1 MOL1         0.0829
      12    O1      19.545036   16.971109   22.424219 O.3        1 MOL1        -0.5515
      13    H8      20.043083   16.600805   23.184500 H          1 MOL1         0.3773
@<TRIPOS>BOND
    1     1     2    1
    2     1     3    1
    3     1     4    1
    4     4     5    1
    5     4     6    1
    6     4     7    1
    7     7     8    1
    8     1     9    1
    9     7     9    1
   10     9    10    1
   11     9    11    1
   12     7    12    1
   13    12    13    1
@<TRIPOS>SUBSTRUCTURE
       1 MOL1            1 RESIDUE      1      MOL     
@<SCITEGIC>MOL_PROPERTY
VConf Rank
SciTegic.value.IntegerValue
626

@<SCITEGIC>MOL_PROPERTY
Conf_Id
SciTegic.value.IntegerValue
22

@<SCITEGIC>MOL_PROPERTY
Delta U+W
SciTegic.value.DoubleValue
0.000

@<SCITEGIC>MOL_PROPERTY
U+W
SciTegic.value.DoubleValue
-3.131

@<SCITEGIC>MOL_PROPERTY
Grad RMS
SciTegic.value.DoubleValue
0.000000

@<SCITEGIC>MOL_PROPERTY
U
SciTegic.value.DoubleValue
-0.154

@<SCITEGIC>MOL_PROPERTY
W
SciTegic.value.DoubleValue
-2.978

@<SCITEGIC>MOL_PROPERTY
W(PB)
SciTegic.value.DoubleValue
-4.579

@<SCITEGIC>MOL_PROPERTY
W(SA)
SciTegic.value.DoubleValue
1.601

@<SCITEGIC>MOL_PROPERTY
Valence
SciTegic.value.DoubleValue
6.333

@<SCITEGIC>MOL_PROPERTY
Coulomb
SciTegic.value.DoubleValue
-7.439

@<SCITEGIC>MOL_PROPERTY
VdW
SciTegic.value.DoubleValue
0.952

@<SCITEGIC>MOL_PROPERTY
VdW6
SciTegic.value.DoubleValue
-2.120

@<SCITEGIC>MOL_PROPERTY
VdW12
SciTegic.value.DoubleValue
3.072

@<SCITEGIC>MOL_PROPERTY
Bond
SciTegic.value.DoubleValue
0.065

@<SCITEGIC>MOL_PROPERTY
Angle
SciTegic.value.DoubleValue
0.931

@<SCITEGIC>MOL_PROPERTY
Pdih
SciTegic.value.DoubleValue
5.338

@<SCITEGIC>MOL_PROPERTY
Idih
SciTegic.value.DoubleValue
0.000

@<SCITEGIC>MOL_PROPERTY
Tether
SciTegic.value.DoubleValue
0.000

@<TRIPOS>MOLECULE
guest-s16_confgen4.mol2 : confsearch ligand conformer 627
          13          13           1
SMALL
USER_CHARGES
 
@<TRIPOS>ATOM
       1    C1      18.818180   17.994661   21.780759 C.3        1 MOL1        -0.1693
       2    H1      18.235642   18.318999   20.908383 H          1 MOL1         0.0829
       3    H2      18.509374   16.977521   22.049836 H          1 MOL1         0.0829
       4    C2      18.872310   19.029059   22.953116 C.3        1 MOL1        -0.1768
       5    H3      19.156121   18.605797   23.924761 H          1 MOL1         0.0829
       6    H4      17.982083   19.653388   23.086843 H          1 MOL1         0.0829
       7    C3      20.047041   19.680359   22.162540 C.3        1 MOL1         0.1211
       8    H5      19.723334   20.363126   21.364979 H          1 MOL1         0.0786
       9    C4      20.359398   18.236758   21.665254 C.3        1 MOL1        -0.1768
      10    H6      20.971270   17.641260   22.354151 H          1 MOL1         0.0829
      11    H7      20.786777   18.161532   20.659446 H          1 MOL1         0.0829
      12    O1      21.049581   20.274907   22.953727 O.3        1 MOL1        -0.5515
      13    H8      20.670987   21.097013   23.333215 H          1 MOL1         0.3773
@<TRIPOS>BOND
    1     1     2    1
    2     1     3    1
    3     1     4    1
    4     4     5    1
    5     4     6    1
    6     4     7    1
    7     7     8    1
    8     1     9    1
    9     7     9    1
   10     9    10    1
   11     9    11    1
   12     7    12    1
   13    12    13    1
@<TRIPOS>SUBSTRUCTURE
       1 MOL1            1 RESIDUE      1      MOL     
@<SCITEGIC>MOL_PROPERTY
VConf Rank
SciTegic.value.IntegerValue
627

@<SCITEGIC>MOL_PROPERTY
Conf_Id
SciTegic.value.IntegerValue
19

@<SCITEGIC>MOL_PROPERTY
Delta U+W
SciTegic.value.DoubleValue
-0.011

@<SCITEGIC>MOL_PROPERTY
U+W
SciTegic.value.DoubleValue
-3.142

@<SCITEGIC>MOL_PROPERTY
Grad RMS
SciTegic.value.DoubleValue
0.000000

@<SCITEGIC>MOL_PROPERTY
U
SciTegic.value.DoubleValue
-0.154

@<SCITEGIC>MOL_PROPERTY
W
SciTegic.value.DoubleValue
-2.989

@<SCITEGIC>MOL_PROPERTY
W(PB)
SciTegic.value.DoubleValue
-4.588

@<SCITEGIC>MOL_PROPERTY
W(SA)
SciTegic.value.DoubleValue
1.599

@<SCITEGIC>MOL_PROPERTY
Valence
SciTegic.value.DoubleValue
6.334

@<SCITEGIC>MOL_PROPERTY
Coulomb
SciTegic.value.DoubleValue
-7.439

@<SCITEGIC>MOL_PROPERTY
VdW
SciTegic.value.DoubleValue
0.951

@<SCITEGIC>MOL_PROPERTY
VdW6
SciTegic.value.DoubleValue
-2.120

@<SCITEGIC>MOL_PROPERTY
VdW12
SciTegic.value.DoubleValue
3.072

@<SCITEGIC>MOL_PROPERTY
Bond
SciTegic.value.DoubleValue
0.065

@<SCITEGIC>MOL_PROPERTY
Angle
SciTegic.value.DoubleValue
0.930

@<SCITEGIC>MOL_PROPERTY
Pdih
SciTegic.value.DoubleValue
5.339

@<SCITEGIC>MOL_PROPERTY
Idih
SciTegic.value.DoubleValue
0.000

@<SCITEGIC>MOL_PROPERTY
Tether
SciTegic.value.DoubleValue
0.000

@<TRIPOS>MOLECULE
guest-s16_confgen4.mol2 : confsearch ligand conformer 628
          13          13           1
SMALL
USER_CHARGES
 
@<TRIPOS>ATOM
       1    C1      20.559564   19.580289   22.897442 C.3        1 MOL1        -0.1693
       2    H1      20.865960   20.449196   23.491665 H          1 MOL1         0.0829
       3    H2      21.383981   18.855461   22.884485 H          1 MOL1         0.0829
       4    C2      19.944472   19.889541   21.492097 C.3        1 MOL1        -0.1768
       5    H3      19.399016   20.839154   21.433128 H          1 MOL1         0.0829
       6    H4      20.632210   19.827003   20.641509 H          1 MOL1         0.0829
       7    C3      19.034462   18.642629   21.721273 C.3        1 MOL1         0.1211
       8    H5      18.019566   18.736320   21.313817 H          1 MOL1         0.0786
       9    C4      19.161118   18.968676   23.242373 C.3        1 MOL1        -0.1768
      10    H6      19.167369   18.106997   23.918999 H          1 MOL1         0.0829
      11    H7      18.425685   19.695419   23.608376 H          1 MOL1         0.0829
      12    O1      19.602959   17.410527   21.325191 O.3        1 MOL1        -0.5515
      13    H8      19.025326   16.698484   21.673745 H          1 MOL1         0.3773
@<TRIPOS>BOND
    1     1     2    1
    2     1     3    1
    3     1     4    1
    4     4     5    1
    5     4     6    1
    6     4     7    1
    7     7     8    1
    8     1     9    1
    9     7     9    1
   10     9    10    1
   11     9    11    1
   12     7    12    1
   13    12    13    1
@<TRIPOS>SUBSTRUCTURE
       1 MOL1            1 RESIDUE      1      MOL     
@<SCITEGIC>MOL_PROPERTY
VConf Rank
SciTegic.value.IntegerValue
628

@<SCITEGIC>MOL_PROPERTY
Conf_Id
SciTegic.value.IntegerValue
20

@<SCITEGIC>MOL_PROPERTY
Delta U+W
SciTegic.value.DoubleValue
1.030

@<SCITEGIC>MOL_PROPERTY
U+W
SciTegic.value.DoubleValue
-2.101

@<SCITEGIC>MOL_PROPERTY
Grad RMS
SciTegic.value.DoubleValue
0.000000

@<SCITEGIC>MOL_PROPERTY
U
SciTegic.value.DoubleValue
0.841

@<SCITEGIC>MOL_PROPERTY
W
SciTegic.value.DoubleValue
-2.942

@<SCITEGIC>MOL_PROPERTY
W(PB)
SciTegic.value.DoubleValue
-4.530

@<SCITEGIC>MOL_PROPERTY
W(SA)
SciTegic.value.DoubleValue
1.587

@<SCITEGIC>MOL_PROPERTY
Valence
SciTegic.value.DoubleValue
6.736

@<SCITEGIC>MOL_PROPERTY
Coulomb
SciTegic.value.DoubleValue
-7.246

@<SCITEGIC>MOL_PROPERTY
VdW
SciTegic.value.DoubleValue
1.352

@<SCITEGIC>MOL_PROPERTY
VdW6
SciTegic.value.DoubleValue
-2.500

@<SCITEGIC>MOL_PROPERTY
VdW12
SciTegic.value.DoubleValue
3.851

@<SCITEGIC>MOL_PROPERTY
Bond
SciTegic.value.DoubleValue
0.063

@<SCITEGIC>MOL_PROPERTY
Angle
SciTegic.value.DoubleValue
0.687

@<SCITEGIC>MOL_PROPERTY
Pdih
SciTegic.value.DoubleValue
5.986

@<SCITEGIC>MOL_PROPERTY
Idih
SciTegic.value.DoubleValue
0.000

@<SCITEGIC>MOL_PROPERTY
Tether
SciTegic.value.DoubleValue
0.000

@<TRIPOS>MOLECULE
guest-s16_confgen4.mol2 : confsearch ligand conformer 629
          13          13           1
SMALL
USER_CHARGES
 
@<TRIPOS>ATOM
       1    C1      18.499630   18.745347   22.422103 C.3        1 MOL1        -0.1693
       2    H1      18.050196   17.837293   21.998882 H          1 MOL1         0.0829
       3    H2      17.723784   19.300587   22.962653 H          1 MOL1         0.0829
       4    C2      19.365482   19.575620   21.417960 C.3        1 MOL1        -0.1768
       5    H3      19.042692   19.554766   20.371220 H          1 MOL1         0.0829
       6    H4      19.534685   20.618448   21.713371 H          1 MOL1         0.0829
       7    C3      20.517665   18.594376   21.790506 C.3        1 MOL1         0.1211
       8    H5      20.494614   17.649421   21.230844 H          1 MOL1         0.0786
       9    C4      19.841333   18.513116   23.192336 C.3        1 MOL1        -0.1768
      10    H6      20.116895   19.318461   23.884342 H          1 MOL1         0.0829
      11    H7      19.938795   17.553910   23.712640 H          1 MOL1         0.0829
      12    O1      21.811873   19.148095   21.774996 O.3        1 MOL1        -0.5515
      13    H8      21.770959   19.983399   22.286182 H          1 MOL1         0.3773
@<TRIPOS>BOND
    1     1     2    1
    2     1     3    1
    3     1     4    1
    4     4     5    1
    5     4     6    1
    6     4     7    1
    7     7     8    1
    8     1     9    1
    9     7     9    1
   10     9    10    1
   11     9    11    1
   12     7    12    1
   13    12    13    1
@<TRIPOS>SUBSTRUCTURE
       1 MOL1            1 RESIDUE      1      MOL     
@<SCITEGIC>MOL_PROPERTY
VConf Rank
SciTegic.value.IntegerValue
629

@<SCITEGIC>MOL_PROPERTY
Conf_Id
SciTegic.value.IntegerValue
24

@<SCITEGIC>MOL_PROPERTY
Delta U+W
SciTegic.value.DoubleValue
0.356

@<SCITEGIC>MOL_PROPERTY
U+W
SciTegic.value.DoubleValue
-2.775

@<SCITEGIC>MOL_PROPERTY
Grad RMS
SciTegic.value.DoubleValue
0.000000

@<SCITEGIC>MOL_PROPERTY
U
SciTegic.value.DoubleValue
-0.184

@<SCITEGIC>MOL_PROPERTY
W
SciTegic.value.DoubleValue
-2.591

@<SCITEGIC>MOL_PROPERTY
W(PB)
SciTegic.value.DoubleValue
-4.184

@<SCITEGIC>MOL_PROPERTY
W(SA)
SciTegic.value.DoubleValue
1.593

@<SCITEGIC>MOL_PROPERTY
Valence
SciTegic.value.DoubleValue
6.840

@<SCITEGIC>MOL_PROPERTY
Coulomb
SciTegic.value.DoubleValue
-7.916

@<SCITEGIC>MOL_PROPERTY
VdW
SciTegic.value.DoubleValue
0.893

@<SCITEGIC>MOL_PROPERTY
VdW6
SciTegic.value.DoubleValue
-2.167

@<SCITEGIC>MOL_PROPERTY
VdW12
SciTegic.value.DoubleValue
3.060

@<SCITEGIC>MOL_PROPERTY
Bond
SciTegic.value.DoubleValue
0.059

@<SCITEGIC>MOL_PROPERTY
Angle
SciTegic.value.DoubleValue
0.918

@<SCITEGIC>MOL_PROPERTY
Pdih
SciTegic.value.DoubleValue
5.862

@<SCITEGIC>MOL_PROPERTY
Idih
SciTegic.value.DoubleValue
0.000

@<SCITEGIC>MOL_PROPERTY
Tether
SciTegic.value.DoubleValue
0.000

@<TRIPOS>MOLECULE
guest-s16_confgen4.mol2 : confsearch ligand conformer 630
          13          13           1
SMALL
USER_CHARGES
 
@<TRIPOS>ATOM
       1    C1      19.292332   18.098537   22.796418 C.3        1 MOL1        -0.1693
       2    H1      18.721674   17.783289   23.678087 H          1 MOL1         0.0829
       3    H2      19.611059   17.201262   22.250886 H          1 MOL1         0.0829
       4    C2      20.423590   19.149401   23.053475 C.3        1 MOL1        -0.1768
       5    H3      20.224830   19.834911   23.886293 H          1 MOL1         0.0829
       6    H4      21.437752   18.749951   23.165836 H          1 MOL1         0.0829
       7    C3      20.072721   19.734196   21.650300 C.3        1 MOL1         0.1211
       8    H5      20.156935   20.825637   21.571875 H          1 MOL1         0.0786
       9    C4      18.628216   19.205883   21.911618 C.3        1 MOL1        -0.1768
      10    H6      17.989256   19.905240   22.464470 H          1 MOL1         0.0829
      11    H7      18.079656   18.855595   21.030092 H          1 MOL1         0.0829
      12    O1      20.740792   19.119968   20.569498 O.3        1 MOL1        -0.5515
      13    H8      20.633045   18.154100   20.691163 H          1 MOL1         0.3773
@<TRIPOS>BOND
    1     1     2    1
    2     1     3    1
    3     1     4    1
    4     4     5    1
    5     4     6    1
    6     4     7    1
    7     7     8    1
    8     1     9    1
    9     7     9    1
   10     9    10    1
   11     9    11    1
   12     7    12    1
   13    12    13    1
@<TRIPOS>SUBSTRUCTURE
       1 MOL1            1 RESIDUE      1      MOL     
@<SCITEGIC>MOL_PROPERTY
VConf Rank
SciTegic.value.IntegerValue
630

@<SCITEGIC>MOL_PROPERTY
Conf_Id
SciTegic.value.IntegerValue
44

@<SCITEGIC>MOL_PROPERTY
Delta U+W
SciTegic.value.DoubleValue
0.823

@<SCITEGIC>MOL_PROPERTY
U+W
SciTegic.value.DoubleValue
-2.308

@<SCITEGIC>MOL_PROPERTY
Grad RMS
SciTegic.value.DoubleValue
0.000000

@<SCITEGIC>MOL_PROPERTY
U
SciTegic.value.DoubleValue
0.039

@<SCITEGIC>MOL_PROPERTY
W
SciTegic.value.DoubleValue
-2.348

@<SCITEGIC>MOL_PROPERTY
W(PB)
SciTegic.value.DoubleValue
-3.918

@<SCITEGIC>MOL_PROPERTY
W(SA)
SciTegic.value.DoubleValue
1.571

@<SCITEGIC>MOL_PROPERTY
Valence
SciTegic.value.DoubleValue
7.320

@<SCITEGIC>MOL_PROPERTY
Coulomb
SciTegic.value.DoubleValue
-8.530

@<SCITEGIC>MOL_PROPERTY
VdW
SciTegic.value.DoubleValue
1.249

@<SCITEGIC>MOL_PROPERTY
VdW6
SciTegic.value.DoubleValue
-2.615

@<SCITEGIC>MOL_PROPERTY
VdW12
SciTegic.value.DoubleValue
3.864

@<SCITEGIC>MOL_PROPERTY
Bond
SciTegic.value.DoubleValue
0.056

@<SCITEGIC>MOL_PROPERTY
Angle
SciTegic.value.DoubleValue
0.694

@<SCITEGIC>MOL_PROPERTY
Pdih
SciTegic.value.DoubleValue
6.570

@<SCITEGIC>MOL_PROPERTY
Idih
SciTegic.value.DoubleValue
0.000

@<SCITEGIC>MOL_PROPERTY
Tether
SciTegic.value.DoubleValue
0.000

@<TRIPOS>MOLECULE
guest-s16_confgen4.mol2 : confsearch ligand conformer 631
          13          13           1
SMALL
USER_CHARGES
 
@<TRIPOS>ATOM
       1    C1      19.405828   20.027607   21.409620 C.3        1 MOL1        -0.1693
       2    H1      19.376909   21.014475   21.890079 H          1 MOL1         0.0829
       3    H2      19.254445   20.158199   20.331489 H          1 MOL1         0.0829
       4    C2      18.521830   18.937318   22.100362 C.3        1 MOL1        -0.1768
       5    H3      17.600260   19.291293   22.575094 H          1 MOL1         0.0829
       6    H4      18.284118   18.071195   21.470355 H          1 MOL1         0.0829
       7    C3      19.737679   18.728566   23.052718 C.3        1 MOL1         0.1211
       8    H5      19.776841   19.445291   23.884483 H          1 MOL1         0.0786
       9    C4      20.616417   19.130217   21.829733 C.3        1 MOL1        -0.1768
      10    H6      21.548553   19.656319   22.063207 H          1 MOL1         0.0829
      11    H7      20.838638   18.307746   21.138392 H          1 MOL1         0.0829
      12    O1      19.918752   17.411412   23.518403 O.3        1 MOL1        -0.5515
      13    H8      20.792459   17.378269   23.964207 H          1 MOL1         0.3773
@<TRIPOS>BOND
    1     1     2    1
    2     1     3    1
    3     1     4    1
    4     4     5    1
    5     4     6    1
    6     4     7    1
    7     7     8    1
    8     1     9    1
    9     7     9    1
   10     9    10    1
   11     9    11    1
   12     7    12    1
   13    12    13    1
@<TRIPOS>SUBSTRUCTURE
       1 MOL1            1 RESIDUE      1      MOL     
@<SCITEGIC>MOL_PROPERTY
VConf Rank
SciTegic.value.IntegerValue
631

@<SCITEGIC>MOL_PROPERTY
Conf_Id
SciTegic.value.IntegerValue
22

@<SCITEGIC>MOL_PROPERTY
Delta U+W
SciTegic.value.DoubleValue
0.000

@<SCITEGIC>MOL_PROPERTY
U+W
SciTegic.value.DoubleValue
-3.131

@<SCITEGIC>MOL_PROPERTY
Grad RMS
SciTegic.value.DoubleValue
0.000000

@<SCITEGIC>MOL_PROPERTY
U
SciTegic.value.DoubleValue
-0.154

@<SCITEGIC>MOL_PROPERTY
W
SciTegic.value.DoubleValue
-2.978

@<SCITEGIC>MOL_PROPERTY
W(PB)
SciTegic.value.DoubleValue
-4.579

@<SCITEGIC>MOL_PROPERTY
W(SA)
SciTegic.value.DoubleValue
1.601

@<SCITEGIC>MOL_PROPERTY
Valence
SciTegic.value.DoubleValue
6.333

@<SCITEGIC>MOL_PROPERTY
Coulomb
SciTegic.value.DoubleValue
-7.439

@<SCITEGIC>MOL_PROPERTY
VdW
SciTegic.value.DoubleValue
0.952

@<SCITEGIC>MOL_PROPERTY
VdW6
SciTegic.value.DoubleValue
-2.120

@<SCITEGIC>MOL_PROPERTY
VdW12
SciTegic.value.DoubleValue
3.072

@<SCITEGIC>MOL_PROPERTY
Bond
SciTegic.value.DoubleValue
0.065

@<SCITEGIC>MOL_PROPERTY
Angle
SciTegic.value.DoubleValue
0.931

@<SCITEGIC>MOL_PROPERTY
Pdih
SciTegic.value.DoubleValue
5.338

@<SCITEGIC>MOL_PROPERTY
Idih
SciTegic.value.DoubleValue
0.000

@<SCITEGIC>MOL_PROPERTY
Tether
SciTegic.value.DoubleValue
0.000

@<TRIPOS>MOLECULE
guest-s16_confgen4.mol2 : confsearch ligand conformer 632
          13          13           1
SMALL
USER_CHARGES
 
@<TRIPOS>ATOM
       1    C1      19.381714   18.867542   20.951093 C.3        1 MOL1        -0.1693
       2    H1      20.017600   19.534717   20.354341 H          1 MOL1         0.0829
       3    H2      18.670350   18.369816   20.281342 H          1 MOL1         0.0829
       4    C2      18.774132   19.519373   22.236896 C.3        1 MOL1        -0.1768
       5    H3      17.903897   18.993778   22.649491 H          1 MOL1         0.0829
       6    H4      18.542675   20.588222   22.172388 H          1 MOL1         0.0829
       7    C3      20.130376   19.157039   22.914032 C.3        1 MOL1         0.1211
       8    H5      20.929926   19.887705   22.729888 H          1 MOL1         0.0786
       9    C4      20.156992   17.938580   21.942697 C.3        1 MOL1        -0.1768
      10    H6      19.591577   17.065997   22.292682 H          1 MOL1         0.0829
      11    H7      21.150347   17.608467   21.619846 H          1 MOL1         0.0829
      12    O1      20.053274   18.834246   24.283122 O.3        1 MOL1        -0.5515
      13    H8      19.879239   19.668901   24.769194 H          1 MOL1         0.3773
@<TRIPOS>BOND
    1     1     2    1
    2     1     3    1
    3     1     4    1
    4     4     5    1
    5     4     6    1
    6     4     7    1
    7     7     8    1
    8     1     9    1
    9     7     9    1
   10     9    10    1
   11     9    11    1
   12     7    12    1
   13    12    13    1
@<TRIPOS>SUBSTRUCTURE
       1 MOL1            1 RESIDUE      1      MOL     
@<SCITEGIC>MOL_PROPERTY
VConf Rank
SciTegic.value.IntegerValue
632

@<SCITEGIC>MOL_PROPERTY
Conf_Id
SciTegic.value.IntegerValue
19

@<SCITEGIC>MOL_PROPERTY
Delta U+W
SciTegic.value.DoubleValue
-0.011

@<SCITEGIC>MOL_PROPERTY
U+W
SciTegic.value.DoubleValue
-3.142

@<SCITEGIC>MOL_PROPERTY
Grad RMS
SciTegic.value.DoubleValue
0.000000

@<SCITEGIC>MOL_PROPERTY
U
SciTegic.value.DoubleValue
-0.154

@<SCITEGIC>MOL_PROPERTY
W
SciTegic.value.DoubleValue
-2.989

@<SCITEGIC>MOL_PROPERTY
W(PB)
SciTegic.value.DoubleValue
-4.588

@<SCITEGIC>MOL_PROPERTY
W(SA)
SciTegic.value.DoubleValue
1.599

@<SCITEGIC>MOL_PROPERTY
Valence
SciTegic.value.DoubleValue
6.334

@<SCITEGIC>MOL_PROPERTY
Coulomb
SciTegic.value.DoubleValue
-7.439

@<SCITEGIC>MOL_PROPERTY
VdW
SciTegic.value.DoubleValue
0.951

@<SCITEGIC>MOL_PROPERTY
VdW6
SciTegic.value.DoubleValue
-2.120

@<SCITEGIC>MOL_PROPERTY
VdW12
SciTegic.value.DoubleValue
3.072

@<SCITEGIC>MOL_PROPERTY
Bond
SciTegic.value.DoubleValue
0.065

@<SCITEGIC>MOL_PROPERTY
Angle
SciTegic.value.DoubleValue
0.930

@<SCITEGIC>MOL_PROPERTY
Pdih
SciTegic.value.DoubleValue
5.339

@<SCITEGIC>MOL_PROPERTY
Idih
SciTegic.value.DoubleValue
0.000

@<SCITEGIC>MOL_PROPERTY
Tether
SciTegic.value.DoubleValue
0.000

@<TRIPOS>MOLECULE
guest-s16_confgen4.mol2 : confsearch ligand conformer 633
          13          13           1
SMALL
USER_CHARGES
 
@<TRIPOS>ATOM
       1    C1      20.567686   18.851296   21.504513 C.3        1 MOL1        -0.1693
       2    H1      21.313841   19.321016   20.852905 H          1 MOL1         0.0829
       3    H2      20.750778   17.769041   21.524722 H          1 MOL1         0.0829
       4    C2      19.077476   19.253208   21.246225 C.3        1 MOL1        -0.1768
       5    H3      18.940317   20.273749   20.868802 H          1 MOL1         0.0829
       6    H4      18.495512   18.567119   20.620931 H          1 MOL1         0.0829
       7    C3      18.870627   19.107816   22.786194 C.3        1 MOL1         0.1211
       8    H5      18.166538   19.827830   23.222830 H          1 MOL1         0.0786
       9    C4      20.374755   19.504748   22.913228 C.3        1 MOL1        -0.1768
      10    H6      20.925842   19.039620   23.738038 H          1 MOL1         0.0829
      11    H7      20.552725   20.586686   22.939893 H          1 MOL1         0.0829
      12    O1      18.558975   17.800274   23.223632 O.3        1 MOL1        -0.5515
      13    H8      18.626615   17.797296   24.202188 H          1 MOL1         0.3773
@<TRIPOS>BOND
    1     1     2    1
    2     1     3    1
    3     1     4    1
    4     4     5    1
    5     4     6    1
    6     4     7    1
    7     7     8    1
    8     1     9    1
    9     7     9    1
   10     9    10    1
   11     9    11    1
   12     7    12    1
   13    12    13    1
@<TRIPOS>SUBSTRUCTURE
       1 MOL1            1 RESIDUE      1      MOL     
@<SCITEGIC>MOL_PROPERTY
VConf Rank
SciTegic.value.IntegerValue
633

@<SCITEGIC>MOL_PROPERTY
Conf_Id
SciTegic.value.IntegerValue
20

@<SCITEGIC>MOL_PROPERTY
Delta U+W
SciTegic.value.DoubleValue
1.030

@<SCITEGIC>MOL_PROPERTY
U+W
SciTegic.value.DoubleValue
-2.101

@<SCITEGIC>MOL_PROPERTY
Grad RMS
SciTegic.value.DoubleValue
0.000000

@<SCITEGIC>MOL_PROPERTY
U
SciTegic.value.DoubleValue
0.841

@<SCITEGIC>MOL_PROPERTY
W
SciTegic.value.DoubleValue
-2.942

@<SCITEGIC>MOL_PROPERTY
W(PB)
SciTegic.value.DoubleValue
-4.530

@<SCITEGIC>MOL_PROPERTY
W(SA)
SciTegic.value.DoubleValue
1.587

@<SCITEGIC>MOL_PROPERTY
Valence
SciTegic.value.DoubleValue
6.736

@<SCITEGIC>MOL_PROPERTY
Coulomb
SciTegic.value.DoubleValue
-7.246

@<SCITEGIC>MOL_PROPERTY
VdW
SciTegic.value.DoubleValue
1.352

@<SCITEGIC>MOL_PROPERTY
VdW6
SciTegic.value.DoubleValue
-2.500

@<SCITEGIC>MOL_PROPERTY
VdW12
SciTegic.value.DoubleValue
3.851

@<SCITEGIC>MOL_PROPERTY
Bond
SciTegic.value.DoubleValue
0.063

@<SCITEGIC>MOL_PROPERTY
Angle
SciTegic.value.DoubleValue
0.687

@<SCITEGIC>MOL_PROPERTY
Pdih
SciTegic.value.DoubleValue
5.986

@<SCITEGIC>MOL_PROPERTY
Idih
SciTegic.value.DoubleValue
0.000

@<SCITEGIC>MOL_PROPERTY
Tether
SciTegic.value.DoubleValue
0.000

@<TRIPOS>MOLECULE
guest-s16_confgen4.mol2 : confsearch ligand conformer 634
          13          13           1
SMALL
USER_CHARGES
 
@<TRIPOS>ATOM
       1    C1      20.332186   18.933595   23.352221 C.3        1 MOL1        -0.1693
       2    H1      20.422323   19.879995   23.901649 H          1 MOL1         0.0829
       3    H2      20.795599   18.137817   23.947542 H          1 MOL1         0.0829
       4    C2      20.761301   19.006305   21.849580 C.3        1 MOL1        -0.1768
       5    H3      21.567620   19.708898   21.611875 H          1 MOL1         0.0829
       6    H4      20.993525   18.036412   21.392670 H          1 MOL1         0.0829
       7    C3      19.314335   19.523352   21.588605 C.3        1 MOL1         0.1211
       8    H5      19.188686   20.600084   21.766239 H          1 MOL1         0.0786
       9    C4      18.900298   18.632562   22.798655 C.3        1 MOL1        -0.1768
      10    H6      18.716566   17.579132   22.553876 H          1 MOL1         0.0829
      11    H7      18.063068   19.005083   23.399127 H          1 MOL1         0.0829
      12    O1      18.755898   19.157038   20.349340 O.3        1 MOL1        -0.5515
      13    H8      18.897198   18.192564   20.246657 H          1 MOL1         0.3773
@<TRIPOS>BOND
    1     1     2    1
    2     1     3    1
    3     1     4    1
    4     4     5    1
    5     4     6    1
    6     4     7    1
    7     7     8    1
    8     1     9    1
    9     7     9    1
   10     9    10    1
   11     9    11    1
   12     7    12    1
   13    12    13    1
@<TRIPOS>SUBSTRUCTURE
       1 MOL1            1 RESIDUE      1      MOL     
@<SCITEGIC>MOL_PROPERTY
VConf Rank
SciTegic.value.IntegerValue
634

@<SCITEGIC>MOL_PROPERTY
Conf_Id
SciTegic.value.IntegerValue
24

@<SCITEGIC>MOL_PROPERTY
Delta U+W
SciTegic.value.DoubleValue
0.356

@<SCITEGIC>MOL_PROPERTY
U+W
SciTegic.value.DoubleValue
-2.775

@<SCITEGIC>MOL_PROPERTY
Grad RMS
SciTegic.value.DoubleValue
0.000000

@<SCITEGIC>MOL_PROPERTY
U
SciTegic.value.DoubleValue
-0.184

@<SCITEGIC>MOL_PROPERTY
W
SciTegic.value.DoubleValue
-2.591

@<SCITEGIC>MOL_PROPERTY
W(PB)
SciTegic.value.DoubleValue
-4.184

@<SCITEGIC>MOL_PROPERTY
W(SA)
SciTegic.value.DoubleValue
1.593

@<SCITEGIC>MOL_PROPERTY
Valence
SciTegic.value.DoubleValue
6.840

@<SCITEGIC>MOL_PROPERTY
Coulomb
SciTegic.value.DoubleValue
-7.916

@<SCITEGIC>MOL_PROPERTY
VdW
SciTegic.value.DoubleValue
0.893

@<SCITEGIC>MOL_PROPERTY
VdW6
SciTegic.value.DoubleValue
-2.167

@<SCITEGIC>MOL_PROPERTY
VdW12
SciTegic.value.DoubleValue
3.060

@<SCITEGIC>MOL_PROPERTY
Bond
SciTegic.value.DoubleValue
0.059

@<SCITEGIC>MOL_PROPERTY
Angle
SciTegic.value.DoubleValue
0.918

@<SCITEGIC>MOL_PROPERTY
Pdih
SciTegic.value.DoubleValue
5.862

@<SCITEGIC>MOL_PROPERTY
Idih
SciTegic.value.DoubleValue
0.000

@<SCITEGIC>MOL_PROPERTY
Tether
SciTegic.value.DoubleValue
0.000

@<TRIPOS>MOLECULE
guest-s16_confgen4.mol2 : confsearch ligand conformer 635
          13          13           1
SMALL
USER_CHARGES
 
@<TRIPOS>ATOM
       1    C1      18.888282   18.543248   22.869118 C.3        1 MOL1        -0.1693
       2    H1      18.225595   17.689823   23.055891 H          1 MOL1         0.0829
       3    H2      18.698483   19.303939   23.636986 H          1 MOL1         0.0829
       4    C2      18.911888   19.082409   21.399803 C.3        1 MOL1        -0.1768
       5    H3      18.725174   18.319730   20.633987 H          1 MOL1         0.0829
       6    H4      18.272649   19.947876   21.192320 H          1 MOL1         0.0829
       7    C3      20.422892   19.391580   21.634906 C.3        1 MOL1         0.1211
       8    H5      21.065786   19.241018   20.758262 H          1 MOL1         0.0786
       9    C4      20.398393   18.199887   22.641515 C.3        1 MOL1        -0.1768
      10    H6      20.576148   17.220826   22.180150 H          1 MOL1         0.0829
      11    H7      21.053029   18.297191   23.514837 H          1 MOL1         0.0829
      12    O1      20.685746   20.650880   22.215249 O.3        1 MOL1        -0.5515
      13    H8      20.087792   20.729566   22.986983 H          1 MOL1         0.3773
@<TRIPOS>BOND
    1     1     2    1
    2     1     3    1
    3     1     4    1
    4     4     5    1
    5     4     6    1
    6     4     7    1
    7     7     8    1
    8     1     9    1
    9     7     9    1
   10     9    10    1
   11     9    11    1
   12     7    12    1
   13    12    13    1
@<TRIPOS>SUBSTRUCTURE
       1 MOL1            1 RESIDUE      1      MOL     
@<SCITEGIC>MOL_PROPERTY
VConf Rank
SciTegic.value.IntegerValue
635

@<SCITEGIC>MOL_PROPERTY
Conf_Id
SciTegic.value.IntegerValue
44

@<SCITEGIC>MOL_PROPERTY
Delta U+W
SciTegic.value.DoubleValue
0.823

@<SCITEGIC>MOL_PROPERTY
U+W
SciTegic.value.DoubleValue
-2.308

@<SCITEGIC>MOL_PROPERTY
Grad RMS
SciTegic.value.DoubleValue
0.000000

@<SCITEGIC>MOL_PROPERTY
U
SciTegic.value.DoubleValue
0.039

@<SCITEGIC>MOL_PROPERTY
W
SciTegic.value.DoubleValue
-2.348

@<SCITEGIC>MOL_PROPERTY
W(PB)
SciTegic.value.DoubleValue
-3.918

@<SCITEGIC>MOL_PROPERTY
W(SA)
SciTegic.value.DoubleValue
1.571

@<SCITEGIC>MOL_PROPERTY
Valence
SciTegic.value.DoubleValue
7.320

@<SCITEGIC>MOL_PROPERTY
Coulomb
SciTegic.value.DoubleValue
-8.530

@<SCITEGIC>MOL_PROPERTY
VdW
SciTegic.value.DoubleValue
1.249

@<SCITEGIC>MOL_PROPERTY
VdW6
SciTegic.value.DoubleValue
-2.615

@<SCITEGIC>MOL_PROPERTY
VdW12
SciTegic.value.DoubleValue
3.864

@<SCITEGIC>MOL_PROPERTY
Bond
SciTegic.value.DoubleValue
0.056

@<SCITEGIC>MOL_PROPERTY
Angle
SciTegic.value.DoubleValue
0.694

@<SCITEGIC>MOL_PROPERTY
Pdih
SciTegic.value.DoubleValue
6.570

@<SCITEGIC>MOL_PROPERTY
Idih
SciTegic.value.DoubleValue
0.000

@<SCITEGIC>MOL_PROPERTY
Tether
SciTegic.value.DoubleValue
0.000

@<TRIPOS>MOLECULE
guest-s16_confgen4.mol2 : confsearch ligand conformer 636
          13          13           1
SMALL
USER_CHARGES
 
@<TRIPOS>ATOM
       1    C1      18.430135   19.278084   21.853549 C.3        1 MOL1        -0.1693
       2    H1      17.697624   19.247977   22.670928 H          1 MOL1         0.0829
       3    H2      17.910963   19.553074   20.927709 H          1 MOL1         0.0829
       4    C2      19.368980   18.029537   21.769854 C.3        1 MOL1        -0.1768
       5    H3      18.932949   17.074651   22.082952 H          1 MOL1         0.0829
       6    H4      19.863957   17.890601   20.800689 H          1 MOL1         0.0829
       7    C3      20.235827   18.761411   22.838397 C.3        1 MOL1         0.1211
       8    H5      19.881725   18.619520   23.868708 H          1 MOL1         0.0786
       9    C4      19.735285   20.079114   22.173333 C.3        1 MOL1        -0.1768
      10    H6      19.621590   20.938982   22.842566 H          1 MOL1         0.0829
      11    H7      20.308906   20.391145   21.291636 H          1 MOL1         0.0829
      12    O1      21.622699   18.530578   22.749817 O.3        1 MOL1        -0.5515
      13    H8      22.062087   19.163231   23.358004 H          1 MOL1         0.3773
@<TRIPOS>BOND
    1     1     2    1
    2     1     3    1
    3     1     4    1
    4     4     5    1
    5     4     6    1
    6     4     7    1
    7     7     8    1
    8     1     9    1
    9     7     9    1
   10     9    10    1
   11     9    11    1
   12     7    12    1
   13    12    13    1
@<TRIPOS>SUBSTRUCTURE
       1 MOL1            1 RESIDUE      1      MOL     
@<SCITEGIC>MOL_PROPERTY
VConf Rank
SciTegic.value.IntegerValue
636

@<SCITEGIC>MOL_PROPERTY
Conf_Id
SciTegic.value.IntegerValue
22

@<SCITEGIC>MOL_PROPERTY
Delta U+W
SciTegic.value.DoubleValue
0.000

@<SCITEGIC>MOL_PROPERTY
U+W
SciTegic.value.DoubleValue
-3.131

@<SCITEGIC>MOL_PROPERTY
Grad RMS
SciTegic.value.DoubleValue
0.000000

@<SCITEGIC>MOL_PROPERTY
U
SciTegic.value.DoubleValue
-0.154

@<SCITEGIC>MOL_PROPERTY
W
SciTegic.value.DoubleValue
-2.978

@<SCITEGIC>MOL_PROPERTY
W(PB)
SciTegic.value.DoubleValue
-4.579

@<SCITEGIC>MOL_PROPERTY
W(SA)
SciTegic.value.DoubleValue
1.601

@<SCITEGIC>MOL_PROPERTY
Valence
SciTegic.value.DoubleValue
6.333

@<SCITEGIC>MOL_PROPERTY
Coulomb
SciTegic.value.DoubleValue
-7.439

@<SCITEGIC>MOL_PROPERTY
VdW
SciTegic.value.DoubleValue
0.952

@<SCITEGIC>MOL_PROPERTY
VdW6
SciTegic.value.DoubleValue
-2.120

@<SCITEGIC>MOL_PROPERTY
VdW12
SciTegic.value.DoubleValue
3.072

@<SCITEGIC>MOL_PROPERTY
Bond
SciTegic.value.DoubleValue
0.065

@<SCITEGIC>MOL_PROPERTY
Angle
SciTegic.value.DoubleValue
0.931

@<SCITEGIC>MOL_PROPERTY
Pdih
SciTegic.value.DoubleValue
5.338

@<SCITEGIC>MOL_PROPERTY
Idih
SciTegic.value.DoubleValue
0.000

@<SCITEGIC>MOL_PROPERTY
Tether
SciTegic.value.DoubleValue
0.000

@<TRIPOS>MOLECULE
guest-s16_confgen4.mol2 : confsearch ligand conformer 637
          13          13           1
SMALL
USER_CHARGES
 
@<TRIPOS>ATOM
       1    C1      18.938387   19.874380   22.849144 C.3        1 MOL1        -0.1693
       2    H1      18.888831   20.809945   22.276562 H          1 MOL1         0.0829
       3    H2      18.426093   20.022388   23.807260 H          1 MOL1         0.0829
       4    C2      20.360521   19.226791   22.923258 C.3        1 MOL1        -0.1768
       5    H3      20.491971   18.501858   23.736269 H          1 MOL1         0.0829
       6    H4      21.207185   19.921977   22.930261 H          1 MOL1         0.0829
       7    C3      20.011307   18.594535   21.542136 C.3        1 MOL1         0.1211
       8    H5      20.187136   19.263276   20.688362 H          1 MOL1         0.0786
       9    C4      18.536510   18.593497   22.045939 C.3        1 MOL1        -0.1768
      10    H6      18.268266   17.728137   22.664633 H          1 MOL1         0.0829
      11    H7      17.769767   18.726755   21.275026 H          1 MOL1         0.0829
      12    O1      20.567204   17.322243   21.303806 O.3        1 MOL1        -0.5515
      13    H8      21.528922   17.448600   21.154353 H          1 MOL1         0.3773
@<TRIPOS>BOND
    1     1     2    1
    2     1     3    1
    3     1     4    1
    4     4     5    1
    5     4     6    1
    6     4     7    1
    7     7     8    1
    8     1     9    1
    9     7     9    1
   10     9    10    1
   11     9    11    1
   12     7    12    1
   13    12    13    1
@<TRIPOS>SUBSTRUCTURE
       1 MOL1            1 RESIDUE      1      MOL     
@<SCITEGIC>MOL_PROPERTY
VConf Rank
SciTegic.value.IntegerValue
637

@<SCITEGIC>MOL_PROPERTY
Conf_Id
SciTegic.value.IntegerValue
19

@<SCITEGIC>MOL_PROPERTY
Delta U+W
SciTegic.value.DoubleValue
-0.011

@<SCITEGIC>MOL_PROPERTY
U+W
SciTegic.value.DoubleValue
-3.142

@<SCITEGIC>MOL_PROPERTY
Grad RMS
SciTegic.value.DoubleValue
0.000000

@<SCITEGIC>MOL_PROPERTY
U
SciTegic.value.DoubleValue
-0.154

@<SCITEGIC>MOL_PROPERTY
W
SciTegic.value.DoubleValue
-2.989

@<SCITEGIC>MOL_PROPERTY
W(PB)
SciTegic.value.DoubleValue
-4.588

@<SCITEGIC>MOL_PROPERTY
W(SA)
SciTegic.value.DoubleValue
1.599

@<SCITEGIC>MOL_PROPERTY
Valence
SciTegic.value.DoubleValue
6.334

@<SCITEGIC>MOL_PROPERTY
Coulomb
SciTegic.value.DoubleValue
-7.439

@<SCITEGIC>MOL_PROPERTY
VdW
SciTegic.value.DoubleValue
0.951

@<SCITEGIC>MOL_PROPERTY
VdW6
SciTegic.value.DoubleValue
-2.120

@<SCITEGIC>MOL_PROPERTY
VdW12
SciTegic.value.DoubleValue
3.072

@<SCITEGIC>MOL_PROPERTY
Bond
SciTegic.value.DoubleValue
0.065

@<SCITEGIC>MOL_PROPERTY
Angle
SciTegic.value.DoubleValue
0.930

@<SCITEGIC>MOL_PROPERTY
Pdih
SciTegic.value.DoubleValue
5.339

@<SCITEGIC>MOL_PROPERTY
Idih
SciTegic.value.DoubleValue
0.000

@<SCITEGIC>MOL_PROPERTY
Tether
SciTegic.value.DoubleValue
0.000

@<TRIPOS>MOLECULE
guest-s16_confgen4.mol2 : confsearch ligand conformer 638
          13          13           1
SMALL
USER_CHARGES
 
@<TRIPOS>ATOM
       1    C1      20.043544   18.179649   21.515862 C.3        1 MOL1        -0.1693
       2    H1      20.831672   17.438756   21.337232 H          1 MOL1         0.0829
       3    H2      19.278755   18.073790   20.735415 H          1 MOL1         0.0829
       4    C2      20.522700   19.649164   21.760622 C.3        1 MOL1        -0.1768
       5    H3      21.502377   19.733375   22.246324 H          1 MOL1         0.0829
       6    H4      20.505641   20.312372   20.888695 H          1 MOL1         0.0829
       7    C3      19.311877   19.780784   22.736334 C.3        1 MOL1         0.1211
       8    H5      19.501322   20.406319   23.618166 H          1 MOL1         0.0786
       9    C4      19.479797   18.247359   22.974048 C.3        1 MOL1        -0.1768
      10    H6      18.556972   17.686456   23.158798 H          1 MOL1         0.0829
      11    H7      20.206956   17.991076   23.754133 H          1 MOL1         0.0829
      12    O1      18.094805   20.160818   22.126044 O.3        1 MOL1        -0.5515
      13    H8      17.385269   20.039779   22.792426 H          1 MOL1         0.3773
@<TRIPOS>BOND
    1     1     2    1
    2     1     3    1
    3     1     4    1
    4     4     5    1
    5     4     6    1
    6     4     7    1
    7     7     8    1
    8     1     9    1
    9     7     9    1
   10     9    10    1
   11     9    11    1
   12     7    12    1
   13    12    13    1
@<TRIPOS>SUBSTRUCTURE
       1 MOL1            1 RESIDUE      1      MOL     
@<SCITEGIC>MOL_PROPERTY
VConf Rank
SciTegic.value.IntegerValue
638

@<SCITEGIC>MOL_PROPERTY
Conf_Id
SciTegic.value.IntegerValue
20

@<SCITEGIC>MOL_PROPERTY
Delta U+W
SciTegic.value.DoubleValue
1.030

@<SCITEGIC>MOL_PROPERTY
U+W
SciTegic.value.DoubleValue
-2.101

@<SCITEGIC>MOL_PROPERTY
Grad RMS
SciTegic.value.DoubleValue
0.000000

@<SCITEGIC>MOL_PROPERTY
U
SciTegic.value.DoubleValue
0.841

@<SCITEGIC>MOL_PROPERTY
W
SciTegic.value.DoubleValue
-2.942

@<SCITEGIC>MOL_PROPERTY
W(PB)
SciTegic.value.DoubleValue
-4.530

@<SCITEGIC>MOL_PROPERTY
W(SA)
SciTegic.value.DoubleValue
1.587

@<SCITEGIC>MOL_PROPERTY
Valence
SciTegic.value.DoubleValue
6.736

@<SCITEGIC>MOL_PROPERTY
Coulomb
SciTegic.value.DoubleValue
-7.246

@<SCITEGIC>MOL_PROPERTY
VdW
SciTegic.value.DoubleValue
1.352

@<SCITEGIC>MOL_PROPERTY
VdW6
SciTegic.value.DoubleValue
-2.500

@<SCITEGIC>MOL_PROPERTY
VdW12
SciTegic.value.DoubleValue
3.851

@<SCITEGIC>MOL_PROPERTY
Bond
SciTegic.value.DoubleValue
0.063

@<SCITEGIC>MOL_PROPERTY
Angle
SciTegic.value.DoubleValue
0.687

@<SCITEGIC>MOL_PROPERTY
Pdih
SciTegic.value.DoubleValue
5.986

@<SCITEGIC>MOL_PROPERTY
Idih
SciTegic.value.DoubleValue
0.000

@<SCITEGIC>MOL_PROPERTY
Tether
SciTegic.value.DoubleValue
0.000

@<TRIPOS>MOLECULE
guest-s16_confgen4.mol2 : confsearch ligand conformer 639
          13          13           1
SMALL
USER_CHARGES
 
@<TRIPOS>ATOM
       1    C1      20.902239   19.134066   21.687645 C.3        1 MOL1        -0.1693
       2    H1      21.209552   20.163359   21.460082 H          1 MOL1         0.0829
       3    H2      21.710615   18.454246   21.393039 H          1 MOL1         0.0829
       4    C2      19.468879   18.754145   21.189150 C.3        1 MOL1        -0.1768
       5    H3      19.135487   19.239118   20.265060 H          1 MOL1         0.0829
       6    H4      19.283783   17.675982   21.107353 H          1 MOL1         0.0829
       7    C3      18.968875   19.405678   22.513785 C.3        1 MOL1         0.1211
       8    H5      18.867042   20.498147   22.460545 H          1 MOL1         0.0786
       9    C4      20.320565   18.927883   23.125178 C.3        1 MOL1        -0.1768
      10    H6      20.325831   17.888552   23.476108 H          1 MOL1         0.0829
      11    H7      20.739338   19.566293   23.910897 H          1 MOL1         0.0829
      12    O1      17.814123   18.827013   23.073706 O.3        1 MOL1        -0.5515
      13    H8      17.962274   17.858356   23.095486 H          1 MOL1         0.3773
@<TRIPOS>BOND
    1     1     2    1
    2     1     3    1
    3     1     4    1
    4     4     5    1
    5     4     6    1
    6     4     7    1
    7     7     8    1
    8     1     9    1
    9     7     9    1
   10     9    10    1
   11     9    11    1
   12     7    12    1
   13    12    13    1
@<TRIPOS>SUBSTRUCTURE
       1 MOL1            1 RESIDUE      1      MOL     
@<SCITEGIC>MOL_PROPERTY
VConf Rank
SciTegic.value.IntegerValue
639

@<SCITEGIC>MOL_PROPERTY
Conf_Id
SciTegic.value.IntegerValue
24

@<SCITEGIC>MOL_PROPERTY
Delta U+W
SciTegic.value.DoubleValue
0.356

@<SCITEGIC>MOL_PROPERTY
U+W
SciTegic.value.DoubleValue
-2.775

@<SCITEGIC>MOL_PROPERTY
Grad RMS
SciTegic.value.DoubleValue
0.000000

@<SCITEGIC>MOL_PROPERTY
U
SciTegic.value.DoubleValue
-0.184

@<SCITEGIC>MOL_PROPERTY
W
SciTegic.value.DoubleValue
-2.591

@<SCITEGIC>MOL_PROPERTY
W(PB)
SciTegic.value.DoubleValue
-4.184

@<SCITEGIC>MOL_PROPERTY
W(SA)
SciTegic.value.DoubleValue
1.593

@<SCITEGIC>MOL_PROPERTY
Valence
SciTegic.value.DoubleValue
6.840

@<SCITEGIC>MOL_PROPERTY
Coulomb
SciTegic.value.DoubleValue
-7.916

@<SCITEGIC>MOL_PROPERTY
VdW
SciTegic.value.DoubleValue
0.893

@<SCITEGIC>MOL_PROPERTY
VdW6
SciTegic.value.DoubleValue
-2.167

@<SCITEGIC>MOL_PROPERTY
VdW12
SciTegic.value.DoubleValue
3.060

@<SCITEGIC>MOL_PROPERTY
Bond
SciTegic.value.DoubleValue
0.059

@<SCITEGIC>MOL_PROPERTY
Angle
SciTegic.value.DoubleValue
0.918

@<SCITEGIC>MOL_PROPERTY
Pdih
SciTegic.value.DoubleValue
5.862

@<SCITEGIC>MOL_PROPERTY
Idih
SciTegic.value.DoubleValue
0.000

@<SCITEGIC>MOL_PROPERTY
Tether
SciTegic.value.DoubleValue
0.000

@<TRIPOS>MOLECULE
guest-s16_confgen4.mol2 : confsearch ligand conformer 640
          13          13           1
SMALL
USER_CHARGES
 
@<TRIPOS>ATOM
       1    C1      18.673454   18.554224   21.979639 C.3        1 MOL1        -0.1693
       2    H1      17.880958   18.456496   21.228126 H          1 MOL1         0.0829
       3    H2      18.352186   18.035131   22.891574 H          1 MOL1         0.0829
       4    C2      19.227300   20.000691   22.205750 C.3        1 MOL1        -0.1768
       5    H3      19.193576   20.643057   21.317356 H          1 MOL1         0.0829
       6    H4      18.803477   20.553691   23.051488 H          1 MOL1         0.0829
       7    C3      20.614483   19.331666   22.454994 C.3        1 MOL1         0.1211
       8    H5      21.475101   19.904565   22.086742 H          1 MOL1         0.0786
       9    C4      20.120674   18.203330   21.497390 C.3        1 MOL1        -0.1768
      10    H6      20.305990   18.405010   20.435318 H          1 MOL1         0.0829
      11    H7      20.474454   17.191881   21.726560 H          1 MOL1         0.0829
      12    O1      20.842450   18.920541   23.785684 O.3        1 MOL1        -0.5515
      13    H8      20.047756   18.417689   24.059388 H          1 MOL1         0.3773
@<TRIPOS>BOND
    1     1     2    1
    2     1     3    1
    3     1     4    1
    4     4     5    1
    5     4     6    1
    6     4     7    1
    7     7     8    1
    8     1     9    1
    9     7     9    1
   10     9    10    1
   11     9    11    1
   12     7    12    1
   13    12    13    1
@<TRIPOS>SUBSTRUCTURE
       1 MOL1            1 RESIDUE      1      MOL     
@<SCITEGIC>MOL_PROPERTY
VConf Rank
SciTegic.value.IntegerValue
640

@<SCITEGIC>MOL_PROPERTY
Conf_Id
SciTegic.value.IntegerValue
44

@<SCITEGIC>MOL_PROPERTY
Delta U+W
SciTegic.value.DoubleValue
0.823

@<SCITEGIC>MOL_PROPERTY
U+W
SciTegic.value.DoubleValue
-2.308

@<SCITEGIC>MOL_PROPERTY
Grad RMS
SciTegic.value.DoubleValue
0.000000

@<SCITEGIC>MOL_PROPERTY
U
SciTegic.value.DoubleValue
0.039

@<SCITEGIC>MOL_PROPERTY
W
SciTegic.value.DoubleValue
-2.348

@<SCITEGIC>MOL_PROPERTY
W(PB)
SciTegic.value.DoubleValue
-3.918

@<SCITEGIC>MOL_PROPERTY
W(SA)
SciTegic.value.DoubleValue
1.571

@<SCITEGIC>MOL_PROPERTY
Valence
SciTegic.value.DoubleValue
7.320

@<SCITEGIC>MOL_PROPERTY
Coulomb
SciTegic.value.DoubleValue
-8.530

@<SCITEGIC>MOL_PROPERTY
VdW
SciTegic.value.DoubleValue
1.249

@<SCITEGIC>MOL_PROPERTY
VdW6
SciTegic.value.DoubleValue
-2.615

@<SCITEGIC>MOL_PROPERTY
VdW12
SciTegic.value.DoubleValue
3.864

@<SCITEGIC>MOL_PROPERTY
Bond
SciTegic.value.DoubleValue
0.056

@<SCITEGIC>MOL_PROPERTY
Angle
SciTegic.value.DoubleValue
0.694

@<SCITEGIC>MOL_PROPERTY
Pdih
SciTegic.value.DoubleValue
6.570

@<SCITEGIC>MOL_PROPERTY
Idih
SciTegic.value.DoubleValue
0.000

@<SCITEGIC>MOL_PROPERTY
Tether
SciTegic.value.DoubleValue
0.000

@<TRIPOS>MOLECULE
guest-s16_confgen4.mol2 : confsearch ligand conformer 641
          13          13           1
SMALL
USER_CHARGES
 
@<TRIPOS>ATOM
       1    C1      20.884450   19.140099   22.748324 C.3        1 MOL1        -0.1693
       2    H1      20.909875   19.581619   23.753311 H          1 MOL1         0.0829
       3    H2      21.904407   18.853643   22.465536 H          1 MOL1         0.0829
       4    C2      20.085132   19.969015   21.689411 C.3        1 MOL1        -0.1768
       5    H3      20.105038   21.057400   21.811819 H          1 MOL1         0.0829
       6    H4      20.317919   19.727015   20.644982 H          1 MOL1         0.0829
       7    C3      18.824909   19.246574   22.254004 C.3        1 MOL1         0.1211
       8    H5      18.414118   19.715056   23.158900 H          1 MOL1         0.0786
       9    C4      19.781872   18.050048   22.539906 C.3        1 MOL1        -0.1768
      10    H6      19.535498   17.439729   23.415681 H          1 MOL1         0.0829
      11    H7      19.950255   17.386166   21.682759 H          1 MOL1         0.0829
      12    O1      17.805512   18.992187   21.315567 O.3        1 MOL1        -0.5515
      13    H8      17.153742   18.399356   21.747943 H          1 MOL1         0.3773
@<TRIPOS>BOND
    1     1     2    1
    2     1     3    1
    3     1     4    1
    4     4     5    1
    5     4     6    1
    6     4     7    1
    7     7     8    1
    8     1     9    1
    9     7     9    1
   10     9    10    1
   11     9    11    1
   12     7    12    1
   13    12    13    1
@<TRIPOS>SUBSTRUCTURE
       1 MOL1            1 RESIDUE      1      MOL     
@<SCITEGIC>MOL_PROPERTY
VConf Rank
SciTegic.value.IntegerValue
641

@<SCITEGIC>MOL_PROPERTY
Conf_Id
SciTegic.value.IntegerValue
22

@<SCITEGIC>MOL_PROPERTY
Delta U+W
SciTegic.value.DoubleValue
0.000

@<SCITEGIC>MOL_PROPERTY
U+W
SciTegic.value.DoubleValue
-3.131

@<SCITEGIC>MOL_PROPERTY
Grad RMS
SciTegic.value.DoubleValue
0.000000

@<SCITEGIC>MOL_PROPERTY
U
SciTegic.value.DoubleValue
-0.154

@<SCITEGIC>MOL_PROPERTY
W
SciTegic.value.DoubleValue
-2.978

@<SCITEGIC>MOL_PROPERTY
W(PB)
SciTegic.value.DoubleValue
-4.579

@<SCITEGIC>MOL_PROPERTY
W(SA)
SciTegic.value.DoubleValue
1.601

@<SCITEGIC>MOL_PROPERTY
Valence
SciTegic.value.DoubleValue
6.333

@<SCITEGIC>MOL_PROPERTY
Coulomb
SciTegic.value.DoubleValue
-7.439

@<SCITEGIC>MOL_PROPERTY
VdW
SciTegic.value.DoubleValue
0.952

@<SCITEGIC>MOL_PROPERTY
VdW6
SciTegic.value.DoubleValue
-2.120

@<SCITEGIC>MOL_PROPERTY
VdW12
SciTegic.value.DoubleValue
3.072

@<SCITEGIC>MOL_PROPERTY
Bond
SciTegic.value.DoubleValue
0.065

@<SCITEGIC>MOL_PROPERTY
Angle
SciTegic.value.DoubleValue
0.931

@<SCITEGIC>MOL_PROPERTY
Pdih
SciTegic.value.DoubleValue
5.338

@<SCITEGIC>MOL_PROPERTY
Idih
SciTegic.value.DoubleValue
0.000

@<SCITEGIC>MOL_PROPERTY
Tether
SciTegic.value.DoubleValue
0.000

@<TRIPOS>MOLECULE
guest-s16_confgen4.mol2 : confsearch ligand conformer 642
          13          13           1
SMALL
USER_CHARGES
 
@<TRIPOS>ATOM
       1    C1      20.302894   19.864996   22.882694 C.3        1 MOL1        -0.1693
       2    H1      19.830793   20.854759   22.827233 H          1 MOL1         0.0829
       3    H2      21.251289   19.959028   23.424951 H          1 MOL1         0.0829
       4    C2      20.361789   19.090779   21.524589 C.3        1 MOL1        -0.1768
       5    H3      21.098121   18.278033   21.492155 H          1 MOL1         0.0829
       6    H4      20.474026   19.704532   20.624098 H          1 MOL1         0.0829
       7    C3      18.909477   18.635713   21.860596 C.3        1 MOL1         0.1211
       8    H5      18.138287   19.369932   21.589948 H          1 MOL1         0.0786
       9    C4      19.354417   18.712931   23.352209 C.3        1 MOL1        -0.1768
      10    H6      19.867773   17.815960   23.720303 H          1 MOL1         0.0829
      11    H7      18.573529   18.990917   24.068378 H          1 MOL1         0.0829
      12    O1      18.559318   17.350434   21.402341 O.3        1 MOL1        -0.5515
      13    H8      18.460386   17.406367   20.427514 H          1 MOL1         0.3773
@<TRIPOS>BOND
    1     1     2    1
    2     1     3    1
    3     1     4    1
    4     4     5    1
    5     4     6    1
    6     4     7    1
    7     7     8    1
    8     1     9    1
    9     7     9    1
   10     9    10    1
   11     9    11    1
   12     7    12    1
   13    12    13    1
@<TRIPOS>SUBSTRUCTURE
       1 MOL1            1 RESIDUE      1      MOL     
@<SCITEGIC>MOL_PROPERTY
VConf Rank
SciTegic.value.IntegerValue
642

@<SCITEGIC>MOL_PROPERTY
Conf_Id
SciTegic.value.IntegerValue
19

@<SCITEGIC>MOL_PROPERTY
Delta U+W
SciTegic.value.DoubleValue
-0.011

@<SCITEGIC>MOL_PROPERTY
U+W
SciTegic.value.DoubleValue
-3.142

@<SCITEGIC>MOL_PROPERTY
Grad RMS
SciTegic.value.DoubleValue
0.000000

@<SCITEGIC>MOL_PROPERTY
U
SciTegic.value.DoubleValue
-0.154

@<SCITEGIC>MOL_PROPERTY
W
SciTegic.value.DoubleValue
-2.989

@<SCITEGIC>MOL_PROPERTY
W(PB)
SciTegic.value.DoubleValue
-4.588

@<SCITEGIC>MOL_PROPERTY
W(SA)
SciTegic.value.DoubleValue
1.599

@<SCITEGIC>MOL_PROPERTY
Valence
SciTegic.value.DoubleValue
6.334

@<SCITEGIC>MOL_PROPERTY
Coulomb
SciTegic.value.DoubleValue
-7.439

@<SCITEGIC>MOL_PROPERTY
VdW
SciTegic.value.DoubleValue
0.951

@<SCITEGIC>MOL_PROPERTY
VdW6
SciTegic.value.DoubleValue
-2.120

@<SCITEGIC>MOL_PROPERTY
VdW12
SciTegic.value.DoubleValue
3.072

@<SCITEGIC>MOL_PROPERTY
Bond
SciTegic.value.DoubleValue
0.065

@<SCITEGIC>MOL_PROPERTY
Angle
SciTegic.value.DoubleValue
0.930

@<SCITEGIC>MOL_PROPERTY
Pdih
SciTegic.value.DoubleValue
5.339

@<SCITEGIC>MOL_PROPERTY
Idih
SciTegic.value.DoubleValue
0.000

@<SCITEGIC>MOL_PROPERTY
Tether
SciTegic.value.DoubleValue
0.000

@<TRIPOS>MOLECULE
guest-s16_confgen4.mol2 : confsearch ligand conformer 643
          13          13           1
SMALL
USER_CHARGES
 
@<TRIPOS>ATOM
       1    C1      18.961947   18.497000   21.409702 C.3        1 MOL1        -0.1693
       2    H1      18.977924   18.058155   20.405144 H          1 MOL1         0.0829
       3    H2      17.969163   18.333065   21.848691 H          1 MOL1         0.0829
       4    C2      19.490034   19.965362   21.528055 C.3        1 MOL1        -0.1768
       5    H3      20.273137   20.226837   20.806151 H          1 MOL1         0.0829
       6    H4      18.728315   20.752828   21.519407 H          1 MOL1         0.0829
       7    C3      20.027855   19.557768   22.935195 C.3        1 MOL1         0.1211
       8    H5      20.979621   20.027795   23.214530 H          1 MOL1         0.0786
       9    C4      20.157547   18.118439   22.345615 C.3        1 MOL1        -0.1768
      10    H6      19.977569   17.295061   23.045621 H          1 MOL1         0.0829
      11    H7      21.102714   17.931596   21.821474 H          1 MOL1         0.0829
      12    O1      19.095430   19.689587   23.989403 O.3        1 MOL1        -0.5515
      13    H8      19.480430   19.246203   24.775113 H          1 MOL1         0.3773
@<TRIPOS>BOND
    1     1     2    1
    2     1     3    1
    3     1     4    1
    4     4     5    1
    5     4     6    1
    6     4     7    1
    7     7     8    1
    8     1     9    1
    9     7     9    1
   10     9    10    1
   11     9    11    1
   12     7    12    1
   13    12    13    1
@<TRIPOS>SUBSTRUCTURE
       1 MOL1            1 RESIDUE      1      MOL     
@<SCITEGIC>MOL_PROPERTY
VConf Rank
SciTegic.value.IntegerValue
643

@<SCITEGIC>MOL_PROPERTY
Conf_Id
SciTegic.value.IntegerValue
20

@<SCITEGIC>MOL_PROPERTY
Delta U+W
SciTegic.value.DoubleValue
1.030

@<SCITEGIC>MOL_PROPERTY
U+W
SciTegic.value.DoubleValue
-2.101

@<SCITEGIC>MOL_PROPERTY
Grad RMS
SciTegic.value.DoubleValue
0.000000

@<SCITEGIC>MOL_PROPERTY
U
SciTegic.value.DoubleValue
0.841

@<SCITEGIC>MOL_PROPERTY
W
SciTegic.value.DoubleValue
-2.942

@<SCITEGIC>MOL_PROPERTY
W(PB)
SciTegic.value.DoubleValue
-4.530

@<SCITEGIC>MOL_PROPERTY
W(SA)
SciTegic.value.DoubleValue
1.587

@<SCITEGIC>MOL_PROPERTY
Valence
SciTegic.value.DoubleValue
6.736

@<SCITEGIC>MOL_PROPERTY
Coulomb
SciTegic.value.DoubleValue
-7.246

@<SCITEGIC>MOL_PROPERTY
VdW
SciTegic.value.DoubleValue
1.352

@<SCITEGIC>MOL_PROPERTY
VdW6
SciTegic.value.DoubleValue
-2.500

@<SCITEGIC>MOL_PROPERTY
VdW12
SciTegic.value.DoubleValue
3.851

@<SCITEGIC>MOL_PROPERTY
Bond
SciTegic.value.DoubleValue
0.063

@<SCITEGIC>MOL_PROPERTY
Angle
SciTegic.value.DoubleValue
0.687

@<SCITEGIC>MOL_PROPERTY
Pdih
SciTegic.value.DoubleValue
5.986

@<SCITEGIC>MOL_PROPERTY
Idih
SciTegic.value.DoubleValue
0.000

@<SCITEGIC>MOL_PROPERTY
Tether
SciTegic.value.DoubleValue
0.000

@<TRIPOS>MOLECULE
guest-s16_confgen4.mol2 : confsearch ligand conformer 644
          13          13           1
SMALL
USER_CHARGES
 
@<TRIPOS>ATOM
       1    C1      20.550763   18.325913   21.435720 C.3        1 MOL1        -0.1693
       2    H1      21.622273   18.553885   21.510305 H          1 MOL1         0.0829
       3    H2      20.408448   17.562519   20.661513 H          1 MOL1         0.0829
       4    C2      19.620179   19.580052   21.343484 C.3        1 MOL1        -0.1768
       5    H3      20.036835   20.452781   20.828669 H          1 MOL1         0.0829
       6    H4      18.619608   19.378714   20.941353 H          1 MOL1         0.0829
       7    C3      19.707341   19.606725   22.899391 C.3        1 MOL1         0.1211
       8    H5      20.605342   20.108039   23.285359 H          1 MOL1         0.0786
       9    C4      19.842535   18.056931   22.804450 C.3        1 MOL1        -0.1768
      10    H6      18.891664   17.515157   22.728862 H          1 MOL1         0.0829
      11    H7      20.455564   17.584513   23.579891 H          1 MOL1         0.0829
      12    O1      18.555969   20.073590   23.561356 O.3        1 MOL1        -0.5515
      13    H8      17.792081   19.594019   23.177681 H          1 MOL1         0.3773
@<TRIPOS>BOND
    1     1     2    1
    2     1     3    1
    3     1     4    1
    4     4     5    1
    5     4     6    1
    6     4     7    1
    7     7     8    1
    8     1     9    1
    9     7     9    1
   10     9    10    1
   11     9    11    1
   12     7    12    1
   13    12    13    1
@<TRIPOS>SUBSTRUCTURE
       1 MOL1            1 RESIDUE      1      MOL     
@<SCITEGIC>MOL_PROPERTY
VConf Rank
SciTegic.value.IntegerValue
644

@<SCITEGIC>MOL_PROPERTY
Conf_Id
SciTegic.value.IntegerValue
24

@<SCITEGIC>MOL_PROPERTY
Delta U+W
SciTegic.value.DoubleValue
0.356

@<SCITEGIC>MOL_PROPERTY
U+W
SciTegic.value.DoubleValue
-2.775

@<SCITEGIC>MOL_PROPERTY
Grad RMS
SciTegic.value.DoubleValue
0.000000

@<SCITEGIC>MOL_PROPERTY
U
SciTegic.value.DoubleValue
-0.184

@<SCITEGIC>MOL_PROPERTY
W
SciTegic.value.DoubleValue
-2.591

@<SCITEGIC>MOL_PROPERTY
W(PB)
SciTegic.value.DoubleValue
-4.184

@<SCITEGIC>MOL_PROPERTY
W(SA)
SciTegic.value.DoubleValue
1.593

@<SCITEGIC>MOL_PROPERTY
Valence
SciTegic.value.DoubleValue
6.840

@<SCITEGIC>MOL_PROPERTY
Coulomb
SciTegic.value.DoubleValue
-7.916

@<SCITEGIC>MOL_PROPERTY
VdW
SciTegic.value.DoubleValue
0.893

@<SCITEGIC>MOL_PROPERTY
VdW6
SciTegic.value.DoubleValue
-2.167

@<SCITEGIC>MOL_PROPERTY
VdW12
SciTegic.value.DoubleValue
3.060

@<SCITEGIC>MOL_PROPERTY
Bond
SciTegic.value.DoubleValue
0.059

@<SCITEGIC>MOL_PROPERTY
Angle
SciTegic.value.DoubleValue
0.918

@<SCITEGIC>MOL_PROPERTY
Pdih
SciTegic.value.DoubleValue
5.862

@<SCITEGIC>MOL_PROPERTY
Idih
SciTegic.value.DoubleValue
0.000

@<SCITEGIC>MOL_PROPERTY
Tether
SciTegic.value.DoubleValue
0.000

@<TRIPOS>MOLECULE
guest-s16_confgen4.mol2 : confsearch ligand conformer 645
          13          13           1
SMALL
USER_CHARGES
 
@<TRIPOS>ATOM
       1    C1      20.787426   18.829290   21.988426 C.3        1 MOL1        -0.1693
       2    H1      21.631997   18.129988   21.995524 H          1 MOL1         0.0829
       3    H2      21.142066   19.797176   21.611963 H          1 MOL1         0.0829
       4    C2      19.949277   18.903220   23.308342 C.3        1 MOL1        -0.1768
       5    H3      19.916542   17.966293   23.877650 H          1 MOL1         0.0829
       6    H4      20.200364   19.719295   23.995136 H          1 MOL1         0.0829
       7    C3      18.705094   19.137730   22.396748 C.3        1 MOL1         0.1211
       8    H5      17.775989   18.678915   22.758329 H          1 MOL1         0.0786
       9    C4      19.471315   18.305809   21.322128 C.3        1 MOL1        -0.1768
      10    H6      19.321391   17.222406   21.404446 H          1 MOL1         0.0829
      11    H7      19.306377   18.601888   20.280092 H          1 MOL1         0.0829
      12    O1      18.473378   20.485266   22.047202 O.3        1 MOL1        -0.5515
      13    H8      19.330641   20.840696   21.734021 H          1 MOL1         0.3773
@<TRIPOS>BOND
    1     1     2    1
    2     1     3    1
    3     1     4    1
    4     4     5    1
    5     4     6    1
    6     4     7    1
    7     7     8    1
    8     1     9    1
    9     7     9    1
   10     9    10    1
   11     9    11    1
   12     7    12    1
   13    12    13    1
@<TRIPOS>SUBSTRUCTURE
       1 MOL1            1 RESIDUE      1      MOL     
@<SCITEGIC>MOL_PROPERTY
VConf Rank
SciTegic.value.IntegerValue
645

@<SCITEGIC>MOL_PROPERTY
Conf_Id
SciTegic.value.IntegerValue
44

@<SCITEGIC>MOL_PROPERTY
Delta U+W
SciTegic.value.DoubleValue
0.823

@<SCITEGIC>MOL_PROPERTY
U+W
SciTegic.value.DoubleValue
-2.308

@<SCITEGIC>MOL_PROPERTY
Grad RMS
SciTegic.value.DoubleValue
0.000000

@<SCITEGIC>MOL_PROPERTY
U
SciTegic.value.DoubleValue
0.039

@<SCITEGIC>MOL_PROPERTY
W
SciTegic.value.DoubleValue
-2.348

@<SCITEGIC>MOL_PROPERTY
W(PB)
SciTegic.value.DoubleValue
-3.918

@<SCITEGIC>MOL_PROPERTY
W(SA)
SciTegic.value.DoubleValue
1.571

@<SCITEGIC>MOL_PROPERTY
Valence
SciTegic.value.DoubleValue
7.320

@<SCITEGIC>MOL_PROPERTY
Coulomb
SciTegic.value.DoubleValue
-8.530

@<SCITEGIC>MOL_PROPERTY
VdW
SciTegic.value.DoubleValue
1.249

@<SCITEGIC>MOL_PROPERTY
VdW6
SciTegic.value.DoubleValue
-2.615

@<SCITEGIC>MOL_PROPERTY
VdW12
SciTegic.value.DoubleValue
3.864

@<SCITEGIC>MOL_PROPERTY
Bond
SciTegic.value.DoubleValue
0.056

@<SCITEGIC>MOL_PROPERTY
Angle
SciTegic.value.DoubleValue
0.694

@<SCITEGIC>MOL_PROPERTY
Pdih
SciTegic.value.DoubleValue
6.570

@<SCITEGIC>MOL_PROPERTY
Idih
SciTegic.value.DoubleValue
0.000

@<SCITEGIC>MOL_PROPERTY
Tether
SciTegic.value.DoubleValue
0.000

@<TRIPOS>MOLECULE
guest-s16_confgen4.mol2 : confsearch ligand conformer 646
          13          13           1
SMALL
USER_CHARGES
 
@<TRIPOS>ATOM
       1    C1      19.537613   19.927832   21.278030 C.3        1 MOL1        -0.1693
       2    H1      20.453061   20.502991   21.086377 H          1 MOL1         0.0829
       3    H2      18.774721   20.230914   20.551066 H          1 MOL1         0.0829
       4    C2      19.085762   19.896693   22.775417 C.3        1 MOL1        -0.1768
       5    H3      19.306396   20.792554   23.365938 H          1 MOL1         0.0829
       6    H4      18.036042   19.619635   22.933256 H          1 MOL1         0.0829
       7    C3      20.094433   18.718603   22.928823 C.3        1 MOL1         0.1211
       8    H5      21.132339   19.042098   23.087453 H          1 MOL1         0.0786
       9    C4      19.754967   18.387539   21.444116 C.3        1 MOL1        -0.1768
      10    H6      20.567395   17.948827   20.854486 H          1 MOL1         0.0829
      11    H7      18.851559   17.780069   21.307632 H          1 MOL1         0.0829
      12    O1      19.729502   17.731352   23.865149 O.3        1 MOL1        -0.5515
      13    H8      20.348937   16.978800   23.750400 H          1 MOL1         0.3773
@<TRIPOS>BOND
    1     1     2    1
    2     1     3    1
    3     1     4    1
    4     4     5    1
    5     4     6    1
    6     4     7    1
    7     7     8    1
    8     1     9    1
    9     7     9    1
   10     9    10    1
   11     9    11    1
   12     7    12    1
   13    12    13    1
@<TRIPOS>SUBSTRUCTURE
       1 MOL1            1 RESIDUE      1      MOL     
@<SCITEGIC>MOL_PROPERTY
VConf Rank
SciTegic.value.IntegerValue
646

@<SCITEGIC>MOL_PROPERTY
Conf_Id
SciTegic.value.IntegerValue
22

@<SCITEGIC>MOL_PROPERTY
Delta U+W
SciTegic.value.DoubleValue
0.000

@<SCITEGIC>MOL_PROPERTY
U+W
SciTegic.value.DoubleValue
-3.131

@<SCITEGIC>MOL_PROPERTY
Grad RMS
SciTegic.value.DoubleValue
0.000000

@<SCITEGIC>MOL_PROPERTY
U
SciTegic.value.DoubleValue
-0.154

@<SCITEGIC>MOL_PROPERTY
W
SciTegic.value.DoubleValue
-2.978

@<SCITEGIC>MOL_PROPERTY
W(PB)
SciTegic.value.DoubleValue
-4.579

@<SCITEGIC>MOL_PROPERTY
W(SA)
SciTegic.value.DoubleValue
1.601

@<SCITEGIC>MOL_PROPERTY
Valence
SciTegic.value.DoubleValue
6.333

@<SCITEGIC>MOL_PROPERTY
Coulomb
SciTegic.value.DoubleValue
-7.439

@<SCITEGIC>MOL_PROPERTY
VdW
SciTegic.value.DoubleValue
0.952

@<SCITEGIC>MOL_PROPERTY
VdW6
SciTegic.value.DoubleValue
-2.120

@<SCITEGIC>MOL_PROPERTY
VdW12
SciTegic.value.DoubleValue
3.072

@<SCITEGIC>MOL_PROPERTY
Bond
SciTegic.value.DoubleValue
0.065

@<SCITEGIC>MOL_PROPERTY
Angle
SciTegic.value.DoubleValue
0.931

@<SCITEGIC>MOL_PROPERTY
Pdih
SciTegic.value.DoubleValue
5.338

@<SCITEGIC>MOL_PROPERTY
Idih
SciTegic.value.DoubleValue
0.000

@<SCITEGIC>MOL_PROPERTY
Tether
SciTegic.value.DoubleValue
0.000

@<TRIPOS>MOLECULE
guest-s16_confgen4.mol2 : confsearch ligand conformer 647
          13          13           1
SMALL
USER_CHARGES
 
@<TRIPOS>ATOM
       1    C1      18.446594   18.694702   22.783451 C.3        1 MOL1        -0.1693
       2    H1      17.608578   18.997424   22.141833 H          1 MOL1         0.0829
       3    H2      18.044223   18.323917   23.733690 H          1 MOL1         0.0829
       4    C2      19.602225   19.743816   22.889318 C.3        1 MOL1        -0.1768
       5    H3      20.264736   19.609932   23.753579 H          1 MOL1         0.0829
       6    H4      19.304456   20.796586   22.832910 H          1 MOL1         0.0829
       7    C3      20.130614   19.114763   21.564821 C.3        1 MOL1         0.1211
       8    H5      19.644929   19.506256   20.660440 H          1 MOL1         0.0786
       9    C4      19.509437   17.783550   22.085260 C.3        1 MOL1        -0.1768
      10    H6      20.153262   17.219370   22.771390 H          1 MOL1         0.0829
      11    H7      19.131322   17.101612   21.315877 H          1 MOL1         0.0829
      12    O1      21.531608   19.108464   21.417431 O.3        1 MOL1        -0.5515
      13    H8      21.810114   20.033988   21.247010 H          1 MOL1         0.3773
@<TRIPOS>BOND
    1     1     2    1
    2     1     3    1
    3     1     4    1
    4     4     5    1
    5     4     6    1
    6     4     7    1
    7     7     8    1
    8     1     9    1
    9     7     9    1
   10     9    10    1
   11     9    11    1
   12     7    12    1
   13    12    13    1
@<TRIPOS>SUBSTRUCTURE
       1 MOL1            1 RESIDUE      1      MOL     
@<SCITEGIC>MOL_PROPERTY
VConf Rank
SciTegic.value.IntegerValue
647

@<SCITEGIC>MOL_PROPERTY
Conf_Id
SciTegic.value.IntegerValue
19

@<SCITEGIC>MOL_PROPERTY
Delta U+W
SciTegic.value.DoubleValue
-0.011

@<SCITEGIC>MOL_PROPERTY
U+W
SciTegic.value.DoubleValue
-3.142

@<SCITEGIC>MOL_PROPERTY
Grad RMS
SciTegic.value.DoubleValue
0.000000

@<SCITEGIC>MOL_PROPERTY
U
SciTegic.value.DoubleValue
-0.154

@<SCITEGIC>MOL_PROPERTY
W
SciTegic.value.DoubleValue
-2.989

@<SCITEGIC>MOL_PROPERTY
W(PB)
SciTegic.value.DoubleValue
-4.588

@<SCITEGIC>MOL_PROPERTY
W(SA)
SciTegic.value.DoubleValue
1.599

@<SCITEGIC>MOL_PROPERTY
Valence
SciTegic.value.DoubleValue
6.334

@<SCITEGIC>MOL_PROPERTY
Coulomb
SciTegic.value.DoubleValue
-7.439

@<SCITEGIC>MOL_PROPERTY
VdW
SciTegic.value.DoubleValue
0.951

@<SCITEGIC>MOL_PROPERTY
VdW6
SciTegic.value.DoubleValue
-2.120

@<SCITEGIC>MOL_PROPERTY
VdW12
SciTegic.value.DoubleValue
3.072

@<SCITEGIC>MOL_PROPERTY
Bond
SciTegic.value.DoubleValue
0.065

@<SCITEGIC>MOL_PROPERTY
Angle
SciTegic.value.DoubleValue
0.930

@<SCITEGIC>MOL_PROPERTY
Pdih
SciTegic.value.DoubleValue
5.339

@<SCITEGIC>MOL_PROPERTY
Idih
SciTegic.value.DoubleValue
0.000

@<SCITEGIC>MOL_PROPERTY
Tether
SciTegic.value.DoubleValue
0.000

@<TRIPOS>MOLECULE
guest-s16_confgen4.mol2 : confsearch ligand conformer 648
          13          13           1
SMALL
USER_CHARGES
 
@<TRIPOS>ATOM
       1    C1      19.892994   18.483106   21.220141 C.3        1 MOL1        -0.1693
       2    H1      20.342826   18.592730   20.226355 H          1 MOL1         0.0829
       3    H2      19.602020   17.433830   21.360005 H          1 MOL1         0.0829
       4    C2      18.781414   19.520338   21.590967 C.3        1 MOL1        -0.1768
       5    H3      18.908421   20.507559   21.130502 H          1 MOL1         0.0829
       6    H4      17.747194   19.192676   21.437930 H          1 MOL1         0.0829
       7    C3      19.313395   19.424429   23.054942 C.3        1 MOL1         0.1211
       8    H5      19.277191   20.366495   23.617093 H          1 MOL1         0.0786
       9    C4      20.698033   19.099278   22.412175 C.3        1 MOL1        -0.1768
      10    H6      21.335455   18.405213   22.971030 H          1 MOL1         0.0829
      11    H7      21.290321   19.984513   22.150396 H          1 MOL1         0.0829
      12    O1      18.752127   18.379971   23.824507 O.3        1 MOL1        -0.5515
      13    H8      19.280296   18.309559   24.648057 H          1 MOL1         0.3773
@<TRIPOS>BOND
    1     1     2    1
    2     1     3    1
    3     1     4    1
    4     4     5    1
    5     4     6    1
    6     4     7    1
    7     7     8    1
    8     1     9    1
    9     7     9    1
   10     9    10    1
   11     9    11    1
   12     7    12    1
   13    12    13    1
@<TRIPOS>SUBSTRUCTURE
       1 MOL1            1 RESIDUE      1      MOL     
@<SCITEGIC>MOL_PROPERTY
VConf Rank
SciTegic.value.IntegerValue
648

@<SCITEGIC>MOL_PROPERTY
Conf_Id
SciTegic.value.IntegerValue
20

@<SCITEGIC>MOL_PROPERTY
Delta U+W
SciTegic.value.DoubleValue
1.030

@<SCITEGIC>MOL_PROPERTY
U+W
SciTegic.value.DoubleValue
-2.101

@<SCITEGIC>MOL_PROPERTY
Grad RMS
SciTegic.value.DoubleValue
0.000000

@<SCITEGIC>MOL_PROPERTY
U
SciTegic.value.DoubleValue
0.841

@<SCITEGIC>MOL_PROPERTY
W
SciTegic.value.DoubleValue
-2.942

@<SCITEGIC>MOL_PROPERTY
W(PB)
SciTegic.value.DoubleValue
-4.530

@<SCITEGIC>MOL_PROPERTY
W(SA)
SciTegic.value.DoubleValue
1.587

@<SCITEGIC>MOL_PROPERTY
Valence
SciTegic.value.DoubleValue
6.736

@<SCITEGIC>MOL_PROPERTY
Coulomb
SciTegic.value.DoubleValue
-7.246

@<SCITEGIC>MOL_PROPERTY
VdW
SciTegic.value.DoubleValue
1.352

@<SCITEGIC>MOL_PROPERTY
VdW6
SciTegic.value.DoubleValue
-2.500

@<SCITEGIC>MOL_PROPERTY
VdW12
SciTegic.value.DoubleValue
3.851

@<SCITEGIC>MOL_PROPERTY
Bond
SciTegic.value.DoubleValue
0.063

@<SCITEGIC>MOL_PROPERTY
Angle
SciTegic.value.DoubleValue
0.687

@<SCITEGIC>MOL_PROPERTY
Pdih
SciTegic.value.DoubleValue
5.986

@<SCITEGIC>MOL_PROPERTY
Idih
SciTegic.value.DoubleValue
0.000

@<SCITEGIC>MOL_PROPERTY
Tether
SciTegic.value.DoubleValue
0.000

@<TRIPOS>MOLECULE
guest-s16_confgen4.mol2 : confsearch ligand conformer 649
          13          13           1
SMALL
USER_CHARGES
 
@<TRIPOS>ATOM
       1    C1      20.672393   18.484584   21.459555 C.3        1 MOL1        -0.1693
       2    H1      21.104975   17.509811   21.721012 H          1 MOL1         0.0829
       3    H2      21.166787   18.855218   20.553671 H          1 MOL1         0.0829
       4    C2      20.570605   19.495227   22.649344 C.3        1 MOL1        -0.1768
       5    H3      21.355849   19.425031   23.410105 H          1 MOL1         0.0829
       6    H4      20.463515   20.545113   22.349914 H          1 MOL1         0.0829
       7    C3      19.232692   18.771489   22.988973 C.3        1 MOL1         0.1211
       8    H5      19.361677   17.852495   23.576771 H          1 MOL1         0.0786
       9    C4      19.108546   18.526020   21.454865 C.3        1 MOL1        -0.1768
      10    H6      18.674668   19.359276   20.888454 H          1 MOL1         0.0829
      11    H7      18.602567   17.599869   21.160721 H          1 MOL1         0.0829
      12    O1      18.232046   19.584749   23.553892 O.3        1 MOL1        -0.5515
      13    H8      18.162284   20.383956   22.990758 H          1 MOL1         0.3773
@<TRIPOS>BOND
    1     1     2    1
    2     1     3    1
    3     1     4    1
    4     4     5    1
    5     4     6    1
    6     4     7    1
    7     7     8    1
    8     1     9    1
    9     7     9    1
   10     9    10    1
   11     9    11    1
   12     7    12    1
   13    12    13    1
@<TRIPOS>SUBSTRUCTURE
       1 MOL1            1 RESIDUE      1      MOL     
@<SCITEGIC>MOL_PROPERTY
VConf Rank
SciTegic.value.IntegerValue
649

@<SCITEGIC>MOL_PROPERTY
Conf_Id
SciTegic.value.IntegerValue
24

@<SCITEGIC>MOL_PROPERTY
Delta U+W
SciTegic.value.DoubleValue
0.356

@<SCITEGIC>MOL_PROPERTY
U+W
SciTegic.value.DoubleValue
-2.775

@<SCITEGIC>MOL_PROPERTY
Grad RMS
SciTegic.value.DoubleValue
0.000000

@<SCITEGIC>MOL_PROPERTY
U
SciTegic.value.DoubleValue
-0.184

@<SCITEGIC>MOL_PROPERTY
W
SciTegic.value.DoubleValue
-2.591

@<SCITEGIC>MOL_PROPERTY
W(PB)
SciTegic.value.DoubleValue
-4.184

@<SCITEGIC>MOL_PROPERTY
W(SA)
SciTegic.value.DoubleValue
1.593

@<SCITEGIC>MOL_PROPERTY
Valence
SciTegic.value.DoubleValue
6.840

@<SCITEGIC>MOL_PROPERTY
Coulomb
SciTegic.value.DoubleValue
-7.916

@<SCITEGIC>MOL_PROPERTY
VdW
SciTegic.value.DoubleValue
0.893

@<SCITEGIC>MOL_PROPERTY
VdW6
SciTegic.value.DoubleValue
-2.167

@<SCITEGIC>MOL_PROPERTY
VdW12
SciTegic.value.DoubleValue
3.060

@<SCITEGIC>MOL_PROPERTY
Bond
SciTegic.value.DoubleValue
0.059

@<SCITEGIC>MOL_PROPERTY
Angle
SciTegic.value.DoubleValue
0.918

@<SCITEGIC>MOL_PROPERTY
Pdih
SciTegic.value.DoubleValue
5.862

@<SCITEGIC>MOL_PROPERTY
Idih
SciTegic.value.DoubleValue
0.000

@<SCITEGIC>MOL_PROPERTY
Tether
SciTegic.value.DoubleValue
0.000

@<TRIPOS>MOLECULE
guest-s16_confgen4.mol2 : confsearch ligand conformer 650
          13          13           1
SMALL
USER_CHARGES
 
@<TRIPOS>ATOM
       1    C1      20.511946   18.353420   22.672670 C.3        1 MOL1        -0.1693
       2    H1      20.835142   17.791166   23.556858 H          1 MOL1         0.0829
       3    H2      21.307558   18.300860   21.918657 H          1 MOL1         0.0829
       4    C2      19.954120   19.790893   22.942188 C.3        1 MOL1        -0.1768
       5    H3      19.458707   19.910187   23.913450 H          1 MOL1         0.0829
       6    H4      20.661798   20.616758   22.808595 H          1 MOL1         0.0829
       7    C3      18.974526   19.533715   21.755492 C.3        1 MOL1         0.1211
       8    H5      17.976560   19.973570   21.878283 H          1 MOL1         0.0786
       9    C4      19.077170   18.025183   22.139927 C.3        1 MOL1        -0.1768
      10    H6      18.366742   17.711551   22.914486 H          1 MOL1         0.0829
      11    H7      19.021537   17.314148   21.308036 H          1 MOL1         0.0829
      12    O1      19.490386   19.856115   20.482042 O.3        1 MOL1        -0.5515
      13    H8      20.375665   19.440406   20.429326 H          1 MOL1         0.3773
@<TRIPOS>BOND
    1     1     2    1
    2     1     3    1
    3     1     4    1
    4     4     5    1
    5     4     6    1
    6     4     7    1
    7     7     8    1
    8     1     9    1
    9     7     9    1
   10     9    10    1
   11     9    11    1
   12     7    12    1
   13    12    13    1
@<TRIPOS>SUBSTRUCTURE
       1 MOL1            1 RESIDUE      1      MOL     
@<SCITEGIC>MOL_PROPERTY
VConf Rank
SciTegic.value.IntegerValue
650

@<SCITEGIC>MOL_PROPERTY
Conf_Id
SciTegic.value.IntegerValue
44

@<SCITEGIC>MOL_PROPERTY
Delta U+W
SciTegic.value.DoubleValue
0.823

@<SCITEGIC>MOL_PROPERTY
U+W
SciTegic.value.DoubleValue
-2.308

@<SCITEGIC>MOL_PROPERTY
Grad RMS
SciTegic.value.DoubleValue
0.000000

@<SCITEGIC>MOL_PROPERTY
U
SciTegic.value.DoubleValue
0.039

@<SCITEGIC>MOL_PROPERTY
W
SciTegic.value.DoubleValue
-2.348

@<SCITEGIC>MOL_PROPERTY
W(PB)
SciTegic.value.DoubleValue
-3.918

@<SCITEGIC>MOL_PROPERTY
W(SA)
SciTegic.value.DoubleValue
1.571

@<SCITEGIC>MOL_PROPERTY
Valence
SciTegic.value.DoubleValue
7.320

@<SCITEGIC>MOL_PROPERTY
Coulomb
SciTegic.value.DoubleValue
-8.530

@<SCITEGIC>MOL_PROPERTY
VdW
SciTegic.value.DoubleValue
1.249

@<SCITEGIC>MOL_PROPERTY
VdW6
SciTegic.value.DoubleValue
-2.615

@<SCITEGIC>MOL_PROPERTY
VdW12
SciTegic.value.DoubleValue
3.864

@<SCITEGIC>MOL_PROPERTY
Bond
SciTegic.value.DoubleValue
0.056

@<SCITEGIC>MOL_PROPERTY
Angle
SciTegic.value.DoubleValue
0.694

@<SCITEGIC>MOL_PROPERTY
Pdih
SciTegic.value.DoubleValue
6.570

@<SCITEGIC>MOL_PROPERTY
Idih
SciTegic.value.DoubleValue
0.000

@<SCITEGIC>MOL_PROPERTY
Tether
SciTegic.value.DoubleValue
0.000

@<TRIPOS>MOLECULE
guest-s16_confgen4.mol2 : confsearch ligand conformer 651
          13          13           1
SMALL
USER_CHARGES
 
@<TRIPOS>ATOM
       1    C1      18.638189   19.742661   21.809067 C.3        1 MOL1        -0.1693
       2    H1      18.540403   20.724678   22.290384 H          1 MOL1         0.0829
       3    H2      17.857969   19.647940   21.044460 H          1 MOL1         0.0829
       4    C2      18.779377   18.539736   22.799191 C.3        1 MOL1        -0.1768
       5    H3      18.250381   18.634332   23.753746 H          1 MOL1         0.0829
       6    H4      18.551930   17.558055   22.365421 H          1 MOL1         0.0829
       7    C3      20.295940   18.897694   22.826559 C.3        1 MOL1         0.1211
       8    H5      20.547763   19.705162   23.527731 H          1 MOL1         0.0786
       9    C4      20.090622   19.376609   21.357655 C.3        1 MOL1        -0.1768
      10    H6      20.720559   20.212879   21.035161 H          1 MOL1         0.0829
      11    H7      20.149535   18.579600   20.605923 H          1 MOL1         0.0829
      12    O1      21.169936   17.804648   22.987579 O.3        1 MOL1        -0.5515
      13    H8      22.080124   18.133912   22.825265 H          1 MOL1         0.3773
@<TRIPOS>BOND
    1     1     2    1
    2     1     3    1
    3     1     4    1
    4     4     5    1
    5     4     6    1
    6     4     7    1
    7     7     8    1
    8     1     9    1
    9     7     9    1
   10     9    10    1
   11     9    11    1
   12     7    12    1
   13    12    13    1
@<TRIPOS>SUBSTRUCTURE
       1 MOL1            1 RESIDUE      1      MOL     
@<SCITEGIC>MOL_PROPERTY
VConf Rank
SciTegic.value.IntegerValue
651

@<SCITEGIC>MOL_PROPERTY
Conf_Id
SciTegic.value.IntegerValue
22

@<SCITEGIC>MOL_PROPERTY
Delta U+W
SciTegic.value.DoubleValue
0.000

@<SCITEGIC>MOL_PROPERTY
U+W
SciTegic.value.DoubleValue
-3.131

@<SCITEGIC>MOL_PROPERTY
Grad RMS
SciTegic.value.DoubleValue
0.000000

@<SCITEGIC>MOL_PROPERTY
U
SciTegic.value.DoubleValue
-0.154

@<SCITEGIC>MOL_PROPERTY
W
SciTegic.value.DoubleValue
-2.978

@<SCITEGIC>MOL_PROPERTY
W(PB)
SciTegic.value.DoubleValue
-4.579

@<SCITEGIC>MOL_PROPERTY
W(SA)
SciTegic.value.DoubleValue
1.601

@<SCITEGIC>MOL_PROPERTY
Valence
SciTegic.value.DoubleValue
6.333

@<SCITEGIC>MOL_PROPERTY
Coulomb
SciTegic.value.DoubleValue
-7.439

@<SCITEGIC>MOL_PROPERTY
VdW
SciTegic.value.DoubleValue
0.952

@<SCITEGIC>MOL_PROPERTY
VdW6
SciTegic.value.DoubleValue
-2.120

@<SCITEGIC>MOL_PROPERTY
VdW12
SciTegic.value.DoubleValue
3.072

@<SCITEGIC>MOL_PROPERTY
Bond
SciTegic.value.DoubleValue
0.065

@<SCITEGIC>MOL_PROPERTY
Angle
SciTegic.value.DoubleValue
0.931

@<SCITEGIC>MOL_PROPERTY
Pdih
SciTegic.value.DoubleValue
5.338

@<SCITEGIC>MOL_PROPERTY
Idih
SciTegic.value.DoubleValue
0.000

@<SCITEGIC>MOL_PROPERTY
Tether
SciTegic.value.DoubleValue
0.000

@<TRIPOS>MOLECULE
guest-s16_confgen4.mol2 : confsearch ligand conformer 652
          13          13           1
SMALL
USER_CHARGES
 
@<TRIPOS>ATOM
       1    C1      20.256207   17.764507   22.246517 C.3        1 MOL1        -0.1693
       2    H1      21.345789   17.856344   22.346325 H          1 MOL1         0.0829
       3    H2      20.003837   16.704734   22.121902 H          1 MOL1         0.0829
       4    C2      19.607458   18.750615   21.219849 C.3        1 MOL1        -0.1768
       5    H3      18.608092   18.459110   20.873317 H          1 MOL1         0.0829
       6    H4      20.219750   19.012933   20.350101 H          1 MOL1         0.0829
       7    C3      19.612281   19.779988   22.390132 C.3        1 MOL1         0.1211
       8    H5      20.571195   20.299483   22.523066 H          1 MOL1         0.0786
       9    C4      19.432334   18.544857   23.323360 C.3        1 MOL1        -0.1768
      10    H6      18.393947   18.210343   23.439280 H          1 MOL1         0.0829
      11    H7      19.888910   18.627156   24.315693 H          1 MOL1         0.0829
      12    O1      18.542453   20.696512   22.391126 O.3        1 MOL1        -0.5515
      13    H8      18.699846   21.327797   21.656340 H          1 MOL1         0.3773
@<TRIPOS>BOND
    1     1     2    1
    2     1     3    1
    3     1     4    1
    4     4     5    1
    5     4     6    1
    6     4     7    1
    7     7     8    1
    8     1     9    1
    9     7     9    1
   10     9    10    1
   11     9    11    1
   12     7    12    1
   13    12    13    1
@<TRIPOS>SUBSTRUCTURE
       1 MOL1            1 RESIDUE      1      MOL     
@<SCITEGIC>MOL_PROPERTY
VConf Rank
SciTegic.value.IntegerValue
652

@<SCITEGIC>MOL_PROPERTY
Conf_Id
SciTegic.value.IntegerValue
19

@<SCITEGIC>MOL_PROPERTY
Delta U+W
SciTegic.value.DoubleValue
-0.011

@<SCITEGIC>MOL_PROPERTY
U+W
SciTegic.value.DoubleValue
-3.142

@<SCITEGIC>MOL_PROPERTY
Grad RMS
SciTegic.value.DoubleValue
0.000000

@<SCITEGIC>MOL_PROPERTY
U
SciTegic.value.DoubleValue
-0.154

@<SCITEGIC>MOL_PROPERTY
W
SciTegic.value.DoubleValue
-2.989

@<SCITEGIC>MOL_PROPERTY
W(PB)
SciTegic.value.DoubleValue
-4.588

@<SCITEGIC>MOL_PROPERTY
W(SA)
SciTegic.value.DoubleValue
1.599

@<SCITEGIC>MOL_PROPERTY
Valence
SciTegic.value.DoubleValue
6.334

@<SCITEGIC>MOL_PROPERTY
Coulomb
SciTegic.value.DoubleValue
-7.439

@<SCITEGIC>MOL_PROPERTY
VdW
SciTegic.value.DoubleValue
0.951

@<SCITEGIC>MOL_PROPERTY
VdW6
SciTegic.value.DoubleValue
-2.120

@<SCITEGIC>MOL_PROPERTY
VdW12
SciTegic.value.DoubleValue
3.072

@<SCITEGIC>MOL_PROPERTY
Bond
SciTegic.value.DoubleValue
0.065

@<SCITEGIC>MOL_PROPERTY
Angle
SciTegic.value.DoubleValue
0.930

@<SCITEGIC>MOL_PROPERTY
Pdih
SciTegic.value.DoubleValue
5.339

@<SCITEGIC>MOL_PROPERTY
Idih
SciTegic.value.DoubleValue
0.000

@<SCITEGIC>MOL_PROPERTY
Tether
SciTegic.value.DoubleValue
0.000

@<TRIPOS>MOLECULE
guest-s16_confgen4.mol2 : confsearch ligand conformer 653
          13          13           1
SMALL
USER_CHARGES
 
@<TRIPOS>ATOM
       1    C1      18.492217   19.128340   22.740665 C.3        1 MOL1        -0.1693
       2    H1      17.575091   18.571710   22.966539 H          1 MOL1         0.0829
       3    H2      18.384282   20.152268   23.121624 H          1 MOL1         0.0829
       4    C2      19.008890   19.034919   21.266456 C.3        1 MOL1        -0.1768
       5    H3      18.780915   18.087327   20.763603 H          1 MOL1         0.0829
       6    H4      18.725412   19.860270   20.604014 H          1 MOL1         0.0829
       7    C3      20.447624   19.110500   21.866258 C.3        1 MOL1         0.1211
       8    H5      21.196419   18.508665   21.335304 H          1 MOL1         0.0786
       9    C4      19.836339   18.427887   23.129772 C.3        1 MOL1        -0.1768
      10    H6      20.270487   18.722218   24.091663 H          1 MOL1         0.0829
      11    H7      19.808631   17.332608   23.079075 H          1 MOL1         0.0829
      12    O1      20.937744   20.420131   22.073122 O.3        1 MOL1        -0.5515
      13    H8      21.757635   20.342852   22.606003 H          1 MOL1         0.3773
@<TRIPOS>BOND
    1     1     2    1
    2     1     3    1
    3     1     4    1
    4     4     5    1
    5     4     6    1
    6     4     7    1
    7     7     8    1
    8     1     9    1
    9     7     9    1
   10     9    10    1
   11     9    11    1
   12     7    12    1
   13    12    13    1
@<TRIPOS>SUBSTRUCTURE
       1 MOL1            1 RESIDUE      1      MOL     
@<SCITEGIC>MOL_PROPERTY
VConf Rank
SciTegic.value.IntegerValue
653

@<SCITEGIC>MOL_PROPERTY
Conf_Id
SciTegic.value.IntegerValue
20

@<SCITEGIC>MOL_PROPERTY
Delta U+W
SciTegic.value.DoubleValue
1.030

@<SCITEGIC>MOL_PROPERTY
U+W
SciTegic.value.DoubleValue
-2.101

@<SCITEGIC>MOL_PROPERTY
Grad RMS
SciTegic.value.DoubleValue
0.000000

@<SCITEGIC>MOL_PROPERTY
U
SciTegic.value.DoubleValue
0.841

@<SCITEGIC>MOL_PROPERTY
W
SciTegic.value.DoubleValue
-2.942

@<SCITEGIC>MOL_PROPERTY
W(PB)
SciTegic.value.DoubleValue
-4.530

@<SCITEGIC>MOL_PROPERTY
W(SA)
SciTegic.value.DoubleValue
1.587

@<SCITEGIC>MOL_PROPERTY
Valence
SciTegic.value.DoubleValue
6.736

@<SCITEGIC>MOL_PROPERTY
Coulomb
SciTegic.value.DoubleValue
-7.246

@<SCITEGIC>MOL_PROPERTY
VdW
SciTegic.value.DoubleValue
1.352

@<SCITEGIC>MOL_PROPERTY
VdW6
SciTegic.value.DoubleValue
-2.500

@<SCITEGIC>MOL_PROPERTY
VdW12
SciTegic.value.DoubleValue
3.851

@<SCITEGIC>MOL_PROPERTY
Bond
SciTegic.value.DoubleValue
0.063

@<SCITEGIC>MOL_PROPERTY
Angle
SciTegic.value.DoubleValue
0.687

@<SCITEGIC>MOL_PROPERTY
Pdih
SciTegic.value.DoubleValue
5.986

@<SCITEGIC>MOL_PROPERTY
Idih
SciTegic.value.DoubleValue
0.000

@<SCITEGIC>MOL_PROPERTY
Tether
SciTegic.value.DoubleValue
0.000

@<TRIPOS>MOLECULE
guest-s16_confgen4.mol2 : confsearch ligand conformer 654
          13          13           1
SMALL
USER_CHARGES
 
@<TRIPOS>ATOM
       1    C1      18.741161   19.713058   21.979322 C.3        1 MOL1        -0.1693
       2    H1      18.937696   20.737235   21.635657 H          1 MOL1         0.0829
       3    H2      17.656273   19.569069   22.047934 H          1 MOL1         0.0829
       4    C2      19.573371   19.271262   23.228162 C.3        1 MOL1        -0.1768
       5    H3      19.815751   20.059468   23.949463 H          1 MOL1         0.0829
       6    H4      19.161924   18.411555   23.771303 H          1 MOL1         0.0829
       7    C3      20.695405   18.922752   22.204084 C.3        1 MOL1         0.1211
       8    H5      21.308201   19.784452   21.906345 H          1 MOL1         0.0786
       9    C4      19.534708   18.602923   21.214313 C.3        1 MOL1        -0.1768
      10    H6      19.114619   17.593834   21.307334 H          1 MOL1         0.0829
      11    H7      19.742944   18.800881   20.157080 H          1 MOL1         0.0829
      12    O1      21.512263   17.829972   22.551062 O.3        1 MOL1        -0.5515
      13    H8      20.914285   17.096377   22.805976 H          1 MOL1         0.3773
@<TRIPOS>BOND
    1     1     2    1
    2     1     3    1
    3     1     4    1
    4     4     5    1
    5     4     6    1
    6     4     7    1
    7     7     8    1
    8     1     9    1
    9     7     9    1
   10     9    10    1
   11     9    11    1
   12     7    12    1
   13    12    13    1
@<TRIPOS>SUBSTRUCTURE
       1 MOL1            1 RESIDUE      1      MOL     
@<SCITEGIC>MOL_PROPERTY
VConf Rank
SciTegic.value.IntegerValue
654

@<SCITEGIC>MOL_PROPERTY
Conf_Id
SciTegic.value.IntegerValue
24

@<SCITEGIC>MOL_PROPERTY
Delta U+W
SciTegic.value.DoubleValue
0.356

@<SCITEGIC>MOL_PROPERTY
U+W
SciTegic.value.DoubleValue
-2.775

@<SCITEGIC>MOL_PROPERTY
Grad RMS
SciTegic.value.DoubleValue
0.000000

@<SCITEGIC>MOL_PROPERTY
U
SciTegic.value.DoubleValue
-0.184

@<SCITEGIC>MOL_PROPERTY
W
SciTegic.value.DoubleValue
-2.591

@<SCITEGIC>MOL_PROPERTY
W(PB)
SciTegic.value.DoubleValue
-4.184

@<SCITEGIC>MOL_PROPERTY
W(SA)
SciTegic.value.DoubleValue
1.593

@<SCITEGIC>MOL_PROPERTY
Valence
SciTegic.value.DoubleValue
6.840

@<SCITEGIC>MOL_PROPERTY
Coulomb
SciTegic.value.DoubleValue
-7.916

@<SCITEGIC>MOL_PROPERTY
VdW
SciTegic.value.DoubleValue
0.893

@<SCITEGIC>MOL_PROPERTY
VdW6
SciTegic.value.DoubleValue
-2.167

@<SCITEGIC>MOL_PROPERTY
VdW12
SciTegic.value.DoubleValue
3.060

@<SCITEGIC>MOL_PROPERTY
Bond
SciTegic.value.DoubleValue
0.059

@<SCITEGIC>MOL_PROPERTY
Angle
SciTegic.value.DoubleValue
0.918

@<SCITEGIC>MOL_PROPERTY
Pdih
SciTegic.value.DoubleValue
5.862

@<SCITEGIC>MOL_PROPERTY
Idih
SciTegic.value.DoubleValue
0.000

@<SCITEGIC>MOL_PROPERTY
Tether
SciTegic.value.DoubleValue
0.000

@<TRIPOS>MOLECULE
guest-s16_confgen4.mol2 : confsearch ligand conformer 655
          13          13           1
SMALL
USER_CHARGES
 
@<TRIPOS>ATOM
       1    C1      19.082315   19.708870   22.798966 C.3        1 MOL1        -0.1693
       2    H1      18.112864   19.915699   23.267753 H          1 MOL1         0.0829
       3    H2      19.739479   20.571586   22.966753 H          1 MOL1         0.0829
       4    C2      19.032077   19.197098   21.320554 C.3        1 MOL1        -0.1768
       5    H3      18.136431   18.614527   21.072672 H          1 MOL1         0.0829
       6    H4      19.181871   19.953489   20.542003 H          1 MOL1         0.0829
       7    C3      20.278219   18.328219   21.675762 C.3        1 MOL1         0.1211
       8    H5      20.308652   17.345372   21.188348 H          1 MOL1         0.0786
       9    C4      19.721325   18.319566   23.133085 C.3        1 MOL1        -0.1768
      10    H6      18.994672   17.521839   23.329610 H          1 MOL1         0.0829
      11    H7      20.471049   18.312141   23.932189 H          1 MOL1         0.0829
      12    O1      21.519139   18.982240   21.520518 O.3        1 MOL1        -0.5515
      13    H8      21.433764   19.847327   21.971795 H          1 MOL1         0.3773
@<TRIPOS>BOND
    1     1     2    1
    2     1     3    1
    3     1     4    1
    4     4     5    1
    5     4     6    1
    6     4     7    1
    7     7     8    1
    8     1     9    1
    9     7     9    1
   10     9    10    1
   11     9    11    1
   12     7    12    1
   13    12    13    1
@<TRIPOS>SUBSTRUCTURE
       1 MOL1            1 RESIDUE      1      MOL     
@<SCITEGIC>MOL_PROPERTY
VConf Rank
SciTegic.value.IntegerValue
655

@<SCITEGIC>MOL_PROPERTY
Conf_Id
SciTegic.value.IntegerValue
44

@<SCITEGIC>MOL_PROPERTY
Delta U+W
SciTegic.value.DoubleValue
0.823

@<SCITEGIC>MOL_PROPERTY
U+W
SciTegic.value.DoubleValue
-2.308

@<SCITEGIC>MOL_PROPERTY
Grad RMS
SciTegic.value.DoubleValue
0.000000

@<SCITEGIC>MOL_PROPERTY
U
SciTegic.value.DoubleValue
0.039

@<SCITEGIC>MOL_PROPERTY
W
SciTegic.value.DoubleValue
-2.348

@<SCITEGIC>MOL_PROPERTY
W(PB)
SciTegic.value.DoubleValue
-3.918

@<SCITEGIC>MOL_PROPERTY
W(SA)
SciTegic.value.DoubleValue
1.571

@<SCITEGIC>MOL_PROPERTY
Valence
SciTegic.value.DoubleValue
7.320

@<SCITEGIC>MOL_PROPERTY
Coulomb
SciTegic.value.DoubleValue
-8.530

@<SCITEGIC>MOL_PROPERTY
VdW
SciTegic.value.DoubleValue
1.249

@<SCITEGIC>MOL_PROPERTY
VdW6
SciTegic.value.DoubleValue
-2.615

@<SCITEGIC>MOL_PROPERTY
VdW12
SciTegic.value.DoubleValue
3.864

@<SCITEGIC>MOL_PROPERTY
Bond
SciTegic.value.DoubleValue
0.056

@<SCITEGIC>MOL_PROPERTY
Angle
SciTegic.value.DoubleValue
0.694

@<SCITEGIC>MOL_PROPERTY
Pdih
SciTegic.value.DoubleValue
6.570

@<SCITEGIC>MOL_PROPERTY
Idih
SciTegic.value.DoubleValue
0.000

@<SCITEGIC>MOL_PROPERTY
Tether
SciTegic.value.DoubleValue
0.000

@<TRIPOS>MOLECULE
guest-s16_confgen4.mol2 : confsearch ligand conformer 656
          13          13           1
SMALL
USER_CHARGES
 
@<TRIPOS>ATOM
       1    C1      18.994551   17.907901   22.222131 C.3        1 MOL1        -0.1693
       2    H1      17.909937   18.045167   22.120359 H          1 MOL1         0.0829
       3    H2      19.213359   16.833443   22.221471 H          1 MOL1         0.0829
       4    C2      19.655136   18.742792   23.368382 C.3        1 MOL1        -0.1768
       5    H3      19.037372   18.919932   24.255484 H          1 MOL1         0.0829
       6    H4      20.640168   18.382809   23.690422 H          1 MOL1         0.0829
       7    C3      19.700044   19.904862   22.330874 C.3        1 MOL1         0.1211
       8    H5      18.758787   20.466241   22.253725 H          1 MOL1         0.0786
       9    C4      19.858819   18.785680   21.257833 C.3        1 MOL1        -0.1768
      10    H6      19.420588   18.998699   20.276636 H          1 MOL1         0.0829
      11    H7      20.888011   18.432928   21.115973 H          1 MOL1         0.0829
      12    O1      20.796273   20.780907   22.454865 O.3        1 MOL1        -0.5515
      13    H8      20.799682   21.356545   21.659986 H          1 MOL1         0.3773
@<TRIPOS>BOND
    1     1     2    1
    2     1     3    1
    3     1     4    1
    4     4     5    1
    5     4     6    1
    6     4     7    1
    7     7     8    1
    8     1     9    1
    9     7     9    1
   10     9    10    1
   11     9    11    1
   12     7    12    1
   13    12    13    1
@<TRIPOS>SUBSTRUCTURE
       1 MOL1            1 RESIDUE      1      MOL     
@<SCITEGIC>MOL_PROPERTY
VConf Rank
SciTegic.value.IntegerValue
656

@<SCITEGIC>MOL_PROPERTY
Conf_Id
SciTegic.value.IntegerValue
22

@<SCITEGIC>MOL_PROPERTY
Delta U+W
SciTegic.value.DoubleValue
0.000

@<SCITEGIC>MOL_PROPERTY
U+W
SciTegic.value.DoubleValue
-3.131

@<SCITEGIC>MOL_PROPERTY
Grad RMS
SciTegic.value.DoubleValue
0.000000

@<SCITEGIC>MOL_PROPERTY
U
SciTegic.value.DoubleValue
-0.154

@<SCITEGIC>MOL_PROPERTY
W
SciTegic.value.DoubleValue
-2.978

@<SCITEGIC>MOL_PROPERTY
W(PB)
SciTegic.value.DoubleValue
-4.579

@<SCITEGIC>MOL_PROPERTY
W(SA)
SciTegic.value.DoubleValue
1.601

@<SCITEGIC>MOL_PROPERTY
Valence
SciTegic.value.DoubleValue
6.333

@<SCITEGIC>MOL_PROPERTY
Coulomb
SciTegic.value.DoubleValue
-7.439

@<SCITEGIC>MOL_PROPERTY
VdW
SciTegic.value.DoubleValue
0.952

@<SCITEGIC>MOL_PROPERTY
VdW6
SciTegic.value.DoubleValue
-2.120

@<SCITEGIC>MOL_PROPERTY
VdW12
SciTegic.value.DoubleValue
3.072

@<SCITEGIC>MOL_PROPERTY
Bond
SciTegic.value.DoubleValue
0.065

@<SCITEGIC>MOL_PROPERTY
Angle
SciTegic.value.DoubleValue
0.931

@<SCITEGIC>MOL_PROPERTY
Pdih
SciTegic.value.DoubleValue
5.338

@<SCITEGIC>MOL_PROPERTY
Idih
SciTegic.value.DoubleValue
0.000

@<SCITEGIC>MOL_PROPERTY
Tether
SciTegic.value.DoubleValue
0.000

@<TRIPOS>MOLECULE
guest-s16_confgen4.mol2 : confsearch ligand conformer 657
          13          13           1
SMALL
USER_CHARGES
 
@<TRIPOS>ATOM
       1    C1      19.381831   18.237130   23.344046 C.3        1 MOL1        -0.1693
       2    H1      19.989541   17.327220   23.435357 H          1 MOL1         0.0829
       3    H2      18.689611   18.282860   24.193208 H          1 MOL1         0.0829
       4    C2      18.751157   18.464003   21.930501 C.3        1 MOL1        -0.1768
       5    H3      17.903306   19.160173   21.913525 H          1 MOL1         0.0829
       6    H4      18.477204   17.560931   21.374098 H          1 MOL1         0.0829
       7    C3      20.122004   19.103909   21.555675 C.3        1 MOL1         0.1211
       8    H5      20.891484   18.373826   21.269421 H          1 MOL1         0.0786
       9    C4      20.195318   19.540600   23.049920 C.3        1 MOL1        -0.1768
      10    H6      19.665744   20.474175   23.277022 H          1 MOL1         0.0829
      11    H7      21.200430   19.591416   23.482503 H          1 MOL1         0.0829
      12    O1      20.060350   20.157563   20.622637 O.3        1 MOL1        -0.5515
      13    H8      19.854118   19.760575   19.749096 H          1 MOL1         0.3773
@<TRIPOS>BOND
    1     1     2    1
    2     1     3    1
    3     1     4    1
    4     4     5    1
    5     4     6    1
    6     4     7    1
    7     7     8    1
    8     1     9    1
    9     7     9    1
   10     9    10    1
   11     9    11    1
   12     7    12    1
   13    12    13    1
@<TRIPOS>SUBSTRUCTURE
       1 MOL1            1 RESIDUE      1      MOL     
@<SCITEGIC>MOL_PROPERTY
VConf Rank
SciTegic.value.IntegerValue
657

@<SCITEGIC>MOL_PROPERTY
Conf_Id
SciTegic.value.IntegerValue
19

@<SCITEGIC>MOL_PROPERTY
Delta U+W
SciTegic.value.DoubleValue
-0.011

@<SCITEGIC>MOL_PROPERTY
U+W
SciTegic.value.DoubleValue
-3.142

@<SCITEGIC>MOL_PROPERTY
Grad RMS
SciTegic.value.DoubleValue
0.000000

@<SCITEGIC>MOL_PROPERTY
U
SciTegic.value.DoubleValue
-0.154

@<SCITEGIC>MOL_PROPERTY
W
SciTegic.value.DoubleValue
-2.989

@<SCITEGIC>MOL_PROPERTY
W(PB)
SciTegic.value.DoubleValue
-4.588

@<SCITEGIC>MOL_PROPERTY
W(SA)
SciTegic.value.DoubleValue
1.599

@<SCITEGIC>MOL_PROPERTY
Valence
SciTegic.value.DoubleValue
6.334

@<SCITEGIC>MOL_PROPERTY
Coulomb
SciTegic.value.DoubleValue
-7.439

@<SCITEGIC>MOL_PROPERTY
VdW
SciTegic.value.DoubleValue
0.951

@<SCITEGIC>MOL_PROPERTY
VdW6
SciTegic.value.DoubleValue
-2.120

@<SCITEGIC>MOL_PROPERTY
VdW12
SciTegic.value.DoubleValue
3.072

@<SCITEGIC>MOL_PROPERTY
Bond
SciTegic.value.DoubleValue
0.065

@<SCITEGIC>MOL_PROPERTY
Angle
SciTegic.value.DoubleValue
0.930

@<SCITEGIC>MOL_PROPERTY
Pdih
SciTegic.value.DoubleValue
5.339

@<SCITEGIC>MOL_PROPERTY
Idih
SciTegic.value.DoubleValue
0.000

@<SCITEGIC>MOL_PROPERTY
Tether
SciTegic.value.DoubleValue
0.000

@<TRIPOS>MOLECULE
guest-s16_confgen4.mol2 : confsearch ligand conformer 658
          13          13           1
SMALL
USER_CHARGES
 
@<TRIPOS>ATOM
       1    C1      20.691314   19.188690   21.665362 C.3        1 MOL1        -0.1693
       2    H1      21.175469   19.654654   20.799077 H          1 MOL1         0.0829
       3    H2      21.457514   18.678217   22.263326 H          1 MOL1         0.0829
       4    C2      19.421670   18.325328   21.362736 C.3        1 MOL1        -0.1768
       5    H3      18.836974   18.663317   20.498641 H          1 MOL1         0.0829
       6    H4      19.583833   17.245299   21.275369 H          1 MOL1         0.0829
       7    C3      18.874248   18.819646   22.738020 C.3        1 MOL1         0.1211
       8    H5      17.789535   18.985358   22.765398 H          1 MOL1         0.0786
       9    C4      19.725876   20.103804   22.489496 C.3        1 MOL1        -0.1768
      10    H6      20.154812   20.575123   23.380688 H          1 MOL1         0.0829
      11    H7      19.215168   20.873588   21.898240 H          1 MOL1         0.0829
      12    O1      19.273423   18.044301   23.850515 O.3        1 MOL1        -0.5515
      13    H8      19.021851   18.542371   24.657232 H          1 MOL1         0.3773
@<TRIPOS>BOND
    1     1     2    1
    2     1     3    1
    3     1     4    1
    4     4     5    1
    5     4     6    1
    6     4     7    1
    7     7     8    1
    8     1     9    1
    9     7     9    1
   10     9    10    1
   11     9    11    1
   12     7    12    1
   13    12    13    1
@<TRIPOS>SUBSTRUCTURE
       1 MOL1            1 RESIDUE      1      MOL     
@<SCITEGIC>MOL_PROPERTY
VConf Rank
SciTegic.value.IntegerValue
658

@<SCITEGIC>MOL_PROPERTY
Conf_Id
SciTegic.value.IntegerValue
20

@<SCITEGIC>MOL_PROPERTY
Delta U+W
SciTegic.value.DoubleValue
1.030

@<SCITEGIC>MOL_PROPERTY
U+W
SciTegic.value.DoubleValue
-2.101

@<SCITEGIC>MOL_PROPERTY
Grad RMS
SciTegic.value.DoubleValue
0.000000

@<SCITEGIC>MOL_PROPERTY
U
SciTegic.value.DoubleValue
0.841

@<SCITEGIC>MOL_PROPERTY
W
SciTegic.value.DoubleValue
-2.942

@<SCITEGIC>MOL_PROPERTY
W(PB)
SciTegic.value.DoubleValue
-4.530

@<SCITEGIC>MOL_PROPERTY
W(SA)
SciTegic.value.DoubleValue
1.587

@<SCITEGIC>MOL_PROPERTY
Valence
SciTegic.value.DoubleValue
6.736

@<SCITEGIC>MOL_PROPERTY
Coulomb
SciTegic.value.DoubleValue
-7.246

@<SCITEGIC>MOL_PROPERTY
VdW
SciTegic.value.DoubleValue
1.352

@<SCITEGIC>MOL_PROPERTY
VdW6
SciTegic.value.DoubleValue
-2.500

@<SCITEGIC>MOL_PROPERTY
VdW12
SciTegic.value.DoubleValue
3.851

@<SCITEGIC>MOL_PROPERTY
Bond
SciTegic.value.DoubleValue
0.063

@<SCITEGIC>MOL_PROPERTY
Angle
SciTegic.value.DoubleValue
0.687

@<SCITEGIC>MOL_PROPERTY
Pdih
SciTegic.value.DoubleValue
5.986

@<SCITEGIC>MOL_PROPERTY
Idih
SciTegic.value.DoubleValue
0.000

@<SCITEGIC>MOL_PROPERTY
Tether
SciTegic.value.DoubleValue
0.000

@<TRIPOS>MOLECULE
guest-s16_confgen4.mol2 : confsearch ligand conformer 659
          13          13           1
SMALL
USER_CHARGES
 
@<TRIPOS>ATOM
       1    C1      19.381712   19.438876   21.083572 C.3        1 MOL1        -0.1693
       2    H1      18.743516   18.820412   20.438686 H          1 MOL1         0.0829
       3    H2      19.570899   20.392948   20.577235 H          1 MOL1         0.0829
       4    C2      20.638104   18.704685   21.657854 C.3        1 MOL1        -0.1768
       5    H3      21.081017   17.934165   21.017216 H          1 MOL1         0.0829
       6    H4      21.435573   19.370348   22.010451 H          1 MOL1         0.0829
       7    C3      19.676056   18.188935   22.770339 C.3        1 MOL1         0.1211
       8    H5      19.097007   17.301614   22.480414 H          1 MOL1         0.0786
       9    C4      18.911412   19.532586   22.572664 C.3        1 MOL1        -0.1768
      10    H6      19.322944   20.383295   23.129732 H          1 MOL1         0.0829
      11    H7      17.829396   19.493228   22.739943 H          1 MOL1         0.0829
      12    O1      20.260425   18.006883   24.038088 O.3        1 MOL1        -0.5515
      13    H8      20.760541   18.824861   24.241840 H          1 MOL1         0.3773
@<TRIPOS>BOND
    1     1     2    1
    2     1     3    1
    3     1     4    1
    4     4     5    1
    5     4     6    1
    6     4     7    1
    7     7     8    1
    8     1     9    1
    9     7     9    1
   10     9    10    1
   11     9    11    1
   12     7    12    1
   13    12    13    1
@<TRIPOS>SUBSTRUCTURE
       1 MOL1            1 RESIDUE      1      MOL     
@<SCITEGIC>MOL_PROPERTY
VConf Rank
SciTegic.value.IntegerValue
659

@<SCITEGIC>MOL_PROPERTY
Conf_Id
SciTegic.value.IntegerValue
24

@<SCITEGIC>MOL_PROPERTY
Delta U+W
SciTegic.value.DoubleValue
0.356

@<SCITEGIC>MOL_PROPERTY
U+W
SciTegic.value.DoubleValue
-2.775

@<SCITEGIC>MOL_PROPERTY
Grad RMS
SciTegic.value.DoubleValue
0.000000

@<SCITEGIC>MOL_PROPERTY
U
SciTegic.value.DoubleValue
-0.184

@<SCITEGIC>MOL_PROPERTY
W
SciTegic.value.DoubleValue
-2.591

@<SCITEGIC>MOL_PROPERTY
W(PB)
SciTegic.value.DoubleValue
-4.184

@<SCITEGIC>MOL_PROPERTY
W(SA)
SciTegic.value.DoubleValue
1.593

@<SCITEGIC>MOL_PROPERTY
Valence
SciTegic.value.DoubleValue
6.840

@<SCITEGIC>MOL_PROPERTY
Coulomb
SciTegic.value.DoubleValue
-7.916

@<SCITEGIC>MOL_PROPERTY
VdW
SciTegic.value.DoubleValue
0.893

@<SCITEGIC>MOL_PROPERTY
VdW6
SciTegic.value.DoubleValue
-2.167

@<SCITEGIC>MOL_PROPERTY
VdW12
SciTegic.value.DoubleValue
3.060

@<SCITEGIC>MOL_PROPERTY
Bond
SciTegic.value.DoubleValue
0.059

@<SCITEGIC>MOL_PROPERTY
Angle
SciTegic.value.DoubleValue
0.918

@<SCITEGIC>MOL_PROPERTY
Pdih
SciTegic.value.DoubleValue
5.862

@<SCITEGIC>MOL_PROPERTY
Idih
SciTegic.value.DoubleValue
0.000

@<SCITEGIC>MOL_PROPERTY
Tether
SciTegic.value.DoubleValue
0.000

@<TRIPOS>MOLECULE
guest-s16_confgen4.mol2 : confsearch ligand conformer 660
          13          13           1
SMALL
USER_CHARGES
 
@<TRIPOS>ATOM
       1    C1      18.686286   18.612372   22.561031 C.3        1 MOL1        -0.1693
       2    H1      17.811720   18.832102   23.184911 H          1 MOL1         0.0829
       3    H2      18.527141   17.643985   22.069916 H          1 MOL1         0.0829
       4    C2      20.080032   18.778081   23.253961 C.3        1 MOL1        -0.1768
       5    H3      20.108912   19.546367   24.036213 H          1 MOL1         0.0829
       6    H4      20.535650   17.862746   23.648021 H          1 MOL1         0.0829
       7    C3      20.609047   19.260918   21.867959 C.3        1 MOL1         0.1211
       8    H5      21.368569   20.051754   21.914769 H          1 MOL1         0.0786
       9    C4      19.154927   19.763866   21.609941 C.3        1 MOL1        -0.1768
      10    H6      18.956985   20.773851   21.989103 H          1 MOL1         0.0829
      11    H7      18.805320   19.706574   20.573022 H          1 MOL1         0.0829
      12    O1      21.039627   18.228975   21.006900 O.3        1 MOL1        -0.5515
      13    H8      20.327641   17.556381   21.004261 H          1 MOL1         0.3773
@<TRIPOS>BOND
    1     1     2    1
    2     1     3    1
    3     1     4    1
    4     4     5    1
    5     4     6    1
    6     4     7    1
    7     7     8    1
    8     1     9    1
    9     7     9    1
   10     9    10    1
   11     9    11    1
   12     7    12    1
   13    12    13    1
@<TRIPOS>SUBSTRUCTURE
       1 MOL1            1 RESIDUE      1      MOL     
@<SCITEGIC>MOL_PROPERTY
VConf Rank
SciTegic.value.IntegerValue
660

@<SCITEGIC>MOL_PROPERTY
Conf_Id
SciTegic.value.IntegerValue
44

@<SCITEGIC>MOL_PROPERTY
Delta U+W
SciTegic.value.DoubleValue
0.823

@<SCITEGIC>MOL_PROPERTY
U+W
SciTegic.value.DoubleValue
-2.308

@<SCITEGIC>MOL_PROPERTY
Grad RMS
SciTegic.value.DoubleValue
0.000000

@<SCITEGIC>MOL_PROPERTY
U
SciTegic.value.DoubleValue
0.039

@<SCITEGIC>MOL_PROPERTY
W
SciTegic.value.DoubleValue
-2.348

@<SCITEGIC>MOL_PROPERTY
W(PB)
SciTegic.value.DoubleValue
-3.918

@<SCITEGIC>MOL_PROPERTY
W(SA)
SciTegic.value.DoubleValue
1.571

@<SCITEGIC>MOL_PROPERTY
Valence
SciTegic.value.DoubleValue
7.320

@<SCITEGIC>MOL_PROPERTY
Coulomb
SciTegic.value.DoubleValue
-8.530

@<SCITEGIC>MOL_PROPERTY
VdW
SciTegic.value.DoubleValue
1.249

@<SCITEGIC>MOL_PROPERTY
VdW6
SciTegic.value.DoubleValue
-2.615

@<SCITEGIC>MOL_PROPERTY
VdW12
SciTegic.value.DoubleValue
3.864

@<SCITEGIC>MOL_PROPERTY
Bond
SciTegic.value.DoubleValue
0.056

@<SCITEGIC>MOL_PROPERTY
Angle
SciTegic.value.DoubleValue
0.694

@<SCITEGIC>MOL_PROPERTY
Pdih
SciTegic.value.DoubleValue
6.570

@<SCITEGIC>MOL_PROPERTY
Idih
SciTegic.value.DoubleValue
0.000

@<SCITEGIC>MOL_PROPERTY
Tether
SciTegic.value.DoubleValue
0.000

@<TRIPOS>MOLECULE
guest-s16_confgen4.mol2 : confsearch ligand conformer 661
          13          13           1
SMALL
USER_CHARGES
 
@<TRIPOS>ATOM
       1    C1      18.518145   19.691044   22.281017 C.3        1 MOL1        -0.1693
       2    H1      17.791297   19.329055   21.541936 H          1 MOL1         0.0829
       3    H2      18.044643   20.475840   22.882871 H          1 MOL1         0.0829
       4    C2      19.930118   20.029631   21.698781 C.3        1 MOL1        -0.1768
       5    H3      19.950981   20.413387   20.672985 H          1 MOL1         0.0829
       6    H4      20.544324   20.681732   22.332107 H          1 MOL1         0.0829
       7    C3      20.227006   18.508131   21.859221 C.3        1 MOL1         0.1211
       8    H5      19.859119   17.894813   21.025217 H          1 MOL1         0.0786
       9    C4      19.257128   18.565791   23.077911 C.3        1 MOL1        -0.1768
      10    H6      18.680482   17.655036   23.273297 H          1 MOL1         0.0829
      11    H7      19.721695   18.897553   24.014877 H          1 MOL1         0.0829
      12    O1      21.563058   18.184384   22.166952 O.3        1 MOL1        -0.5515
      13    H8      21.584732   17.231510   22.400973 H          1 MOL1         0.3773
@<TRIPOS>BOND
    1     1     2    1
    2     1     3    1
    3     1     4    1
    4     4     5    1
    5     4     6    1
    6     4     7    1
    7     7     8    1
    8     1     9    1
    9     7     9    1
   10     9    10    1
   11     9    11    1
   12     7    12    1
   13    12    13    1
@<TRIPOS>SUBSTRUCTURE
       1 MOL1            1 RESIDUE      1      MOL     
@<SCITEGIC>MOL_PROPERTY
VConf Rank
SciTegic.value.IntegerValue
661

@<SCITEGIC>MOL_PROPERTY
Conf_Id
SciTegic.value.IntegerValue
22

@<SCITEGIC>MOL_PROPERTY
Delta U+W
SciTegic.value.DoubleValue
0.000

@<SCITEGIC>MOL_PROPERTY
U+W
SciTegic.value.DoubleValue
-3.131

@<SCITEGIC>MOL_PROPERTY
Grad RMS
SciTegic.value.DoubleValue
0.000000

@<SCITEGIC>MOL_PROPERTY
U
SciTegic.value.DoubleValue
-0.154

@<SCITEGIC>MOL_PROPERTY
W
SciTegic.value.DoubleValue
-2.978

@<SCITEGIC>MOL_PROPERTY
W(PB)
SciTegic.value.DoubleValue
-4.579

@<SCITEGIC>MOL_PROPERTY
W(SA)
SciTegic.value.DoubleValue
1.601

@<SCITEGIC>MOL_PROPERTY
Valence
SciTegic.value.DoubleValue
6.333

@<SCITEGIC>MOL_PROPERTY
Coulomb
SciTegic.value.DoubleValue
-7.439

@<SCITEGIC>MOL_PROPERTY
VdW
SciTegic.value.DoubleValue
0.952

@<SCITEGIC>MOL_PROPERTY
VdW6
SciTegic.value.DoubleValue
-2.120

@<SCITEGIC>MOL_PROPERTY
VdW12
SciTegic.value.DoubleValue
3.072

@<SCITEGIC>MOL_PROPERTY
Bond
SciTegic.value.DoubleValue
0.065

@<SCITEGIC>MOL_PROPERTY
Angle
SciTegic.value.DoubleValue
0.931

@<SCITEGIC>MOL_PROPERTY
Pdih
SciTegic.value.DoubleValue
5.338

@<SCITEGIC>MOL_PROPERTY
Idih
SciTegic.value.DoubleValue
0.000

@<SCITEGIC>MOL_PROPERTY
Tether
SciTegic.value.DoubleValue
0.000

@<TRIPOS>MOLECULE
guest-s16_confgen4.mol2 : confsearch ligand conformer 662
          13          13           1
SMALL
USER_CHARGES
 
@<TRIPOS>ATOM
       1    C1      18.936661   19.694443   21.427079 C.3        1 MOL1        -0.1693
       2    H1      19.064072   20.767344   21.622620 H          1 MOL1         0.0829
       3    H2      18.209314   19.570039   20.616013 H          1 MOL1         0.0829
       4    C2      18.699705   18.820184   22.702560 C.3        1 MOL1        -0.1768
       5    H3      18.254617   17.836498   22.507491 H          1 MOL1         0.0829
       6    H4      18.151059   19.299585   23.520689 H          1 MOL1         0.0829
       7    C3      20.252421   18.813072   22.837537 C.3        1 MOL1         0.1211
       8    H5      20.661112   19.705113   23.331799 H          1 MOL1         0.0786
       9    C4      20.272060   18.892732   21.281223 C.3        1 MOL1        -0.1768
      10    H6      20.173976   17.924194   20.775358 H          1 MOL1         0.0829
      11    H7      21.116565   19.435397   20.842719 H          1 MOL1         0.0829
      12    O1      20.804272   17.639385   23.387508 O.3        1 MOL1        -0.5515
      13    H8      20.586265   17.636395   24.344414 H          1 MOL1         0.3773
@<TRIPOS>BOND
    1     1     2    1
    2     1     3    1
    3     1     4    1
    4     4     5    1
    5     4     6    1
    6     4     7    1
    7     7     8    1
    8     1     9    1
    9     7     9    1
   10     9    10    1
   11     9    11    1
   12     7    12    1
   13    12    13    1
@<TRIPOS>SUBSTRUCTURE
       1 MOL1            1 RESIDUE      1      MOL     
@<SCITEGIC>MOL_PROPERTY
VConf Rank
SciTegic.value.IntegerValue
662

@<SCITEGIC>MOL_PROPERTY
Conf_Id
SciTegic.value.IntegerValue
19

@<SCITEGIC>MOL_PROPERTY
Delta U+W
SciTegic.value.DoubleValue
-0.011

@<SCITEGIC>MOL_PROPERTY
U+W
SciTegic.value.DoubleValue
-3.142

@<SCITEGIC>MOL_PROPERTY
Grad RMS
SciTegic.value.DoubleValue
0.000000

@<SCITEGIC>MOL_PROPERTY
U
SciTegic.value.DoubleValue
-0.154

@<SCITEGIC>MOL_PROPERTY
W
SciTegic.value.DoubleValue
-2.989

@<SCITEGIC>MOL_PROPERTY
W(PB)
SciTegic.value.DoubleValue
-4.588

@<SCITEGIC>MOL_PROPERTY
W(SA)
SciTegic.value.DoubleValue
1.599

@<SCITEGIC>MOL_PROPERTY
Valence
SciTegic.value.DoubleValue
6.334

@<SCITEGIC>MOL_PROPERTY
Coulomb
SciTegic.value.DoubleValue
-7.439

@<SCITEGIC>MOL_PROPERTY
VdW
SciTegic.value.DoubleValue
0.951

@<SCITEGIC>MOL_PROPERTY
VdW6
SciTegic.value.DoubleValue
-2.120

@<SCITEGIC>MOL_PROPERTY
VdW12
SciTegic.value.DoubleValue
3.072

@<SCITEGIC>MOL_PROPERTY
Bond
SciTegic.value.DoubleValue
0.065

@<SCITEGIC>MOL_PROPERTY
Angle
SciTegic.value.DoubleValue
0.930

@<SCITEGIC>MOL_PROPERTY
Pdih
SciTegic.value.DoubleValue
5.339

@<SCITEGIC>MOL_PROPERTY
Idih
SciTegic.value.DoubleValue
0.000

@<SCITEGIC>MOL_PROPERTY
Tether
SciTegic.value.DoubleValue
0.000

@<TRIPOS>MOLECULE
guest-s16_confgen4.mol2 : confsearch ligand conformer 663
          13          13           1
SMALL
USER_CHARGES
 
@<TRIPOS>ATOM
       1    C1      20.370706   18.480609   23.082788 C.3        1 MOL1        -0.1693
       2    H1      21.411475   18.277847   23.361471 H          1 MOL1         0.0829
       3    H2      19.712049   18.050763   23.848692 H          1 MOL1         0.0829
       4    C2      19.971096   18.129432   21.611069 C.3        1 MOL1        -0.1768
       5    H3      20.784439   18.230322   20.882331 H          1 MOL1         0.0829
       6    H4      19.486188   17.158203   21.462834 H          1 MOL1         0.0829
       7    C3      19.015338   19.361336   21.677151 C.3        1 MOL1         0.1211
       8    H5      18.922723   19.919025   20.736290 H          1 MOL1         0.0786
       9    C4      20.037551   19.959267   22.693840 C.3        1 MOL1        -0.1768
      10    H6      19.614393   20.581690   23.490004 H          1 MOL1         0.0829
      11    H7      20.867651   20.504043   22.227872 H          1 MOL1         0.0829
      12    O1      17.733260   19.091659   22.207899 O.3        1 MOL1        -0.5515
      13    H8      17.294819   19.955500   22.361860 H          1 MOL1         0.3773
@<TRIPOS>BOND
    1     1     2    1
    2     1     3    1
    3     1     4    1
    4     4     5    1
    5     4     6    1
    6     4     7    1
    7     7     8    1
    8     1     9    1
    9     7     9    1
   10     9    10    1
   11     9    11    1
   12     7    12    1
   13    12    13    1
@<TRIPOS>SUBSTRUCTURE
       1 MOL1            1 RESIDUE      1      MOL     
@<SCITEGIC>MOL_PROPERTY
VConf Rank
SciTegic.value.IntegerValue
663

@<SCITEGIC>MOL_PROPERTY
Conf_Id
SciTegic.value.IntegerValue
20

@<SCITEGIC>MOL_PROPERTY
Delta U+W
SciTegic.value.DoubleValue
1.030

@<SCITEGIC>MOL_PROPERTY
U+W
SciTegic.value.DoubleValue
-2.101

@<SCITEGIC>MOL_PROPERTY
Grad RMS
SciTegic.value.DoubleValue
0.000000

@<SCITEGIC>MOL_PROPERTY
U
SciTegic.value.DoubleValue
0.841

@<SCITEGIC>MOL_PROPERTY
W
SciTegic.value.DoubleValue
-2.942

@<SCITEGIC>MOL_PROPERTY
W(PB)
SciTegic.value.DoubleValue
-4.530

@<SCITEGIC>MOL_PROPERTY
W(SA)
SciTegic.value.DoubleValue
1.587

@<SCITEGIC>MOL_PROPERTY
Valence
SciTegic.value.DoubleValue
6.736

@<SCITEGIC>MOL_PROPERTY
Coulomb
SciTegic.value.DoubleValue
-7.246

@<SCITEGIC>MOL_PROPERTY
VdW
SciTegic.value.DoubleValue
1.352

@<SCITEGIC>MOL_PROPERTY
VdW6
SciTegic.value.DoubleValue
-2.500

@<SCITEGIC>MOL_PROPERTY
VdW12
SciTegic.value.DoubleValue
3.851

@<SCITEGIC>MOL_PROPERTY
Bond
SciTegic.value.DoubleValue
0.063

@<SCITEGIC>MOL_PROPERTY
Angle
SciTegic.value.DoubleValue
0.687

@<SCITEGIC>MOL_PROPERTY
Pdih
SciTegic.value.DoubleValue
5.986

@<SCITEGIC>MOL_PROPERTY
Idih
SciTegic.value.DoubleValue
0.000

@<SCITEGIC>MOL_PROPERTY
Tether
SciTegic.value.DoubleValue
0.000

@<TRIPOS>MOLECULE
guest-s16_confgen4.mol2 : confsearch ligand conformer 664
          13          13           1
SMALL
USER_CHARGES
 
@<TRIPOS>ATOM
       1    C1      20.133502   18.035791   21.405030 C.3        1 MOL1        -0.1693
       2    H1      19.508849   17.137979   21.308019 H          1 MOL1         0.0829
       3    H2      21.001852   17.931105   20.743646 H          1 MOL1         0.0829
       4    C2      20.439457   18.463556   22.878382 C.3        1 MOL1        -0.1768
       5    H3      20.521556   17.651380   23.609081 H          1 MOL1         0.0829
       6    H4      21.305233   19.127644   22.991552 H          1 MOL1         0.0829
       7    C3      19.060811   19.188527   22.824435 C.3        1 MOL1         0.1211
       8    H5      18.204925   18.530868   23.028485 H          1 MOL1         0.0786
       9    C4      19.353989   19.388592   21.306813 C.3        1 MOL1        -0.1768
      10    H6      19.977150   20.259436   21.068718 H          1 MOL1         0.0829
      11    H7      18.477454   19.393365   20.649580 H          1 MOL1         0.0829
      12    O1      18.969440   20.370682   23.583367 O.3        1 MOL1        -0.5515
      13    H8      19.754386   20.913912   23.360927 H          1 MOL1         0.3773
@<TRIPOS>BOND
    1     1     2    1
    2     1     3    1
    3     1     4    1
    4     4     5    1
    5     4     6    1
    6     4     7    1
    7     7     8    1
    8     1     9    1
    9     7     9    1
   10     9    10    1
   11     9    11    1
   12     7    12    1
   13    12    13    1
@<TRIPOS>SUBSTRUCTURE
       1 MOL1            1 RESIDUE      1      MOL     
@<SCITEGIC>MOL_PROPERTY
VConf Rank
SciTegic.value.IntegerValue
664

@<SCITEGIC>MOL_PROPERTY
Conf_Id
SciTegic.value.IntegerValue
24

@<SCITEGIC>MOL_PROPERTY
Delta U+W
SciTegic.value.DoubleValue
0.356

@<SCITEGIC>MOL_PROPERTY
U+W
SciTegic.value.DoubleValue
-2.775

@<SCITEGIC>MOL_PROPERTY
Grad RMS
SciTegic.value.DoubleValue
0.000000

@<SCITEGIC>MOL_PROPERTY
U
SciTegic.value.DoubleValue
-0.184

@<SCITEGIC>MOL_PROPERTY
W
SciTegic.value.DoubleValue
-2.591

@<SCITEGIC>MOL_PROPERTY
W(PB)
SciTegic.value.DoubleValue
-4.184

@<SCITEGIC>MOL_PROPERTY
W(SA)
SciTegic.value.DoubleValue
1.593

@<SCITEGIC>MOL_PROPERTY
Valence
SciTegic.value.DoubleValue
6.840

@<SCITEGIC>MOL_PROPERTY
Coulomb
SciTegic.value.DoubleValue
-7.916

@<SCITEGIC>MOL_PROPERTY
VdW
SciTegic.value.DoubleValue
0.893

@<SCITEGIC>MOL_PROPERTY
VdW6
SciTegic.value.DoubleValue
-2.167

@<SCITEGIC>MOL_PROPERTY
VdW12
SciTegic.value.DoubleValue
3.060

@<SCITEGIC>MOL_PROPERTY
Bond
SciTegic.value.DoubleValue
0.059

@<SCITEGIC>MOL_PROPERTY
Angle
SciTegic.value.DoubleValue
0.918

@<SCITEGIC>MOL_PROPERTY
Pdih
SciTegic.value.DoubleValue
5.862

@<SCITEGIC>MOL_PROPERTY
Idih
SciTegic.value.DoubleValue
0.000

@<SCITEGIC>MOL_PROPERTY
Tether
SciTegic.value.DoubleValue
0.000

@<TRIPOS>MOLECULE
guest-s16_confgen4.mol2 : confsearch ligand conformer 665
          13          13           1
SMALL
USER_CHARGES
 
@<TRIPOS>ATOM
       1    C1      20.086588   18.047008   22.717395 C.3        1 MOL1        -0.1693
       2    H1      20.980133   17.495475   23.033246 H          1 MOL1         0.0829
       3    H2      19.200908   17.470534   23.013273 H          1 MOL1         0.0829
       4    C2      20.080680   18.548507   21.234627 C.3        1 MOL1        -0.1768
       5    H3      21.073605   18.780635   20.830610 H          1 MOL1         0.0829
       6    H4      19.550140   17.917152   20.513083 H          1 MOL1         0.0829
       7    C3      19.298512   19.793880   21.755446 C.3        1 MOL1         0.1211
       8    H5      19.543017   20.736365   21.249059 H          1 MOL1         0.0786
       9    C4      20.045454   19.562859   23.105521 C.3        1 MOL1        -0.1768
      10    H6      21.029743   20.043689   23.160220 H          1 MOL1         0.0829
      11    H7      19.484255   19.814409   24.012431 H          1 MOL1         0.0829
      12    O1      17.898273   19.629253   21.818335 O.3        1 MOL1        -0.5515
      13    H8      17.740550   18.778206   22.276763 H          1 MOL1         0.3773
@<TRIPOS>BOND
    1     1     2    1
    2     1     3    1
    3     1     4    1
    4     4     5    1
    5     4     6    1
    6     4     7    1
    7     7     8    1
    8     1     9    1
    9     7     9    1
   10     9    10    1
   11     9    11    1
   12     7    12    1
   13    12    13    1
@<TRIPOS>SUBSTRUCTURE
       1 MOL1            1 RESIDUE      1      MOL     
@<SCITEGIC>MOL_PROPERTY
VConf Rank
SciTegic.value.IntegerValue
665

@<SCITEGIC>MOL_PROPERTY
Conf_Id
SciTegic.value.IntegerValue
44

@<SCITEGIC>MOL_PROPERTY
Delta U+W
SciTegic.value.DoubleValue
0.823

@<SCITEGIC>MOL_PROPERTY
U+W
SciTegic.value.DoubleValue
-2.308

@<SCITEGIC>MOL_PROPERTY
Grad RMS
SciTegic.value.DoubleValue
0.000000

@<SCITEGIC>MOL_PROPERTY
U
SciTegic.value.DoubleValue
0.039

@<SCITEGIC>MOL_PROPERTY
W
SciTegic.value.DoubleValue
-2.348

@<SCITEGIC>MOL_PROPERTY
W(PB)
SciTegic.value.DoubleValue
-3.918

@<SCITEGIC>MOL_PROPERTY
W(SA)
SciTegic.value.DoubleValue
1.571

@<SCITEGIC>MOL_PROPERTY
Valence
SciTegic.value.DoubleValue
7.320

@<SCITEGIC>MOL_PROPERTY
Coulomb
SciTegic.value.DoubleValue
-8.530

@<SCITEGIC>MOL_PROPERTY
VdW
SciTegic.value.DoubleValue
1.249

@<SCITEGIC>MOL_PROPERTY
VdW6
SciTegic.value.DoubleValue
-2.615

@<SCITEGIC>MOL_PROPERTY
VdW12
SciTegic.value.DoubleValue
3.864

@<SCITEGIC>MOL_PROPERTY
Bond
SciTegic.value.DoubleValue
0.056

@<SCITEGIC>MOL_PROPERTY
Angle
SciTegic.value.DoubleValue
0.694

@<SCITEGIC>MOL_PROPERTY
Pdih
SciTegic.value.DoubleValue
6.570

@<SCITEGIC>MOL_PROPERTY
Idih
SciTegic.value.DoubleValue
0.000

@<SCITEGIC>MOL_PROPERTY
Tether
SciTegic.value.DoubleValue
0.000

@<TRIPOS>MOLECULE
guest-s16_confgen4.mol2 : confsearch ligand conformer 666
          13          13           1
SMALL
USER_CHARGES
 
@<TRIPOS>ATOM
       1    C1      20.902651   19.452464   22.031349 C.3        1 MOL1        -0.1693
       2    H1      21.531068   19.440929   22.931652 H          1 MOL1         0.0829
       3    H2      21.518067   19.762456   21.178409 H          1 MOL1         0.0829
       4    C2      19.535147   20.193887   22.197271 C.3        1 MOL1        -0.1768
       5    H3      19.527758   21.047041   22.884319 H          1 MOL1         0.0829
       6    H4      19.057923   20.494419   21.256248 H          1 MOL1         0.0829
       7    C3      19.014580   18.847068   22.783733 C.3        1 MOL1         0.1211
       8    H5      19.245668   18.709162   23.848929 H          1 MOL1         0.0786
       9    C4      20.035405   18.167424   21.821864 C.3        1 MOL1        -0.1768
      10    H6      20.472815   17.227456   22.175848 H          1 MOL1         0.0829
      11    H7      19.670073   18.023296   20.797387 H          1 MOL1         0.0829
      12    O1      17.659737   18.561014   22.524657 O.3        1 MOL1        -0.5515
      13    H8      17.501834   17.631291   22.796477 H          1 MOL1         0.3773
@<TRIPOS>BOND
    1     1     2    1
    2     1     3    1
    3     1     4    1
    4     4     5    1
    5     4     6    1
    6     4     7    1
    7     7     8    1
    8     1     9    1
    9     7     9    1
   10     9    10    1
   11     9    11    1
   12     7    12    1
   13    12    13    1
@<TRIPOS>SUBSTRUCTURE
       1 MOL1            1 RESIDUE      1      MOL     
@<SCITEGIC>MOL_PROPERTY
VConf Rank
SciTegic.value.IntegerValue
666

@<SCITEGIC>MOL_PROPERTY
Conf_Id
SciTegic.value.IntegerValue
22

@<SCITEGIC>MOL_PROPERTY
Delta U+W
SciTegic.value.DoubleValue
0.000

@<SCITEGIC>MOL_PROPERTY
U+W
SciTegic.value.DoubleValue
-3.131

@<SCITEGIC>MOL_PROPERTY
Grad RMS
SciTegic.value.DoubleValue
0.000000

@<SCITEGIC>MOL_PROPERTY
U
SciTegic.value.DoubleValue
-0.154

@<SCITEGIC>MOL_PROPERTY
W
SciTegic.value.DoubleValue
-2.978

@<SCITEGIC>MOL_PROPERTY
W(PB)
SciTegic.value.DoubleValue
-4.579

@<SCITEGIC>MOL_PROPERTY
W(SA)
SciTegic.value.DoubleValue
1.601

@<SCITEGIC>MOL_PROPERTY
Valence
SciTegic.value.DoubleValue
6.333

@<SCITEGIC>MOL_PROPERTY
Coulomb
SciTegic.value.DoubleValue
-7.439

@<SCITEGIC>MOL_PROPERTY
VdW
SciTegic.value.DoubleValue
0.952

@<SCITEGIC>MOL_PROPERTY
VdW6
SciTegic.value.DoubleValue
-2.120

@<SCITEGIC>MOL_PROPERTY
VdW12
SciTegic.value.DoubleValue
3.072

@<SCITEGIC>MOL_PROPERTY
Bond
SciTegic.value.DoubleValue
0.065

@<SCITEGIC>MOL_PROPERTY
Angle
SciTegic.value.DoubleValue
0.931

@<SCITEGIC>MOL_PROPERTY
Pdih
SciTegic.value.DoubleValue
5.338

@<SCITEGIC>MOL_PROPERTY
Idih
SciTegic.value.DoubleValue
0.000

@<SCITEGIC>MOL_PROPERTY
Tether
SciTegic.value.DoubleValue
0.000

@<TRIPOS>MOLECULE
guest-s16_confgen4.mol2 : confsearch ligand conformer 667
          13          13           1
SMALL
USER_CHARGES
 
@<TRIPOS>ATOM
       1    C1      19.999098   19.705225   23.244427 C.3        1 MOL1        -0.1693
       2    H1      20.936384   20.244401   23.053714 H          1 MOL1         0.0829
       3    H2      19.659980   19.940488   24.260295 H          1 MOL1         0.0829
       4    C2      20.027441   18.188156   22.863602 C.3        1 MOL1        -0.1768
       5    H3      19.245322   17.582127   23.337745 H          1 MOL1         0.0829
       6    H4      20.989826   17.678699   22.983775 H          1 MOL1         0.0829
       7    C3      19.688237   18.669047   21.420384 C.3        1 MOL1         0.1211
       8    H5      20.563697   18.993169   20.841094 H          1 MOL1         0.0786
       9    C4      18.925985   19.838163   22.113914 C.3        1 MOL1        -0.1768
      10    H6      17.901608   19.593704   22.421284 H          1 MOL1         0.0829
      11    H7      18.913060   20.788120   21.568592 H          1 MOL1         0.0829
      12    O1      18.885969   17.791003   20.665431 O.3        1 MOL1        -0.5515
      13    H8      19.445493   17.022079   20.422752 H          1 MOL1         0.3773
@<TRIPOS>BOND
    1     1     2    1
    2     1     3    1
    3     1     4    1
    4     4     5    1
    5     4     6    1
    6     4     7    1
    7     7     8    1
    8     1     9    1
    9     7     9    1
   10     9    10    1
   11     9    11    1
   12     7    12    1
   13    12    13    1
@<TRIPOS>SUBSTRUCTURE
       1 MOL1            1 RESIDUE      1      MOL     
@<SCITEGIC>MOL_PROPERTY
VConf Rank
SciTegic.value.IntegerValue
667

@<SCITEGIC>MOL_PROPERTY
Conf_Id
SciTegic.value.IntegerValue
19

@<SCITEGIC>MOL_PROPERTY
Delta U+W
SciTegic.value.DoubleValue
-0.011

@<SCITEGIC>MOL_PROPERTY
U+W
SciTegic.value.DoubleValue
-3.142

@<SCITEGIC>MOL_PROPERTY
Grad RMS
SciTegic.value.DoubleValue
0.000000

@<SCITEGIC>MOL_PROPERTY
U
SciTegic.value.DoubleValue
-0.154

@<SCITEGIC>MOL_PROPERTY
W
SciTegic.value.DoubleValue
-2.989

@<SCITEGIC>MOL_PROPERTY
W(PB)
SciTegic.value.DoubleValue
-4.588

@<SCITEGIC>MOL_PROPERTY
W(SA)
SciTegic.value.DoubleValue
1.599

@<SCITEGIC>MOL_PROPERTY
Valence
SciTegic.value.DoubleValue
6.334

@<SCITEGIC>MOL_PROPERTY
Coulomb
SciTegic.value.DoubleValue
-7.439

@<SCITEGIC>MOL_PROPERTY
VdW
SciTegic.value.DoubleValue
0.951

@<SCITEGIC>MOL_PROPERTY
VdW6
SciTegic.value.DoubleValue
-2.120

@<SCITEGIC>MOL_PROPERTY
VdW12
SciTegic.value.DoubleValue
3.072

@<SCITEGIC>MOL_PROPERTY
Bond
SciTegic.value.DoubleValue
0.065

@<SCITEGIC>MOL_PROPERTY
Angle
SciTegic.value.DoubleValue
0.930

@<SCITEGIC>MOL_PROPERTY
Pdih
SciTegic.value.DoubleValue
5.339

@<SCITEGIC>MOL_PROPERTY
Idih
SciTegic.value.DoubleValue
0.000

@<SCITEGIC>MOL_PROPERTY
Tether
SciTegic.value.DoubleValue
0.000

@<TRIPOS>MOLECULE
guest-s16_confgen4.mol2 : confsearch ligand conformer 668
          13          13           1
SMALL
USER_CHARGES
 
@<TRIPOS>ATOM
       1    C1      19.194033   17.995663   22.733829 C.3        1 MOL1        -0.1693
       2    H1      19.459451   17.021150   23.160273 H          1 MOL1         0.0829
       3    H2      18.102618   18.108746   22.768941 H          1 MOL1         0.0829
       4    C2      19.838532   18.340239   21.350045 C.3        1 MOL1        -0.1768
       5    H3      20.829634   17.899752   21.187401 H          1 MOL1         0.0829
       6    H4      19.218679   18.143733   20.468250 H          1 MOL1         0.0829
       7    C3      19.869793   19.821470   21.840357 C.3        1 MOL1         0.1211
       8    H5      20.742501   20.395987   21.504019 H          1 MOL1         0.0786
       9    C4      19.993271   19.226095   23.277847 C.3        1 MOL1        -0.1768
      10    H6      19.509289   19.797882   24.077330 H          1 MOL1         0.0829
      11    H7      21.022174   18.999991   23.583149 H          1 MOL1         0.0829
      12    O1      18.685443   20.553711   21.596877 O.3        1 MOL1        -0.5515
      13    H8      18.756270   21.395277   22.095781 H          1 MOL1         0.3773
@<TRIPOS>BOND
    1     1     2    1
    2     1     3    1
    3     1     4    1
    4     4     5    1
    5     4     6    1
    6     4     7    1
    7     7     8    1
    8     1     9    1
    9     7     9    1
   10     9    10    1
   11     9    11    1
   12     7    12    1
   13    12    13    1
@<TRIPOS>SUBSTRUCTURE
       1 MOL1            1 RESIDUE      1      MOL     
@<SCITEGIC>MOL_PROPERTY
VConf Rank
SciTegic.value.IntegerValue
668

@<SCITEGIC>MOL_PROPERTY
Conf_Id
SciTegic.value.IntegerValue
20

@<SCITEGIC>MOL_PROPERTY
Delta U+W
SciTegic.value.DoubleValue
1.030

@<SCITEGIC>MOL_PROPERTY
U+W
SciTegic.value.DoubleValue
-2.101

@<SCITEGIC>MOL_PROPERTY
Grad RMS
SciTegic.value.DoubleValue
0.000000

@<SCITEGIC>MOL_PROPERTY
U
SciTegic.value.DoubleValue
0.841

@<SCITEGIC>MOL_PROPERTY
W
SciTegic.value.DoubleValue
-2.942

@<SCITEGIC>MOL_PROPERTY
W(PB)
SciTegic.value.DoubleValue
-4.530

@<SCITEGIC>MOL_PROPERTY
W(SA)
SciTegic.value.DoubleValue
1.587

@<SCITEGIC>MOL_PROPERTY
Valence
SciTegic.value.DoubleValue
6.736

@<SCITEGIC>MOL_PROPERTY
Coulomb
SciTegic.value.DoubleValue
-7.246

@<SCITEGIC>MOL_PROPERTY
VdW
SciTegic.value.DoubleValue
1.352

@<SCITEGIC>MOL_PROPERTY
VdW6
SciTegic.value.DoubleValue
-2.500

@<SCITEGIC>MOL_PROPERTY
VdW12
SciTegic.value.DoubleValue
3.851

@<SCITEGIC>MOL_PROPERTY
Bond
SciTegic.value.DoubleValue
0.063

@<SCITEGIC>MOL_PROPERTY
Angle
SciTegic.value.DoubleValue
0.687

@<SCITEGIC>MOL_PROPERTY
Pdih
SciTegic.value.DoubleValue
5.986

@<SCITEGIC>MOL_PROPERTY
Idih
SciTegic.value.DoubleValue
0.000

@<SCITEGIC>MOL_PROPERTY
Tether
SciTegic.value.DoubleValue
0.000

@<TRIPOS>MOLECULE
guest-s16_confgen4.mol2 : confsearch ligand conformer 669
          13          13           1
SMALL
USER_CHARGES
 
@<TRIPOS>ATOM
       1    C1      20.176988   18.194313   23.151140 C.3        1 MOL1        -0.1693
       2    H1      21.073320   17.590804   22.956114 H          1 MOL1         0.0829
       3    H2      19.835426   17.993343   24.173573 H          1 MOL1         0.0829
       4    C2      19.083721   18.121303   22.034541 C.3        1 MOL1        -0.1768
       5    H3      19.002961   17.168156   21.500425 H          1 MOL1         0.0829
       6    H4      18.081353   18.431349   22.354725 H          1 MOL1         0.0829
       7    C3      19.914672   19.229318   21.319713 C.3        1 MOL1         0.1211
       8    H5      20.760033   18.842513   20.734529 H          1 MOL1         0.0786
       9    C4      20.304209   19.701831   22.752942 C.3        1 MOL1        -0.1768
      10    H6      19.574635   20.365144   23.233699 H          1 MOL1         0.0829
      11    H7      21.301325   20.144532   22.853283 H          1 MOL1         0.0829
      12    O1      19.167588   20.150770   20.561682 O.3        1 MOL1        -0.5515
      13    H8      18.432372   20.459462   21.131670 H          1 MOL1         0.3773
@<TRIPOS>BOND
    1     1     2    1
    2     1     3    1
    3     1     4    1
    4     4     5    1
    5     4     6    1
    6     4     7    1
    7     7     8    1
    8     1     9    1
    9     7     9    1
   10     9    10    1
   11     9    11    1
   12     7    12    1
   13    12    13    1
@<TRIPOS>SUBSTRUCTURE
       1 MOL1            1 RESIDUE      1      MOL     
@<SCITEGIC>MOL_PROPERTY
VConf Rank
SciTegic.value.IntegerValue
669

@<SCITEGIC>MOL_PROPERTY
Conf_Id
SciTegic.value.IntegerValue
24

@<SCITEGIC>MOL_PROPERTY
Delta U+W
SciTegic.value.DoubleValue
0.356

@<SCITEGIC>MOL_PROPERTY
U+W
SciTegic.value.DoubleValue
-2.775

@<SCITEGIC>MOL_PROPERTY
Grad RMS
SciTegic.value.DoubleValue
0.000000

@<SCITEGIC>MOL_PROPERTY
U
SciTegic.value.DoubleValue
-0.184

@<SCITEGIC>MOL_PROPERTY
W
SciTegic.value.DoubleValue
-2.591

@<SCITEGIC>MOL_PROPERTY
W(PB)
SciTegic.value.DoubleValue
-4.184

@<SCITEGIC>MOL_PROPERTY
W(SA)
SciTegic.value.DoubleValue
1.593

@<SCITEGIC>MOL_PROPERTY
Valence
SciTegic.value.DoubleValue
6.840

@<SCITEGIC>MOL_PROPERTY
Coulomb
SciTegic.value.DoubleValue
-7.916

@<SCITEGIC>MOL_PROPERTY
VdW
SciTegic.value.DoubleValue
0.893

@<SCITEGIC>MOL_PROPERTY
VdW6
SciTegic.value.DoubleValue
-2.167

@<SCITEGIC>MOL_PROPERTY
VdW12
SciTegic.value.DoubleValue
3.060

@<SCITEGIC>MOL_PROPERTY
Bond
SciTegic.value.DoubleValue
0.059

@<SCITEGIC>MOL_PROPERTY
Angle
SciTegic.value.DoubleValue
0.918

@<SCITEGIC>MOL_PROPERTY
Pdih
SciTegic.value.DoubleValue
5.862

@<SCITEGIC>MOL_PROPERTY
Idih
SciTegic.value.DoubleValue
0.000

@<SCITEGIC>MOL_PROPERTY
Tether
SciTegic.value.DoubleValue
0.000

@<TRIPOS>MOLECULE
guest-s16_confgen4.mol2 : confsearch ligand conformer 670
          13          13           1
SMALL
USER_CHARGES
 
@<TRIPOS>ATOM
       1    C1      20.009552   18.161158   22.923886 C.3        1 MOL1        -0.1693
       2    H1      19.763496   17.612995   23.841136 H          1 MOL1         0.0829
       3    H2      20.954014   17.767213   22.527535 H          1 MOL1         0.0829
       4    C2      19.935240   19.721805   23.018731 C.3        1 MOL1        -0.1768
       5    H3      19.192262   20.097729   23.732650 H          1 MOL1         0.0829
       6    H4      20.883606   20.240758   23.197606 H          1 MOL1         0.0829
       7    C3      19.440358   19.696465   21.539393 C.3        1 MOL1         0.1211
       8    H5      18.691013   20.458921   21.291141 H          1 MOL1         0.0786
       9    C4      18.856597   18.288632   21.872895 C.3        1 MOL1        -0.1768
      10    H6      17.849153   18.313163   22.305873 H          1 MOL1         0.0829
      11    H7      18.866096   17.560130   21.054420 H          1 MOL1         0.0829
      12    O1      20.467734   19.696837   20.571805 O.3        1 MOL1        -0.5515
      13    H8      21.102739   19.002165   20.842937 H          1 MOL1         0.3773
@<TRIPOS>BOND
    1     1     2    1
    2     1     3    1
    3     1     4    1
    4     4     5    1
    5     4     6    1
    6     4     7    1
    7     7     8    1
    8     1     9    1
    9     7     9    1
   10     9    10    1
   11     9    11    1
   12     7    12    1
   13    12    13    1
@<TRIPOS>SUBSTRUCTURE
       1 MOL1            1 RESIDUE      1      MOL     
@<SCITEGIC>MOL_PROPERTY
VConf Rank
SciTegic.value.IntegerValue
670

@<SCITEGIC>MOL_PROPERTY
Conf_Id
SciTegic.value.IntegerValue
44

@<SCITEGIC>MOL_PROPERTY
Delta U+W
SciTegic.value.DoubleValue
0.823

@<SCITEGIC>MOL_PROPERTY
U+W
SciTegic.value.DoubleValue
-2.308

@<SCITEGIC>MOL_PROPERTY
Grad RMS
SciTegic.value.DoubleValue
0.000000

@<SCITEGIC>MOL_PROPERTY
U
SciTegic.value.DoubleValue
0.039

@<SCITEGIC>MOL_PROPERTY
W
SciTegic.value.DoubleValue
-2.348

@<SCITEGIC>MOL_PROPERTY
W(PB)
SciTegic.value.DoubleValue
-3.918

@<SCITEGIC>MOL_PROPERTY
W(SA)
SciTegic.value.DoubleValue
1.571

@<SCITEGIC>MOL_PROPERTY
Valence
SciTegic.value.DoubleValue
7.320

@<SCITEGIC>MOL_PROPERTY
Coulomb
SciTegic.value.DoubleValue
-8.530

@<SCITEGIC>MOL_PROPERTY
VdW
SciTegic.value.DoubleValue
1.249

@<SCITEGIC>MOL_PROPERTY
VdW6
SciTegic.value.DoubleValue
-2.615

@<SCITEGIC>MOL_PROPERTY
VdW12
SciTegic.value.DoubleValue
3.864

@<SCITEGIC>MOL_PROPERTY
Bond
SciTegic.value.DoubleValue
0.056

@<SCITEGIC>MOL_PROPERTY
Angle
SciTegic.value.DoubleValue
0.694

@<SCITEGIC>MOL_PROPERTY
Pdih
SciTegic.value.DoubleValue
6.570

@<SCITEGIC>MOL_PROPERTY
Idih
SciTegic.value.DoubleValue
0.000

@<SCITEGIC>MOL_PROPERTY
Tether
SciTegic.value.DoubleValue
0.000

@<TRIPOS>MOLECULE
guest-s16_confgen4.mol2 : confsearch ligand conformer 671
          13          13           1
SMALL
USER_CHARGES
 
@<TRIPOS>ATOM
       1    C1      18.362540   19.155039   22.411958 C.3        1 MOL1        -0.1693
       2    H1      18.073661   19.998063   23.053399 H          1 MOL1         0.0829
       3    H2      17.452321   18.667931   22.042412 H          1 MOL1         0.0829
       4    C2      19.447930   18.209076   23.023833 C.3        1 MOL1        -0.1768
       5    H3      19.427721   18.090269   24.112610 H          1 MOL1         0.0829
       6    H4      19.505677   17.215874   22.561448 H          1 MOL1         0.0829
       7    C3      20.480715   19.238355   22.473571 C.3        1 MOL1         0.1211
       8    H5      20.639329   20.102421   23.133339 H          1 MOL1         0.0786
       9    C4      19.446465   19.492778   21.335683 C.3        1 MOL1        -0.1768
      10    H6      19.422739   20.510190   20.930119 H          1 MOL1         0.0829
      11    H7      19.501629   18.781451   20.502157 H          1 MOL1         0.0829
      12    O1      21.711624   18.693264   22.058499 O.3        1 MOL1        -0.5515
      13    H8      22.200378   19.403195   21.589116 H          1 MOL1         0.3773
@<TRIPOS>BOND
    1     1     2    1
    2     1     3    1
    3     1     4    1
    4     4     5    1
    5     4     6    1
    6     4     7    1
    7     7     8    1
    8     1     9    1
    9     7     9    1
   10     9    10    1
   11     9    11    1
   12     7    12    1
   13    12    13    1
@<TRIPOS>SUBSTRUCTURE
       1 MOL1            1 RESIDUE      1      MOL     
@<SCITEGIC>MOL_PROPERTY
VConf Rank
SciTegic.value.IntegerValue
671

@<SCITEGIC>MOL_PROPERTY
Conf_Id
SciTegic.value.IntegerValue
22

@<SCITEGIC>MOL_PROPERTY
Delta U+W
SciTegic.value.DoubleValue
0.000

@<SCITEGIC>MOL_PROPERTY
U+W
SciTegic.value.DoubleValue
-3.131

@<SCITEGIC>MOL_PROPERTY
Grad RMS
SciTegic.value.DoubleValue
0.000000

@<SCITEGIC>MOL_PROPERTY
U
SciTegic.value.DoubleValue
-0.154

@<SCITEGIC>MOL_PROPERTY
W
SciTegic.value.DoubleValue
-2.978

@<SCITEGIC>MOL_PROPERTY
W(PB)
SciTegic.value.DoubleValue
-4.579

@<SCITEGIC>MOL_PROPERTY
W(SA)
SciTegic.value.DoubleValue
1.601

@<SCITEGIC>MOL_PROPERTY
Valence
SciTegic.value.DoubleValue
6.333

@<SCITEGIC>MOL_PROPERTY
Coulomb
SciTegic.value.DoubleValue
-7.439

@<SCITEGIC>MOL_PROPERTY
VdW
SciTegic.value.DoubleValue
0.952

@<SCITEGIC>MOL_PROPERTY
VdW6
SciTegic.value.DoubleValue
-2.120

@<SCITEGIC>MOL_PROPERTY
VdW12
SciTegic.value.DoubleValue
3.072

@<SCITEGIC>MOL_PROPERTY
Bond
SciTegic.value.DoubleValue
0.065

@<SCITEGIC>MOL_PROPERTY
Angle
SciTegic.value.DoubleValue
0.931

@<SCITEGIC>MOL_PROPERTY
Pdih
SciTegic.value.DoubleValue
5.338

@<SCITEGIC>MOL_PROPERTY
Idih
SciTegic.value.DoubleValue
0.000

@<SCITEGIC>MOL_PROPERTY
Tether
SciTegic.value.DoubleValue
0.000

@<TRIPOS>MOLECULE
guest-s16_confgen4.mol2 : confsearch ligand conformer 672
          13          13           1
SMALL
USER_CHARGES
 
@<TRIPOS>ATOM
       1    C1      20.139158   17.711297   22.164509 C.3        1 MOL1        -0.1693
       2    H1      20.240638   17.214007   23.138157 H          1 MOL1         0.0829
       3    H2      20.550528   17.052864   21.390184 H          1 MOL1         0.0829
       4    C2      20.628347   19.196928   22.134080 C.3        1 MOL1        -0.1768
       5    H3      20.838456   19.589597   21.131354 H          1 MOL1         0.0829
       6    H4      21.469623   19.441179   22.791932 H          1 MOL1         0.0829
       7    C3      19.212180   19.546898   22.682885 C.3        1 MOL1         0.1211
       8    H5      19.115746   19.435166   23.771589 H          1 MOL1         0.0786
       9    C4      18.720856   18.306021   21.878106 C.3        1 MOL1        -0.1768
      10    H6      18.510768   18.504821   20.819841 H          1 MOL1         0.0829
      11    H7      17.872732   17.763616   22.309898 H          1 MOL1         0.0829
      12    O1      18.690426   20.784860   22.258890 O.3        1 MOL1        -0.5515
      13    H8      19.192640   21.487128   22.725585 H          1 MOL1         0.3773
@<TRIPOS>BOND
    1     1     2    1
    2     1     3    1
    3     1     4    1
    4     4     5    1
    5     4     6    1
    6     4     7    1
    7     7     8    1
    8     1     9    1
    9     7     9    1
   10     9    10    1
   11     9    11    1
   12     7    12    1
   13    12    13    1
@<TRIPOS>SUBSTRUCTURE
       1 MOL1            1 RESIDUE      1      MOL     
@<SCITEGIC>MOL_PROPERTY
VConf Rank
SciTegic.value.IntegerValue
672

@<SCITEGIC>MOL_PROPERTY
Conf_Id
SciTegic.value.IntegerValue
19

@<SCITEGIC>MOL_PROPERTY
Delta U+W
SciTegic.value.DoubleValue
-0.011

@<SCITEGIC>MOL_PROPERTY
U+W
SciTegic.value.DoubleValue
-3.142

@<SCITEGIC>MOL_PROPERTY
Grad RMS
SciTegic.value.DoubleValue
0.000000

@<SCITEGIC>MOL_PROPERTY
U
SciTegic.value.DoubleValue
-0.154

@<SCITEGIC>MOL_PROPERTY
W
SciTegic.value.DoubleValue
-2.989

@<SCITEGIC>MOL_PROPERTY
W(PB)
SciTegic.value.DoubleValue
-4.588

@<SCITEGIC>MOL_PROPERTY
W(SA)
SciTegic.value.DoubleValue
1.599

@<SCITEGIC>MOL_PROPERTY
Valence
SciTegic.value.DoubleValue
6.334

@<SCITEGIC>MOL_PROPERTY
Coulomb
SciTegic.value.DoubleValue
-7.439

@<SCITEGIC>MOL_PROPERTY
VdW
SciTegic.value.DoubleValue
0.951

@<SCITEGIC>MOL_PROPERTY
VdW6
SciTegic.value.DoubleValue
-2.120

@<SCITEGIC>MOL_PROPERTY
VdW12
SciTegic.value.DoubleValue
3.072

@<SCITEGIC>MOL_PROPERTY
Bond
SciTegic.value.DoubleValue
0.065

@<SCITEGIC>MOL_PROPERTY
Angle
SciTegic.value.DoubleValue
0.930

@<SCITEGIC>MOL_PROPERTY
Pdih
SciTegic.value.DoubleValue
5.339

@<SCITEGIC>MOL_PROPERTY
Idih
SciTegic.value.DoubleValue
0.000

@<SCITEGIC>MOL_PROPERTY
Tether
SciTegic.value.DoubleValue
0.000

@<TRIPOS>MOLECULE
guest-s16_confgen4.mol2 : confsearch ligand conformer 673
          13          13           1
SMALL
USER_CHARGES
 
@<TRIPOS>ATOM
       1    C1      20.310092   18.709072   23.249598 C.3        1 MOL1        -0.1693
       2    H1      20.654729   17.858595   23.849506 H          1 MOL1         0.0829
       3    H2      20.801665   19.619580   23.616391 H          1 MOL1         0.0829
       4    C2      18.761682   18.837254   23.062596 C.3        1 MOL1        -0.1768
       5    H3      18.223585   17.881657   23.055418 H          1 MOL1         0.0829
       6    H4      18.249487   19.522751   23.746805 H          1 MOL1         0.0829
       7    C3      19.075638   19.404938   21.643231 C.3        1 MOL1         0.1211
       8    H5      18.354090   19.119521   20.866882 H          1 MOL1         0.0786
       9    C4      20.361865   18.522416   21.696800 C.3        1 MOL1        -0.1768
      10    H6      21.245158   18.930423   21.193137 H          1 MOL1         0.0829
      11    H7      20.212136   17.489877   21.358543 H          1 MOL1         0.0829
      12    O1      19.308855   20.798396   21.598177 O.3        1 MOL1        -0.5515
      13    H8      19.662704   21.005218   20.707015 H          1 MOL1         0.3773
@<TRIPOS>BOND
    1     1     2    1
    2     1     3    1
    3     1     4    1
    4     4     5    1
    5     4     6    1
    6     4     7    1
    7     7     8    1
    8     1     9    1
    9     7     9    1
   10     9    10    1
   11     9    11    1
   12     7    12    1
   13    12    13    1
@<TRIPOS>SUBSTRUCTURE
       1 MOL1            1 RESIDUE      1      MOL     
@<SCITEGIC>MOL_PROPERTY
VConf Rank
SciTegic.value.IntegerValue
673

@<SCITEGIC>MOL_PROPERTY
Conf_Id
SciTegic.value.IntegerValue
20

@<SCITEGIC>MOL_PROPERTY
Delta U+W
SciTegic.value.DoubleValue
1.030

@<SCITEGIC>MOL_PROPERTY
U+W
SciTegic.value.DoubleValue
-2.101

@<SCITEGIC>MOL_PROPERTY
Grad RMS
SciTegic.value.DoubleValue
0.000000

@<SCITEGIC>MOL_PROPERTY
U
SciTegic.value.DoubleValue
0.841

@<SCITEGIC>MOL_PROPERTY
W
SciTegic.value.DoubleValue
-2.942

@<SCITEGIC>MOL_PROPERTY
W(PB)
SciTegic.value.DoubleValue
-4.530

@<SCITEGIC>MOL_PROPERTY
W(SA)
SciTegic.value.DoubleValue
1.587

@<SCITEGIC>MOL_PROPERTY
Valence
SciTegic.value.DoubleValue
6.736

@<SCITEGIC>MOL_PROPERTY
Coulomb
SciTegic.value.DoubleValue
-7.246

@<SCITEGIC>MOL_PROPERTY
VdW
SciTegic.value.DoubleValue
1.352

@<SCITEGIC>MOL_PROPERTY
VdW6
SciTegic.value.DoubleValue
-2.500

@<SCITEGIC>MOL_PROPERTY
VdW12
SciTegic.value.DoubleValue
3.851

@<SCITEGIC>MOL_PROPERTY
Bond
SciTegic.value.DoubleValue
0.063

@<SCITEGIC>MOL_PROPERTY
Angle
SciTegic.value.DoubleValue
0.687

@<SCITEGIC>MOL_PROPERTY
Pdih
SciTegic.value.DoubleValue
5.986

@<SCITEGIC>MOL_PROPERTY
Idih
SciTegic.value.DoubleValue
0.000

@<SCITEGIC>MOL_PROPERTY
Tether
SciTegic.value.DoubleValue
0.000

@<TRIPOS>MOLECULE
guest-s16_confgen4.mol2 : confsearch ligand conformer 674
          13          13           1
SMALL
USER_CHARGES
 
@<TRIPOS>ATOM
       1    C1      19.509744   20.190284   22.449744 C.3        1 MOL1        -0.1693
       2    H1      18.665915   20.662450   21.929474 H          1 MOL1         0.0829
       3    H2      19.985468   20.938088   23.095421 H          1 MOL1         0.0829
       4    C2      20.469515   19.368383   21.527423 C.3        1 MOL1        -0.1768
       5    H3      20.589004   19.739252   20.503474 H          1 MOL1         0.0829
       6    H4      21.463472   19.181505   21.952292 H          1 MOL1         0.0829
       7    C3      19.449614   18.204198   21.710813 C.3        1 MOL1         0.1211
       8    H5      18.588525   18.256889   21.030782 H          1 MOL1         0.0786
       9    C4      19.178940   18.815390   23.118767 C.3        1 MOL1        -0.1768
      10    H6      19.884438   18.504911   23.899321 H          1 MOL1         0.0829
      11    H7      18.158657   18.697879   23.500217 H          1 MOL1         0.0829
      12    O1      20.003246   16.909861   21.710025 O.3        1 MOL1        -0.5515
      13    H8      20.762065   16.923747   22.330283 H          1 MOL1         0.3773
@<TRIPOS>BOND
    1     1     2    1
    2     1     3    1
    3     1     4    1
    4     4     5    1
    5     4     6    1
    6     4     7    1
    7     7     8    1
    8     1     9    1
    9     7     9    1
   10     9    10    1
   11     9    11    1
   12     7    12    1
   13    12    13    1
@<TRIPOS>SUBSTRUCTURE
       1 MOL1            1 RESIDUE      1      MOL     
@<SCITEGIC>MOL_PROPERTY
VConf Rank
SciTegic.value.IntegerValue
674

@<SCITEGIC>MOL_PROPERTY
Conf_Id
SciTegic.value.IntegerValue
24

@<SCITEGIC>MOL_PROPERTY
Delta U+W
SciTegic.value.DoubleValue
0.356

@<SCITEGIC>MOL_PROPERTY
U+W
SciTegic.value.DoubleValue
-2.775

@<SCITEGIC>MOL_PROPERTY
Grad RMS
SciTegic.value.DoubleValue
0.000000

@<SCITEGIC>MOL_PROPERTY
U
SciTegic.value.DoubleValue
-0.184

@<SCITEGIC>MOL_PROPERTY
W
SciTegic.value.DoubleValue
-2.591

@<SCITEGIC>MOL_PROPERTY
W(PB)
SciTegic.value.DoubleValue
-4.184

@<SCITEGIC>MOL_PROPERTY
W(SA)
SciTegic.value.DoubleValue
1.593

@<SCITEGIC>MOL_PROPERTY
Valence
SciTegic.value.DoubleValue
6.840

@<SCITEGIC>MOL_PROPERTY
Coulomb
SciTegic.value.DoubleValue
-7.916

@<SCITEGIC>MOL_PROPERTY
VdW
SciTegic.value.DoubleValue
0.893

@<SCITEGIC>MOL_PROPERTY
VdW6
SciTegic.value.DoubleValue
-2.167

@<SCITEGIC>MOL_PROPERTY
VdW12
SciTegic.value.DoubleValue
3.060

@<SCITEGIC>MOL_PROPERTY
Bond
SciTegic.value.DoubleValue
0.059

@<SCITEGIC>MOL_PROPERTY
Angle
SciTegic.value.DoubleValue
0.918

@<SCITEGIC>MOL_PROPERTY
Pdih
SciTegic.value.DoubleValue
5.862

@<SCITEGIC>MOL_PROPERTY
Idih
SciTegic.value.DoubleValue
0.000

@<SCITEGIC>MOL_PROPERTY
Tether
SciTegic.value.DoubleValue
0.000

@<TRIPOS>MOLECULE
guest-s16_confgen4.mol2 : confsearch ligand conformer 675
          13          13           1
SMALL
USER_CHARGES
 
@<TRIPOS>ATOM
       1    C1      18.586059   19.136453   22.096507 C.3        1 MOL1        -0.1693
       2    H1      17.761523   19.314505   21.395927 H          1 MOL1         0.0829
       3    H2      18.175639   19.104249   23.113765 H          1 MOL1         0.0829
       4    C2      19.842256   20.053879   21.922045 C.3        1 MOL1        -0.1768
       5    H3      20.022906   20.384090   20.891830 H          1 MOL1         0.0829
       6    H4      19.898740   20.926568   22.582297 H          1 MOL1         0.0829
       7    C3      20.691034   18.817500   22.352086 C.3        1 MOL1         0.1211
       8    H5      21.660590   18.725759   21.846090 H          1 MOL1         0.0786
       9    C4      19.546659   17.954231   21.736321 C.3        1 MOL1        -0.1768
      10    H6      19.654831   17.769639   20.660570 H          1 MOL1         0.0829
      11    H7      19.345849   16.999355   22.234914 H          1 MOL1         0.0829
      12    O1      20.858449   18.670663   23.745692 O.3        1 MOL1        -0.5515
      13    H8      19.967324   18.761083   24.141966 H          1 MOL1         0.3773
@<TRIPOS>BOND
    1     1     2    1
    2     1     3    1
    3     1     4    1
    4     4     5    1
    5     4     6    1
    6     4     7    1
    7     7     8    1
    8     1     9    1
    9     7     9    1
   10     9    10    1
   11     9    11    1
   12     7    12    1
   13    12    13    1
@<TRIPOS>SUBSTRUCTURE
       1 MOL1            1 RESIDUE      1      MOL     
@<SCITEGIC>MOL_PROPERTY
VConf Rank
SciTegic.value.IntegerValue
675

@<SCITEGIC>MOL_PROPERTY
Conf_Id
SciTegic.value.IntegerValue
44

@<SCITEGIC>MOL_PROPERTY
Delta U+W
SciTegic.value.DoubleValue
0.823

@<SCITEGIC>MOL_PROPERTY
U+W
SciTegic.value.DoubleValue
-2.308

@<SCITEGIC>MOL_PROPERTY
Grad RMS
SciTegic.value.DoubleValue
0.000000

@<SCITEGIC>MOL_PROPERTY
U
SciTegic.value.DoubleValue
0.039

@<SCITEGIC>MOL_PROPERTY
W
SciTegic.value.DoubleValue
-2.348

@<SCITEGIC>MOL_PROPERTY
W(PB)
SciTegic.value.DoubleValue
-3.918

@<SCITEGIC>MOL_PROPERTY
W(SA)
SciTegic.value.DoubleValue
1.571

@<SCITEGIC>MOL_PROPERTY
Valence
SciTegic.value.DoubleValue
7.320

@<SCITEGIC>MOL_PROPERTY
Coulomb
SciTegic.value.DoubleValue
-8.530

@<SCITEGIC>MOL_PROPERTY
VdW
SciTegic.value.DoubleValue
1.249

@<SCITEGIC>MOL_PROPERTY
VdW6
SciTegic.value.DoubleValue
-2.615

@<SCITEGIC>MOL_PROPERTY
VdW12
SciTegic.value.DoubleValue
3.864

@<SCITEGIC>MOL_PROPERTY
Bond
SciTegic.value.DoubleValue
0.056

@<SCITEGIC>MOL_PROPERTY
Angle
SciTegic.value.DoubleValue
0.694

@<SCITEGIC>MOL_PROPERTY
Pdih
SciTegic.value.DoubleValue
6.570

@<SCITEGIC>MOL_PROPERTY
Idih
SciTegic.value.DoubleValue
0.000

@<SCITEGIC>MOL_PROPERTY
Tether
SciTegic.value.DoubleValue
0.000

@<TRIPOS>MOLECULE
guest-s16_confgen4.mol2 : confsearch ligand conformer 676
          13          13           1
SMALL
USER_CHARGES
 
@<TRIPOS>ATOM
       1    C1      20.560754   18.603955   21.382255 C.3        1 MOL1        -0.1693
       2    H1      20.139844   17.931152   20.623469 H          1 MOL1         0.0829
       3    H2      21.623590   18.759399   21.161905 H          1 MOL1         0.0829
       4    C2      20.213982   18.222966   22.859382 C.3        1 MOL1        -0.1768
       5    H3      20.107419   17.153419   23.070746 H          1 MOL1         0.0829
       6    H4      20.872163   18.668319   23.615718 H          1 MOL1         0.0829
       7    C3      18.885573   19.002069   22.620267 C.3        1 MOL1         0.1211
       8    H5      18.107658   18.408253   22.120975 H          1 MOL1         0.0786
       9    C4      19.719031   19.894733   21.651922 C.3        1 MOL1        -0.1768
      10    H6      19.176097   20.304545   20.793173 H          1 MOL1         0.0829
      11    H7      20.270334   20.707131   22.141685 H          1 MOL1         0.0829
      12    O1      18.363090   19.662541   23.749574 O.3        1 MOL1        -0.5515
      13    H8      17.633192   20.239425   23.437071 H          1 MOL1         0.3773
@<TRIPOS>BOND
    1     1     2    1
    2     1     3    1
    3     1     4    1
    4     4     5    1
    5     4     6    1
    6     4     7    1
    7     7     8    1
    8     1     9    1
    9     7     9    1
   10     9    10    1
   11     9    11    1
   12     7    12    1
   13    12    13    1
@<TRIPOS>SUBSTRUCTURE
       1 MOL1            1 RESIDUE      1      MOL     
@<SCITEGIC>MOL_PROPERTY
VConf Rank
SciTegic.value.IntegerValue
676

@<SCITEGIC>MOL_PROPERTY
Conf_Id
SciTegic.value.IntegerValue
22

@<SCITEGIC>MOL_PROPERTY
Delta U+W
SciTegic.value.DoubleValue
0.000

@<SCITEGIC>MOL_PROPERTY
U+W
SciTegic.value.DoubleValue
-3.131

@<SCITEGIC>MOL_PROPERTY
Grad RMS
SciTegic.value.DoubleValue
0.000000

@<SCITEGIC>MOL_PROPERTY
U
SciTegic.value.DoubleValue
-0.154

@<SCITEGIC>MOL_PROPERTY
W
SciTegic.value.DoubleValue
-2.978

@<SCITEGIC>MOL_PROPERTY
W(PB)
SciTegic.value.DoubleValue
-4.579

@<SCITEGIC>MOL_PROPERTY
W(SA)
SciTegic.value.DoubleValue
1.601

@<SCITEGIC>MOL_PROPERTY
Valence
SciTegic.value.DoubleValue
6.333

@<SCITEGIC>MOL_PROPERTY
Coulomb
SciTegic.value.DoubleValue
-7.439

@<SCITEGIC>MOL_PROPERTY
VdW
SciTegic.value.DoubleValue
0.952

@<SCITEGIC>MOL_PROPERTY
VdW6
SciTegic.value.DoubleValue
-2.120

@<SCITEGIC>MOL_PROPERTY
VdW12
SciTegic.value.DoubleValue
3.072

@<SCITEGIC>MOL_PROPERTY
Bond
SciTegic.value.DoubleValue
0.065

@<SCITEGIC>MOL_PROPERTY
Angle
SciTegic.value.DoubleValue
0.931

@<SCITEGIC>MOL_PROPERTY
Pdih
SciTegic.value.DoubleValue
5.338

@<SCITEGIC>MOL_PROPERTY
Idih
SciTegic.value.DoubleValue
0.000

@<SCITEGIC>MOL_PROPERTY
Tether
SciTegic.value.DoubleValue
0.000

@<TRIPOS>MOLECULE
guest-s16_confgen4.mol2 : confsearch ligand conformer 677
          13          13           1
SMALL
USER_CHARGES
 
@<TRIPOS>ATOM
       1    C1      18.782683   18.975515   23.256824 C.3        1 MOL1        -0.1693
       2    H1      18.948485   18.188809   24.004615 H          1 MOL1         0.0829
       3    H2      17.903148   19.559925   23.552157 H          1 MOL1         0.0829
       4    C2      18.814270   18.484329   21.771877 C.3        1 MOL1        -0.1768
       5    H3      18.337822   19.163965   21.054321 H          1 MOL1         0.0829
       6    H4      18.447123   17.467909   21.592248 H          1 MOL1         0.0829
       7    C3      20.361298   18.639028   21.881259 C.3        1 MOL1         0.1211
       8    H5      20.863999   17.777936   22.342642 H          1 MOL1         0.0786
       9    C4      20.058475   19.797934   22.878294 C.3        1 MOL1        -0.1768
      10    H6      19.857206   20.765769   22.402508 H          1 MOL1         0.0829
      11    H7      20.794290   19.943927   23.676556 H          1 MOL1         0.0829
      12    O1      21.014276   19.021909   20.693163 O.3        1 MOL1        -0.5515
      13    H8      20.999025   18.247426   20.090546 H          1 MOL1         0.3773
@<TRIPOS>BOND
    1     1     2    1
    2     1     3    1
    3     1     4    1
    4     4     5    1
    5     4     6    1
    6     4     7    1
    7     7     8    1
    8     1     9    1
    9     7     9    1
   10     9    10    1
   11     9    11    1
   12     7    12    1
   13    12    13    1
@<TRIPOS>SUBSTRUCTURE
       1 MOL1            1 RESIDUE      1      MOL     
@<SCITEGIC>MOL_PROPERTY
VConf Rank
SciTegic.value.IntegerValue
677

@<SCITEGIC>MOL_PROPERTY
Conf_Id
SciTegic.value.IntegerValue
19

@<SCITEGIC>MOL_PROPERTY
Delta U+W
SciTegic.value.DoubleValue
-0.011

@<SCITEGIC>MOL_PROPERTY
U+W
SciTegic.value.DoubleValue
-3.142

@<SCITEGIC>MOL_PROPERTY
Grad RMS
SciTegic.value.DoubleValue
0.000000

@<SCITEGIC>MOL_PROPERTY
U
SciTegic.value.DoubleValue
-0.154

@<SCITEGIC>MOL_PROPERTY
W
SciTegic.value.DoubleValue
-2.989

@<SCITEGIC>MOL_PROPERTY
W(PB)
SciTegic.value.DoubleValue
-4.588

@<SCITEGIC>MOL_PROPERTY
W(SA)
SciTegic.value.DoubleValue
1.599

@<SCITEGIC>MOL_PROPERTY
Valence
SciTegic.value.DoubleValue
6.334

@<SCITEGIC>MOL_PROPERTY
Coulomb
SciTegic.value.DoubleValue
-7.439

@<SCITEGIC>MOL_PROPERTY
VdW
SciTegic.value.DoubleValue
0.951

@<SCITEGIC>MOL_PROPERTY
VdW6
SciTegic.value.DoubleValue
-2.120

@<SCITEGIC>MOL_PROPERTY
VdW12
SciTegic.value.DoubleValue
3.072

@<SCITEGIC>MOL_PROPERTY
Bond
SciTegic.value.DoubleValue
0.065

@<SCITEGIC>MOL_PROPERTY
Angle
SciTegic.value.DoubleValue
0.930

@<SCITEGIC>MOL_PROPERTY
Pdih
SciTegic.value.DoubleValue
5.339

@<SCITEGIC>MOL_PROPERTY
Idih
SciTegic.value.DoubleValue
0.000

@<SCITEGIC>MOL_PROPERTY
Tether
SciTegic.value.DoubleValue
0.000

@<TRIPOS>MOLECULE
guest-s16_confgen4.mol2 : confsearch ligand conformer 678
          13          13           1
SMALL
USER_CHARGES
 
@<TRIPOS>ATOM
       1    C1      20.692199   18.479855   22.025280 C.3        1 MOL1        -0.1693
       2    H1      21.453737   17.787380   22.402791 H          1 MOL1         0.0829
       3    H2      20.928595   18.726962   20.982082 H          1 MOL1         0.0829
       4    C2      20.377195   19.716956   22.930446 C.3        1 MOL1        -0.1768
       5    H3      20.498591   19.536892   24.005437 H          1 MOL1         0.0829
       6    H4      20.893856   20.647461   22.670416 H          1 MOL1         0.0829
       7    C3      18.906367   19.593710   22.423589 C.3        1 MOL1         0.1211
       8    H5      18.142704   19.842826   23.171634 H          1 MOL1         0.0786
       9    C4      19.203153   18.068615   22.274928 C.3        1 MOL1        -0.1768
      10    H6      18.699619   17.560351   21.445186 H          1 MOL1         0.0829
      11    H7      19.040094   17.488232   23.191193 H          1 MOL1         0.0829
      12    O1      18.635988   20.270402   21.212338 O.3        1 MOL1        -0.5515
      13    H8      17.749588   19.980053   20.908780 H          1 MOL1         0.3773
@<TRIPOS>BOND
    1     1     2    1
    2     1     3    1
    3     1     4    1
    4     4     5    1
    5     4     6    1
    6     4     7    1
    7     7     8    1
    8     1     9    1
    9     7     9    1
   10     9    10    1
   11     9    11    1
   12     7    12    1
   13    12    13    1
@<TRIPOS>SUBSTRUCTURE
       1 MOL1            1 RESIDUE      1      MOL     
@<SCITEGIC>MOL_PROPERTY
VConf Rank
SciTegic.value.IntegerValue
678

@<SCITEGIC>MOL_PROPERTY
Conf_Id
SciTegic.value.IntegerValue
20

@<SCITEGIC>MOL_PROPERTY
Delta U+W
SciTegic.value.DoubleValue
1.030

@<SCITEGIC>MOL_PROPERTY
U+W
SciTegic.value.DoubleValue
-2.101

@<SCITEGIC>MOL_PROPERTY
Grad RMS
SciTegic.value.DoubleValue
0.000000

@<SCITEGIC>MOL_PROPERTY
U
SciTegic.value.DoubleValue
0.841

@<SCITEGIC>MOL_PROPERTY
W
SciTegic.value.DoubleValue
-2.942

@<SCITEGIC>MOL_PROPERTY
W(PB)
SciTegic.value.DoubleValue
-4.530

@<SCITEGIC>MOL_PROPERTY
W(SA)
SciTegic.value.DoubleValue
1.587

@<SCITEGIC>MOL_PROPERTY
Valence
SciTegic.value.DoubleValue
6.736

@<SCITEGIC>MOL_PROPERTY
Coulomb
SciTegic.value.DoubleValue
-7.246

@<SCITEGIC>MOL_PROPERTY
VdW
SciTegic.value.DoubleValue
1.352

@<SCITEGIC>MOL_PROPERTY
VdW6
SciTegic.value.DoubleValue
-2.500

@<SCITEGIC>MOL_PROPERTY
VdW12
SciTegic.value.DoubleValue
3.851

@<SCITEGIC>MOL_PROPERTY
Bond
SciTegic.value.DoubleValue
0.063

@<SCITEGIC>MOL_PROPERTY
Angle
SciTegic.value.DoubleValue
0.687

@<SCITEGIC>MOL_PROPERTY
Pdih
SciTegic.value.DoubleValue
5.986

@<SCITEGIC>MOL_PROPERTY
Idih
SciTegic.value.DoubleValue
0.000

@<SCITEGIC>MOL_PROPERTY
Tether
SciTegic.value.DoubleValue
0.000

@<TRIPOS>MOLECULE
guest-s16_confgen4.mol2 : confsearch ligand conformer 679
          13          13           1
SMALL
USER_CHARGES
 
@<TRIPOS>ATOM
       1    C1      19.151504   19.217044   23.316164 C.3        1 MOL1        -0.1693
       2    H1      18.533908   18.430365   23.769355 H          1 MOL1         0.0829
       3    H2      19.112392   20.105656   23.957460 H          1 MOL1         0.0829
       4    C2      18.890370   19.457130   21.792509 C.3        1 MOL1        -0.1768
       5    H3      17.863555   19.292925   21.447575 H          1 MOL1         0.0829
       6    H4      19.237099   20.427492   21.416261 H          1 MOL1         0.0829
       7    C3      19.878928   18.274396   21.562185 C.3        1 MOL1         0.1211
       8    H5      19.412609   17.283254   21.645118 H          1 MOL1         0.0786
       9    C4      20.577613   18.753497   22.870411 C.3        1 MOL1        -0.1768
      10    H6      21.301461   19.566590   22.735087 H          1 MOL1         0.0829
      11    H7      21.040892   17.967878   23.477426 H          1 MOL1         0.0829
      12    O1      20.660176   18.358347   20.394101 O.3        1 MOL1        -0.5515
      13    H8      21.048097   19.258263   20.374382 H          1 MOL1         0.3773
@<TRIPOS>BOND
    1     1     2    1
    2     1     3    1
    3     1     4    1
    4     4     5    1
    5     4     6    1
    6     4     7    1
    7     7     8    1
    8     1     9    1
    9     7     9    1
   10     9    10    1
   11     9    11    1
   12     7    12    1
   13    12    13    1
@<TRIPOS>SUBSTRUCTURE
       1 MOL1            1 RESIDUE      1      MOL     
@<SCITEGIC>MOL_PROPERTY
VConf Rank
SciTegic.value.IntegerValue
679

@<SCITEGIC>MOL_PROPERTY
Conf_Id
SciTegic.value.IntegerValue
24

@<SCITEGIC>MOL_PROPERTY
Delta U+W
SciTegic.value.DoubleValue
0.356

@<SCITEGIC>MOL_PROPERTY
U+W
SciTegic.value.DoubleValue
-2.775

@<SCITEGIC>MOL_PROPERTY
Grad RMS
SciTegic.value.DoubleValue
0.000000

@<SCITEGIC>MOL_PROPERTY
U
SciTegic.value.DoubleValue
-0.184

@<SCITEGIC>MOL_PROPERTY
W
SciTegic.value.DoubleValue
-2.591

@<SCITEGIC>MOL_PROPERTY
W(PB)
SciTegic.value.DoubleValue
-4.184

@<SCITEGIC>MOL_PROPERTY
W(SA)
SciTegic.value.DoubleValue
1.593

@<SCITEGIC>MOL_PROPERTY
Valence
SciTegic.value.DoubleValue
6.840

@<SCITEGIC>MOL_PROPERTY
Coulomb
SciTegic.value.DoubleValue
-7.916

@<SCITEGIC>MOL_PROPERTY
VdW
SciTegic.value.DoubleValue
0.893

@<SCITEGIC>MOL_PROPERTY
VdW6
SciTegic.value.DoubleValue
-2.167

@<SCITEGIC>MOL_PROPERTY
VdW12
SciTegic.value.DoubleValue
3.060

@<SCITEGIC>MOL_PROPERTY
Bond
SciTegic.value.DoubleValue
0.059

@<SCITEGIC>MOL_PROPERTY
Angle
SciTegic.value.DoubleValue
0.918

@<SCITEGIC>MOL_PROPERTY
Pdih
SciTegic.value.DoubleValue
5.862

@<SCITEGIC>MOL_PROPERTY
Idih
SciTegic.value.DoubleValue
0.000

@<SCITEGIC>MOL_PROPERTY
Tether
SciTegic.value.DoubleValue
0.000

@<TRIPOS>MOLECULE
guest-s16_confgen4.mol2 : confsearch ligand conformer 680
          13          13           1
SMALL
USER_CHARGES
 
@<TRIPOS>ATOM
       1    C1      18.803760   19.103350   21.533024 C.3        1 MOL1        -0.1693
       2    H1      18.165147   19.820231   21.003278 H          1 MOL1         0.0829
       3    H2      18.433173   18.091111   21.327274 H          1 MOL1         0.0829
       4    C2      19.071585   19.412018   23.044028 C.3        1 MOL1        -0.1768
       5    H3      19.072548   20.479646   23.295390 H          1 MOL1         0.0829
       6    H4      18.436251   18.885244   23.764840 H          1 MOL1         0.0829
       7    C3      20.493243   18.809629   22.820403 C.3        1 MOL1         0.1211
       8    H5      21.295494   19.299470   23.386916 H          1 MOL1         0.0786
       9    C4      20.346188   19.290983   21.343695 C.3        1 MOL1        -0.1768
      10    H6      20.659664   20.328936   21.178159 H          1 MOL1         0.0829
      11    H7      20.820286   18.658862   20.584510 H          1 MOL1         0.0829
      12    O1      20.574614   17.409879   22.981043 O.3        1 MOL1        -0.5515
      13    H8      19.839905   17.028612   22.457449 H          1 MOL1         0.3773
@<TRIPOS>BOND
    1     1     2    1
    2     1     3    1
    3     1     4    1
    4     4     5    1
    5     4     6    1
    6     4     7    1
    7     7     8    1
    8     1     9    1
    9     7     9    1
   10     9    10    1
   11     9    11    1
   12     7    12    1
   13    12    13    1
@<TRIPOS>SUBSTRUCTURE
       1 MOL1            1 RESIDUE      1      MOL     
@<SCITEGIC>MOL_PROPERTY
VConf Rank
SciTegic.value.IntegerValue
680

@<SCITEGIC>MOL_PROPERTY
Conf_Id
SciTegic.value.IntegerValue
44

@<SCITEGIC>MOL_PROPERTY
Delta U+W
SciTegic.value.DoubleValue
0.823

@<SCITEGIC>MOL_PROPERTY
U+W
SciTegic.value.DoubleValue
-2.308

@<SCITEGIC>MOL_PROPERTY
Grad RMS
SciTegic.value.DoubleValue
0.000000

@<SCITEGIC>MOL_PROPERTY
U
SciTegic.value.DoubleValue
0.039

@<SCITEGIC>MOL_PROPERTY
W
SciTegic.value.DoubleValue
-2.348

@<SCITEGIC>MOL_PROPERTY
W(PB)
SciTegic.value.DoubleValue
-3.918

@<SCITEGIC>MOL_PROPERTY
W(SA)
SciTegic.value.DoubleValue
1.571

@<SCITEGIC>MOL_PROPERTY
Valence
SciTegic.value.DoubleValue
7.320

@<SCITEGIC>MOL_PROPERTY
Coulomb
SciTegic.value.DoubleValue
-8.530

@<SCITEGIC>MOL_PROPERTY
VdW
SciTegic.value.DoubleValue
1.249

@<SCITEGIC>MOL_PROPERTY
VdW6
SciTegic.value.DoubleValue
-2.615

@<SCITEGIC>MOL_PROPERTY
VdW12
SciTegic.value.DoubleValue
3.864

@<SCITEGIC>MOL_PROPERTY
Bond
SciTegic.value.DoubleValue
0.056

@<SCITEGIC>MOL_PROPERTY
Angle
SciTegic.value.DoubleValue
0.694

@<SCITEGIC>MOL_PROPERTY
Pdih
SciTegic.value.DoubleValue
6.570

@<SCITEGIC>MOL_PROPERTY
Idih
SciTegic.value.DoubleValue
0.000

@<SCITEGIC>MOL_PROPERTY
Tether
SciTegic.value.DoubleValue
0.000

@<TRIPOS>MOLECULE
guest-s16_confgen4.mol2 : confsearch ligand conformer 681
          13          13           1
SMALL
USER_CHARGES
 
@<TRIPOS>ATOM
       1    C1      19.612346   19.948617   23.206450 C.3        1 MOL1        -0.1693
       2    H1      20.070372   20.906960   22.928283 H          1 MOL1         0.0829
       3    H2      19.185208   20.043139   24.211913 H          1 MOL1         0.0829
       4    C2      20.515292   18.695380   22.958674 C.3        1 MOL1        -0.1768
       5    H3      21.593820   18.845010   23.078469 H          1 MOL1         0.0829
       6    H4      20.219410   17.798032   23.516173 H          1 MOL1         0.0829
       7    C3      19.981819   18.751426   21.495420 C.3        1 MOL1         0.1211
       8    H5      20.522581   19.460614   20.853789 H          1 MOL1         0.0786
       9    C4      18.675097   19.330361   22.117115 C.3        1 MOL1        -0.1768
      10    H6      18.124371   20.043325   21.493773 H          1 MOL1         0.0829
      11    H7      17.974354   18.573706   22.491584 H          1 MOL1         0.0829
      12    O1      19.843883   17.503529   20.856457 O.3        1 MOL1        -0.5515
      13    H8      19.354175   17.657807   20.020043 H          1 MOL1         0.3773
@<TRIPOS>BOND
    1     1     2    1
    2     1     3    1
    3     1     4    1
    4     4     5    1
    5     4     6    1
    6     4     7    1
    7     7     8    1
    8     1     9    1
    9     7     9    1
   10     9    10    1
   11     9    11    1
   12     7    12    1
   13    12    13    1
@<TRIPOS>SUBSTRUCTURE
       1 MOL1            1 RESIDUE      1      MOL     
@<SCITEGIC>MOL_PROPERTY
VConf Rank
SciTegic.value.IntegerValue
681

@<SCITEGIC>MOL_PROPERTY
Conf_Id
SciTegic.value.IntegerValue
22

@<SCITEGIC>MOL_PROPERTY
Delta U+W
SciTegic.value.DoubleValue
0.000

@<SCITEGIC>MOL_PROPERTY
U+W
SciTegic.value.DoubleValue
-3.131

@<SCITEGIC>MOL_PROPERTY
Grad RMS
SciTegic.value.DoubleValue
0.000000

@<SCITEGIC>MOL_PROPERTY
U
SciTegic.value.DoubleValue
-0.154

@<SCITEGIC>MOL_PROPERTY
W
SciTegic.value.DoubleValue
-2.978

@<SCITEGIC>MOL_PROPERTY
W(PB)
SciTegic.value.DoubleValue
-4.579

@<SCITEGIC>MOL_PROPERTY
W(SA)
SciTegic.value.DoubleValue
1.601

@<SCITEGIC>MOL_PROPERTY
Valence
SciTegic.value.DoubleValue
6.333

@<SCITEGIC>MOL_PROPERTY
Coulomb
SciTegic.value.DoubleValue
-7.439

@<SCITEGIC>MOL_PROPERTY
VdW
SciTegic.value.DoubleValue
0.952

@<SCITEGIC>MOL_PROPERTY
VdW6
SciTegic.value.DoubleValue
-2.120

@<SCITEGIC>MOL_PROPERTY
VdW12
SciTegic.value.DoubleValue
3.072

@<SCITEGIC>MOL_PROPERTY
Bond
SciTegic.value.DoubleValue
0.065

@<SCITEGIC>MOL_PROPERTY
Angle
SciTegic.value.DoubleValue
0.931

@<SCITEGIC>MOL_PROPERTY
Pdih
SciTegic.value.DoubleValue
5.338

@<SCITEGIC>MOL_PROPERTY
Idih
SciTegic.value.DoubleValue
0.000

@<SCITEGIC>MOL_PROPERTY
Tether
SciTegic.value.DoubleValue
0.000

@<TRIPOS>MOLECULE
guest-s16_confgen4.mol2 : confsearch ligand conformer 682
          13          13           1
SMALL
USER_CHARGES
 
@<TRIPOS>ATOM
       1    C1      19.908431   18.202789   23.314017 C.3        1 MOL1        -0.1693
       2    H1      19.720149   18.729101   24.259073 H          1 MOL1         0.0829
       3    H2      20.334143   17.217929   23.540200 H          1 MOL1         0.0829
       4    C2      20.663478   19.046145   22.234209 C.3        1 MOL1        -0.1768
       5    H3      21.137705   18.455268   21.440631 H          1 MOL1         0.0829
       6    H4      21.388435   19.775413   22.612069 H          1 MOL1         0.0829
       7    C3      19.257864   19.611550   21.868477 C.3        1 MOL1         0.1211
       8    H5      18.928626   20.438656   22.512340 H          1 MOL1         0.0786
       9    C4      18.711959   18.219019   22.306299 C.3        1 MOL1        -0.1768
      10    H6      18.756570   17.447982   21.527134 H          1 MOL1         0.0829
      11    H7      17.708843   18.217612   22.746431 H          1 MOL1         0.0829
      12    O1      19.071753   19.931142   20.509149 O.3        1 MOL1        -0.5515
      13    H8      19.594145   20.741775   20.326982 H          1 MOL1         0.3773
@<TRIPOS>BOND
    1     1     2    1
    2     1     3    1
    3     1     4    1
    4     4     5    1
    5     4     6    1
    6     4     7    1
    7     7     8    1
    8     1     9    1
    9     7     9    1
   10     9    10    1
   11     9    11    1
   12     7    12    1
   13    12    13    1
@<TRIPOS>SUBSTRUCTURE
       1 MOL1            1 RESIDUE      1      MOL     
@<SCITEGIC>MOL_PROPERTY
VConf Rank
SciTegic.value.IntegerValue
682

@<SCITEGIC>MOL_PROPERTY
Conf_Id
SciTegic.value.IntegerValue
19

@<SCITEGIC>MOL_PROPERTY
Delta U+W
SciTegic.value.DoubleValue
-0.011

@<SCITEGIC>MOL_PROPERTY
U+W
SciTegic.value.DoubleValue
-3.142

@<SCITEGIC>MOL_PROPERTY
Grad RMS
SciTegic.value.DoubleValue
0.000000

@<SCITEGIC>MOL_PROPERTY
U
SciTegic.value.DoubleValue
-0.154

@<SCITEGIC>MOL_PROPERTY
W
SciTegic.value.DoubleValue
-2.989

@<SCITEGIC>MOL_PROPERTY
W(PB)
SciTegic.value.DoubleValue
-4.588

@<SCITEGIC>MOL_PROPERTY
W(SA)
SciTegic.value.DoubleValue
1.599

@<SCITEGIC>MOL_PROPERTY
Valence
SciTegic.value.DoubleValue
6.334

@<SCITEGIC>MOL_PROPERTY
Coulomb
SciTegic.value.DoubleValue
-7.439

@<SCITEGIC>MOL_PROPERTY
VdW
SciTegic.value.DoubleValue
0.951

@<SCITEGIC>MOL_PROPERTY
VdW6
SciTegic.value.DoubleValue
-2.120

@<SCITEGIC>MOL_PROPERTY
VdW12
SciTegic.value.DoubleValue
3.072

@<SCITEGIC>MOL_PROPERTY
Bond
SciTegic.value.DoubleValue
0.065

@<SCITEGIC>MOL_PROPERTY
Angle
SciTegic.value.DoubleValue
0.930

@<SCITEGIC>MOL_PROPERTY
Pdih
SciTegic.value.DoubleValue
5.339

@<SCITEGIC>MOL_PROPERTY
Idih
SciTegic.value.DoubleValue
0.000

@<SCITEGIC>MOL_PROPERTY
Tether
SciTegic.value.DoubleValue
0.000

@<TRIPOS>MOLECULE
guest-s16_confgen4.mol2 : confsearch ligand conformer 683
          13          13           1
SMALL
USER_CHARGES
 
@<TRIPOS>ATOM
       1    C1      18.507384   19.327303   22.701076 C.3        1 MOL1        -0.1693
       2    H1      17.676208   18.990255   23.331570 H          1 MOL1         0.0829
       3    H2      18.282437   20.337140   22.333877 H          1 MOL1         0.0829
       4    C2      18.984099   18.325937   21.597001 C.3        1 MOL1        -0.1768
       5    H3      18.862414   17.267978   21.859073 H          1 MOL1         0.0829
       6    H4      18.576844   18.487318   20.592763 H          1 MOL1         0.0829
       7    C3      20.420072   18.884805   21.844140 C.3        1 MOL1         0.1211
       8    H5      21.221858   18.140474   21.755130 H          1 MOL1         0.0786
       9    C4      19.941459   19.158968   23.304228 C.3        1 MOL1        -0.1768
      10    H6      20.365345   20.044881   23.789852 H          1 MOL1         0.0829
      11    H7      20.051619   18.302829   23.980885 H          1 MOL1         0.0829
      12    O1      20.746095   20.038892   21.095851 O.3        1 MOL1        -0.5515
      13    H8      21.585855   20.392915   21.458655 H          1 MOL1         0.3773
@<TRIPOS>BOND
    1     1     2    1
    2     1     3    1
    3     1     4    1
    4     4     5    1
    5     4     6    1
    6     4     7    1
    7     7     8    1
    8     1     9    1
    9     7     9    1
   10     9    10    1
   11     9    11    1
   12     7    12    1
   13    12    13    1
@<TRIPOS>SUBSTRUCTURE
       1 MOL1            1 RESIDUE      1      MOL     
@<SCITEGIC>MOL_PROPERTY
VConf Rank
SciTegic.value.IntegerValue
683

@<SCITEGIC>MOL_PROPERTY
Conf_Id
SciTegic.value.IntegerValue
20

@<SCITEGIC>MOL_PROPERTY
Delta U+W
SciTegic.value.DoubleValue
1.030

@<SCITEGIC>MOL_PROPERTY
U+W
SciTegic.value.DoubleValue
-2.101

@<SCITEGIC>MOL_PROPERTY
Grad RMS
SciTegic.value.DoubleValue
0.000000

@<SCITEGIC>MOL_PROPERTY
U
SciTegic.value.DoubleValue
0.841

@<SCITEGIC>MOL_PROPERTY
W
SciTegic.value.DoubleValue
-2.942

@<SCITEGIC>MOL_PROPERTY
W(PB)
SciTegic.value.DoubleValue
-4.530

@<SCITEGIC>MOL_PROPERTY
W(SA)
SciTegic.value.DoubleValue
1.587

@<SCITEGIC>MOL_PROPERTY
Valence
SciTegic.value.DoubleValue
6.736

@<SCITEGIC>MOL_PROPERTY
Coulomb
SciTegic.value.DoubleValue
-7.246

@<SCITEGIC>MOL_PROPERTY
VdW
SciTegic.value.DoubleValue
1.352

@<SCITEGIC>MOL_PROPERTY
VdW6
SciTegic.value.DoubleValue
-2.500

@<SCITEGIC>MOL_PROPERTY
VdW12
SciTegic.value.DoubleValue
3.851

@<SCITEGIC>MOL_PROPERTY
Bond
SciTegic.value.DoubleValue
0.063

@<SCITEGIC>MOL_PROPERTY
Angle
SciTegic.value.DoubleValue
0.687

@<SCITEGIC>MOL_PROPERTY
Pdih
SciTegic.value.DoubleValue
5.986

@<SCITEGIC>MOL_PROPERTY
Idih
SciTegic.value.DoubleValue
0.000

@<SCITEGIC>MOL_PROPERTY
Tether
SciTegic.value.DoubleValue
0.000

@<TRIPOS>MOLECULE
guest-s16_confgen4.mol2 : confsearch ligand conformer 684
          13          13           1
SMALL
USER_CHARGES
 
@<TRIPOS>ATOM
       1    C1      20.783247   19.641652   21.904315 C.3        1 MOL1        -0.1693
       2    H1      21.092194   19.664918   20.850901 H          1 MOL1         0.0829
       3    H2      21.481022   20.254582   22.487280 H          1 MOL1         0.0829
       4    C2      20.487926   18.212457   22.467826 C.3        1 MOL1        -0.1768
       5    H3      21.086441   17.395920   22.049092 H          1 MOL1         0.0829
       6    H4      20.508857   18.138833   23.562143 H          1 MOL1         0.0829
       7    C3      19.068466   18.396319   21.850992 C.3        1 MOL1         0.1211
       8    H5      19.014714   18.155116   20.780653 H          1 MOL1         0.0786
       9    C4      19.261871   19.914479   22.145845 C.3        1 MOL1        -0.1768
      10    H6      19.008765   20.221278   23.168195 H          1 MOL1         0.0829
      11    H7      18.777592   20.601085   21.442754 H          1 MOL1         0.0829
      12    O1      18.019138   17.773186   22.552728 O.3        1 MOL1        -0.5515
      13    H8      18.118368   18.023011   23.495310 H          1 MOL1         0.3773
@<TRIPOS>BOND
    1     1     2    1
    2     1     3    1
    3     1     4    1
    4     4     5    1
    5     4     6    1
    6     4     7    1
    7     7     8    1
    8     1     9    1
    9     7     9    1
   10     9    10    1
   11     9    11    1
   12     7    12    1
   13    12    13    1
@<TRIPOS>SUBSTRUCTURE
       1 MOL1            1 RESIDUE      1      MOL     
@<SCITEGIC>MOL_PROPERTY
VConf Rank
SciTegic.value.IntegerValue
684

@<SCITEGIC>MOL_PROPERTY
Conf_Id
SciTegic.value.IntegerValue
24

@<SCITEGIC>MOL_PROPERTY
Delta U+W
SciTegic.value.DoubleValue
0.356

@<SCITEGIC>MOL_PROPERTY
U+W
SciTegic.value.DoubleValue
-2.775

@<SCITEGIC>MOL_PROPERTY
Grad RMS
SciTegic.value.DoubleValue
0.000000

@<SCITEGIC>MOL_PROPERTY
U
SciTegic.value.DoubleValue
-0.184

@<SCITEGIC>MOL_PROPERTY
W
SciTegic.value.DoubleValue
-2.591

@<SCITEGIC>MOL_PROPERTY
W(PB)
SciTegic.value.DoubleValue
-4.184

@<SCITEGIC>MOL_PROPERTY
W(SA)
SciTegic.value.DoubleValue
1.593

@<SCITEGIC>MOL_PROPERTY
Valence
SciTegic.value.DoubleValue
6.840

@<SCITEGIC>MOL_PROPERTY
Coulomb
SciTegic.value.DoubleValue
-7.916

@<SCITEGIC>MOL_PROPERTY
VdW
SciTegic.value.DoubleValue
0.893

@<SCITEGIC>MOL_PROPERTY
VdW6
SciTegic.value.DoubleValue
-2.167

@<SCITEGIC>MOL_PROPERTY
VdW12
SciTegic.value.DoubleValue
3.060

@<SCITEGIC>MOL_PROPERTY
Bond
SciTegic.value.DoubleValue
0.059

@<SCITEGIC>MOL_PROPERTY
Angle
SciTegic.value.DoubleValue
0.918

@<SCITEGIC>MOL_PROPERTY
Pdih
SciTegic.value.DoubleValue
5.862

@<SCITEGIC>MOL_PROPERTY
Idih
SciTegic.value.DoubleValue
0.000

@<SCITEGIC>MOL_PROPERTY
Tether
SciTegic.value.DoubleValue
0.000

@<TRIPOS>MOLECULE
guest-s16_confgen4.mol2 : confsearch ligand conformer 685
          13          13           1
SMALL
USER_CHARGES
 
@<TRIPOS>ATOM
       1    C1      20.638717   18.860774   22.809219 C.3        1 MOL1        -0.1693
       2    H1      21.696829   18.573612   22.791571 H          1 MOL1         0.0829
       3    H2      20.381274   19.172759   23.829358 H          1 MOL1         0.0829
       4    C2      19.642477   17.842230   22.160983 C.3        1 MOL1        -0.1768
       5    H3      20.066357   17.255330   21.337035 H          1 MOL1         0.0829
       6    H4      19.134067   17.158421   22.849920 H          1 MOL1         0.0829
       7    C3      18.817417   19.083349   21.699581 C.3        1 MOL1         0.1211
       8    H5      18.336561   18.978148   20.718664 H          1 MOL1         0.0786
       9    C4      20.178322   19.846022   21.683404 C.3        1 MOL1        -0.1768
      10    H6      20.733584   19.750422   20.742362 H          1 MOL1         0.0829
      11    H7      20.136322   20.906343   21.956649 H          1 MOL1         0.0829
      12    O1      17.884243   19.558398   22.645753 O.3        1 MOL1        -0.5515
      13    H8      18.365688   19.632165   23.495508 H          1 MOL1         0.3773
@<TRIPOS>BOND
    1     1     2    1
    2     1     3    1
    3     1     4    1
    4     4     5    1
    5     4     6    1
    6     4     7    1
    7     7     8    1
    8     1     9    1
    9     7     9    1
   10     9    10    1
   11     9    11    1
   12     7    12    1
   13    12    13    1
@<TRIPOS>SUBSTRUCTURE
       1 MOL1            1 RESIDUE      1      MOL     
@<SCITEGIC>MOL_PROPERTY
VConf Rank
SciTegic.value.IntegerValue
685

@<SCITEGIC>MOL_PROPERTY
Conf_Id
SciTegic.value.IntegerValue
44

@<SCITEGIC>MOL_PROPERTY
Delta U+W
SciTegic.value.DoubleValue
0.823

@<SCITEGIC>MOL_PROPERTY
U+W
SciTegic.value.DoubleValue
-2.308

@<SCITEGIC>MOL_PROPERTY
Grad RMS
SciTegic.value.DoubleValue
0.000000

@<SCITEGIC>MOL_PROPERTY
U
SciTegic.value.DoubleValue
0.039

@<SCITEGIC>MOL_PROPERTY
W
SciTegic.value.DoubleValue
-2.348

@<SCITEGIC>MOL_PROPERTY
W(PB)
SciTegic.value.DoubleValue
-3.918

@<SCITEGIC>MOL_PROPERTY
W(SA)
SciTegic.value.DoubleValue
1.571

@<SCITEGIC>MOL_PROPERTY
Valence
SciTegic.value.DoubleValue
7.320

@<SCITEGIC>MOL_PROPERTY
Coulomb
SciTegic.value.DoubleValue
-8.530

@<SCITEGIC>MOL_PROPERTY
VdW
SciTegic.value.DoubleValue
1.249

@<SCITEGIC>MOL_PROPERTY
VdW6
SciTegic.value.DoubleValue
-2.615

@<SCITEGIC>MOL_PROPERTY
VdW12
SciTegic.value.DoubleValue
3.864

@<SCITEGIC>MOL_PROPERTY
Bond
SciTegic.value.DoubleValue
0.056

@<SCITEGIC>MOL_PROPERTY
Angle
SciTegic.value.DoubleValue
0.694

@<SCITEGIC>MOL_PROPERTY
Pdih
SciTegic.value.DoubleValue
6.570

@<SCITEGIC>MOL_PROPERTY
Idih
SciTegic.value.DoubleValue
0.000

@<SCITEGIC>MOL_PROPERTY
Tether
SciTegic.value.DoubleValue
0.000

@<TRIPOS>MOLECULE
guest-s16_confgen4.mol2 : confsearch ligand conformer 686
          13          13           1
SMALL
USER_CHARGES
 
@<TRIPOS>ATOM
       1    C1      18.456334   18.542935   22.407370 C.3        1 MOL1        -0.1693
       2    H1      17.829386   19.126891   23.094042 H          1 MOL1         0.0829
       3    H2      17.858264   17.717734   22.002780 H          1 MOL1         0.0829
       4    C2      19.863579   18.158772   22.972514 C.3        1 MOL1        -0.1768
       5    H3      19.919796   17.983729   24.052403 H          1 MOL1         0.0829
       6    H4      20.355776   17.326622   22.454004 H          1 MOL1         0.0829
       7    C3      20.308305   19.572777   22.491208 C.3        1 MOL1         0.1211
       8    H5      20.071155   20.377070   23.201092 H          1 MOL1         0.0786
       9    C4      19.249673   19.393763   21.361409 C.3        1 MOL1        -0.1768
      10    H6      18.760531   20.310826   21.015132 H          1 MOL1         0.0829
      11    H7      19.605043   18.831793   20.488657 H          1 MOL1         0.0829
      12    O1      21.644591   19.667991   22.055524 O.3        1 MOL1        -0.5515
      13    H8      21.750294   20.547003   21.632006 H          1 MOL1         0.3773
@<TRIPOS>BOND
    1     1     2    1
    2     1     3    1
    3     1     4    1
    4     4     5    1
    5     4     6    1
    6     4     7    1
    7     7     8    1
    8     1     9    1
    9     7     9    1
   10     9    10    1
   11     9    11    1
   12     7    12    1
   13    12    13    1
@<TRIPOS>SUBSTRUCTURE
       1 MOL1            1 RESIDUE      1      MOL     
@<SCITEGIC>MOL_PROPERTY
VConf Rank
SciTegic.value.IntegerValue
686

@<SCITEGIC>MOL_PROPERTY
Conf_Id
SciTegic.value.IntegerValue
22

@<SCITEGIC>MOL_PROPERTY
Delta U+W
SciTegic.value.DoubleValue
0.000

@<SCITEGIC>MOL_PROPERTY
U+W
SciTegic.value.DoubleValue
-3.131

@<SCITEGIC>MOL_PROPERTY
Grad RMS
SciTegic.value.DoubleValue
0.000000

@<SCITEGIC>MOL_PROPERTY
U
SciTegic.value.DoubleValue
-0.154

@<SCITEGIC>MOL_PROPERTY
W
SciTegic.value.DoubleValue
-2.978

@<SCITEGIC>MOL_PROPERTY
W(PB)
SciTegic.value.DoubleValue
-4.579

@<SCITEGIC>MOL_PROPERTY
W(SA)
SciTegic.value.DoubleValue
1.601

@<SCITEGIC>MOL_PROPERTY
Valence
SciTegic.value.DoubleValue
6.333

@<SCITEGIC>MOL_PROPERTY
Coulomb
SciTegic.value.DoubleValue
-7.439

@<SCITEGIC>MOL_PROPERTY
VdW
SciTegic.value.DoubleValue
0.952

@<SCITEGIC>MOL_PROPERTY
VdW6
SciTegic.value.DoubleValue
-2.120

@<SCITEGIC>MOL_PROPERTY
VdW12
SciTegic.value.DoubleValue
3.072

@<SCITEGIC>MOL_PROPERTY
Bond
SciTegic.value.DoubleValue
0.065

@<SCITEGIC>MOL_PROPERTY
Angle
SciTegic.value.DoubleValue
0.931

@<SCITEGIC>MOL_PROPERTY
Pdih
SciTegic.value.DoubleValue
5.338

@<SCITEGIC>MOL_PROPERTY
Idih
SciTegic.value.DoubleValue
0.000

@<SCITEGIC>MOL_PROPERTY
Tether
SciTegic.value.DoubleValue
0.000

@<TRIPOS>MOLECULE
guest-s16_confgen4.mol2 : confsearch ligand conformer 687
          13          13           1
SMALL
USER_CHARGES
 
@<TRIPOS>ATOM
       1    C1      19.928683   17.863839   22.969903 C.3        1 MOL1        -0.1693
       2    H1      19.330152   16.979096   22.715785 H          1 MOL1         0.0829
       3    H2      20.585439   17.612735   23.811305 H          1 MOL1         0.0829
       4    C2      19.110393   19.189883   23.108960 C.3        1 MOL1        -0.1768
       5    H3      19.618861   19.985503   23.667748 H          1 MOL1         0.0829
       6    H4      18.088651   19.088228   23.490905 H          1 MOL1         0.0829
       7    C3      19.249967   19.295481   21.560230 C.3        1 MOL1         0.1211
       8    H5      18.505719   18.708759   21.004430 H          1 MOL1         0.0786
       9    C4      20.612860   18.563665   21.749473 C.3        1 MOL1        -0.1768
      10    H6      21.450688   19.223085   22.007917 H          1 MOL1         0.0829
      11    H7      20.920340   17.909230   20.926593 H          1 MOL1         0.0829
      12    O1      19.335763   20.606051   21.050727 O.3        1 MOL1        -0.5515
      13    H8      18.444583   21.008827   21.133032 H          1 MOL1         0.3773
@<TRIPOS>BOND
    1     1     2    1
    2     1     3    1
    3     1     4    1
    4     4     5    1
    5     4     6    1
    6     4     7    1
    7     7     8    1
    8     1     9    1
    9     7     9    1
   10     9    10    1
   11     9    11    1
   12     7    12    1
   13    12    13    1
@<TRIPOS>SUBSTRUCTURE
       1 MOL1            1 RESIDUE      1      MOL     
@<SCITEGIC>MOL_PROPERTY
VConf Rank
SciTegic.value.IntegerValue
687

@<SCITEGIC>MOL_PROPERTY
Conf_Id
SciTegic.value.IntegerValue
19

@<SCITEGIC>MOL_PROPERTY
Delta U+W
SciTegic.value.DoubleValue
-0.011

@<SCITEGIC>MOL_PROPERTY
U+W
SciTegic.value.DoubleValue
-3.142

@<SCITEGIC>MOL_PROPERTY
Grad RMS
SciTegic.value.DoubleValue
0.000000

@<SCITEGIC>MOL_PROPERTY
U
SciTegic.value.DoubleValue
-0.154

@<SCITEGIC>MOL_PROPERTY
W
SciTegic.value.DoubleValue
-2.989

@<SCITEGIC>MOL_PROPERTY
W(PB)
SciTegic.value.DoubleValue
-4.588

@<SCITEGIC>MOL_PROPERTY
W(SA)
SciTegic.value.DoubleValue
1.599

@<SCITEGIC>MOL_PROPERTY
Valence
SciTegic.value.DoubleValue
6.334

@<SCITEGIC>MOL_PROPERTY
Coulomb
SciTegic.value.DoubleValue
-7.439

@<SCITEGIC>MOL_PROPERTY
VdW
SciTegic.value.DoubleValue
0.951

@<SCITEGIC>MOL_PROPERTY
VdW6
SciTegic.value.DoubleValue
-2.120

@<SCITEGIC>MOL_PROPERTY
VdW12
SciTegic.value.DoubleValue
3.072

@<SCITEGIC>MOL_PROPERTY
Bond
SciTegic.value.DoubleValue
0.065

@<SCITEGIC>MOL_PROPERTY
Angle
SciTegic.value.DoubleValue
0.930

@<SCITEGIC>MOL_PROPERTY
Pdih
SciTegic.value.DoubleValue
5.339

@<SCITEGIC>MOL_PROPERTY
Idih
SciTegic.value.DoubleValue
0.000

@<SCITEGIC>MOL_PROPERTY
Tether
SciTegic.value.DoubleValue
0.000

@<TRIPOS>MOLECULE
guest-s16_confgen4.mol2 : confsearch ligand conformer 688
          13          13           1
SMALL
USER_CHARGES
 
@<TRIPOS>ATOM
       1    C1      20.435517   18.222891   21.853474 C.3        1 MOL1        -0.1693
       2    H1      20.824000   17.725000   20.957281 H          1 MOL1         0.0829
       3    H2      21.028146   17.899892   22.719308 H          1 MOL1         0.0829
       4    C2      18.886416   18.151813   22.063729 C.3        1 MOL1        -0.1768
       5    H3      18.302558   18.114778   21.136096 H          1 MOL1         0.0829
       6    H4      18.527626   17.364037   22.735349 H          1 MOL1         0.0829
       7    C3      19.001591   19.576447   22.690292 C.3        1 MOL1         0.1211
       8    H5      18.151412   20.238226   22.480400 H          1 MOL1         0.0786
       9    C4      20.229791   19.770477   21.746908 C.3        1 MOL1        -0.1768
      10    H6      21.042881   20.391272   22.139145 H          1 MOL1         0.0829
      11    H7      19.972008   20.125923   20.741831 H          1 MOL1         0.0829
      12    O1      19.300554   19.596256   24.071732 O.3        1 MOL1        -0.5515
      13    H8      19.519188   20.522684   24.308555 H          1 MOL1         0.3773
@<TRIPOS>BOND
    1     1     2    1
    2     1     3    1
    3     1     4    1
    4     4     5    1
    5     4     6    1
    6     4     7    1
    7     7     8    1
    8     1     9    1
    9     7     9    1
   10     9    10    1
   11     9    11    1
   12     7    12    1
   13    12    13    1
@<TRIPOS>SUBSTRUCTURE
       1 MOL1            1 RESIDUE      1      MOL     
@<SCITEGIC>MOL_PROPERTY
VConf Rank
SciTegic.value.IntegerValue
688

@<SCITEGIC>MOL_PROPERTY
Conf_Id
SciTegic.value.IntegerValue
20

@<SCITEGIC>MOL_PROPERTY
Delta U+W
SciTegic.value.DoubleValue
1.030

@<SCITEGIC>MOL_PROPERTY
U+W
SciTegic.value.DoubleValue
-2.101

@<SCITEGIC>MOL_PROPERTY
Grad RMS
SciTegic.value.DoubleValue
0.000000

@<SCITEGIC>MOL_PROPERTY
U
SciTegic.value.DoubleValue
0.841

@<SCITEGIC>MOL_PROPERTY
W
SciTegic.value.DoubleValue
-2.942

@<SCITEGIC>MOL_PROPERTY
W(PB)
SciTegic.value.DoubleValue
-4.530

@<SCITEGIC>MOL_PROPERTY
W(SA)
SciTegic.value.DoubleValue
1.587

@<SCITEGIC>MOL_PROPERTY
Valence
SciTegic.value.DoubleValue
6.736

@<SCITEGIC>MOL_PROPERTY
Coulomb
SciTegic.value.DoubleValue
-7.246

@<SCITEGIC>MOL_PROPERTY
VdW
SciTegic.value.DoubleValue
1.352

@<SCITEGIC>MOL_PROPERTY
VdW6
SciTegic.value.DoubleValue
-2.500

@<SCITEGIC>MOL_PROPERTY
VdW12
SciTegic.value.DoubleValue
3.851

@<SCITEGIC>MOL_PROPERTY
Bond
SciTegic.value.DoubleValue
0.063

@<SCITEGIC>MOL_PROPERTY
Angle
SciTegic.value.DoubleValue
0.687

@<SCITEGIC>MOL_PROPERTY
Pdih
SciTegic.value.DoubleValue
5.986

@<SCITEGIC>MOL_PROPERTY
Idih
SciTegic.value.DoubleValue
0.000

@<SCITEGIC>MOL_PROPERTY
Tether
SciTegic.value.DoubleValue
0.000

@<TRIPOS>MOLECULE
guest-s16_confgen4.mol2 : confsearch ligand conformer 689
          13          13           1
SMALL
USER_CHARGES
 
@<TRIPOS>ATOM
       1    C1      19.733654   19.456321   23.390963 C.3        1 MOL1        -0.1693
       2    H1      19.495352   20.523282   23.493318 H          1 MOL1         0.0829
       3    H2      19.917388   19.041440   24.389230 H          1 MOL1         0.0829
       4    C2      20.807487   19.127605   22.301842 C.3        1 MOL1        -0.1768
       5    H3      21.583787   19.884843   22.146144 H          1 MOL1         0.0829
       6    H4      21.288709   18.148286   22.414748 H          1 MOL1         0.0829
       7    C3      19.618300   19.160596   21.294916 C.3        1 MOL1         0.1211
       8    H5      19.354219   20.170391   20.952470 H          1 MOL1         0.0786
       9    C4      18.747591   18.650191   22.482563 C.3        1 MOL1        -0.1768
      10    H6      18.768400   17.564164   22.635864 H          1 MOL1         0.0829
      11    H7      17.704689   18.985797   22.486468 H          1 MOL1         0.0829
      12    O1      19.726695   18.279352   20.202452 O.3        1 MOL1        -0.5515
      13    H8      19.962330   17.400570   20.567058 H          1 MOL1         0.3773
@<TRIPOS>BOND
    1     1     2    1
    2     1     3    1
    3     1     4    1
    4     4     5    1
    5     4     6    1
    6     4     7    1
    7     7     8    1
    8     1     9    1
    9     7     9    1
   10     9    10    1
   11     9    11    1
   12     7    12    1
   13    12    13    1
@<TRIPOS>SUBSTRUCTURE
       1 MOL1            1 RESIDUE      1      MOL     
@<SCITEGIC>MOL_PROPERTY
VConf Rank
SciTegic.value.IntegerValue
689

@<SCITEGIC>MOL_PROPERTY
Conf_Id
SciTegic.value.IntegerValue
24

@<SCITEGIC>MOL_PROPERTY
Delta U+W
SciTegic.value.DoubleValue
0.356

@<SCITEGIC>MOL_PROPERTY
U+W
SciTegic.value.DoubleValue
-2.775

@<SCITEGIC>MOL_PROPERTY
Grad RMS
SciTegic.value.DoubleValue
0.000000

@<SCITEGIC>MOL_PROPERTY
U
SciTegic.value.DoubleValue
-0.184

@<SCITEGIC>MOL_PROPERTY
W
SciTegic.value.DoubleValue
-2.591

@<SCITEGIC>MOL_PROPERTY
W(PB)
SciTegic.value.DoubleValue
-4.184

@<SCITEGIC>MOL_PROPERTY
W(SA)
SciTegic.value.DoubleValue
1.593

@<SCITEGIC>MOL_PROPERTY
Valence
SciTegic.value.DoubleValue
6.840

@<SCITEGIC>MOL_PROPERTY
Coulomb
SciTegic.value.DoubleValue
-7.916

@<SCITEGIC>MOL_PROPERTY
VdW
SciTegic.value.DoubleValue
0.893

@<SCITEGIC>MOL_PROPERTY
VdW6
SciTegic.value.DoubleValue
-2.167

@<SCITEGIC>MOL_PROPERTY
VdW12
SciTegic.value.DoubleValue
3.060

@<SCITEGIC>MOL_PROPERTY
Bond
SciTegic.value.DoubleValue
0.059

@<SCITEGIC>MOL_PROPERTY
Angle
SciTegic.value.DoubleValue
0.918

@<SCITEGIC>MOL_PROPERTY
Pdih
SciTegic.value.DoubleValue
5.862

@<SCITEGIC>MOL_PROPERTY
Idih
SciTegic.value.DoubleValue
0.000

@<SCITEGIC>MOL_PROPERTY
Tether
SciTegic.value.DoubleValue
0.000

@<TRIPOS>MOLECULE
guest-s16_confgen4.mol2 : confsearch ligand conformer 690
          13          13           1
SMALL
USER_CHARGES
 
@<TRIPOS>ATOM
       1    C1      20.733503   18.551917   22.116929 C.3        1 MOL1        -0.1693
       2    H1      21.426846   17.971956   21.496209 H          1 MOL1         0.0829
       3    H2      21.258910   18.857239   23.030724 H          1 MOL1         0.0829
       4    C2      19.324548   17.911219   22.350362 C.3        1 MOL1        -0.1768
       5    H3      18.970135   17.282217   21.524673 H          1 MOL1         0.0829
       6    H4      19.193586   17.360465   23.288567 H          1 MOL1         0.0829
       7    C3      18.761125   19.365903   22.329353 C.3        1 MOL1         0.1211
       8    H5      17.770323   19.469603   21.868871 H          1 MOL1         0.0786
       9    C4      19.959212   19.700305   21.387674 C.3        1 MOL1        -0.1768
      10    H6      19.760410   19.509960   20.325948 H          1 MOL1         0.0829
      11    H7      20.380672   20.706797   21.487940 H          1 MOL1         0.0829
      12    O1      18.785508   20.027814   23.575550 O.3        1 MOL1        -0.5515
      13    H8      19.687080   19.902576   23.937209 H          1 MOL1         0.3773
@<TRIPOS>BOND
    1     1     2    1
    2     1     3    1
    3     1     4    1
    4     4     5    1
    5     4     6    1
    6     4     7    1
    7     7     8    1
    8     1     9    1
    9     7     9    1
   10     9    10    1
   11     9    11    1
   12     7    12    1
   13    12    13    1
@<TRIPOS>SUBSTRUCTURE
       1 MOL1            1 RESIDUE      1      MOL     
@<SCITEGIC>MOL_PROPERTY
VConf Rank
SciTegic.value.IntegerValue
690

@<SCITEGIC>MOL_PROPERTY
Conf_Id
SciTegic.value.IntegerValue
44

@<SCITEGIC>MOL_PROPERTY
Delta U+W
SciTegic.value.DoubleValue
0.823

@<SCITEGIC>MOL_PROPERTY
U+W
SciTegic.value.DoubleValue
-2.308

@<SCITEGIC>MOL_PROPERTY
Grad RMS
SciTegic.value.DoubleValue
0.000000

@<SCITEGIC>MOL_PROPERTY
U
SciTegic.value.DoubleValue
0.039

@<SCITEGIC>MOL_PROPERTY
W
SciTegic.value.DoubleValue
-2.348

@<SCITEGIC>MOL_PROPERTY
W(PB)
SciTegic.value.DoubleValue
-3.918

@<SCITEGIC>MOL_PROPERTY
W(SA)
SciTegic.value.DoubleValue
1.571

@<SCITEGIC>MOL_PROPERTY
Valence
SciTegic.value.DoubleValue
7.320

@<SCITEGIC>MOL_PROPERTY
Coulomb
SciTegic.value.DoubleValue
-8.530

@<SCITEGIC>MOL_PROPERTY
VdW
SciTegic.value.DoubleValue
1.249

@<SCITEGIC>MOL_PROPERTY
VdW6
SciTegic.value.DoubleValue
-2.615

@<SCITEGIC>MOL_PROPERTY
VdW12
SciTegic.value.DoubleValue
3.864

@<SCITEGIC>MOL_PROPERTY
Bond
SciTegic.value.DoubleValue
0.056

@<SCITEGIC>MOL_PROPERTY
Angle
SciTegic.value.DoubleValue
0.694

@<SCITEGIC>MOL_PROPERTY
Pdih
SciTegic.value.DoubleValue
6.570

@<SCITEGIC>MOL_PROPERTY
Idih
SciTegic.value.DoubleValue
0.000

@<SCITEGIC>MOL_PROPERTY
Tether
SciTegic.value.DoubleValue
0.000

@<TRIPOS>MOLECULE
guest-s16_confgen4.mol2 : confsearch ligand conformer 691
          13          13           1
SMALL
USER_CHARGES
 
@<TRIPOS>ATOM
       1    C1      18.871051   18.104598   21.771743 C.3        1 MOL1        -0.1693
       2    H1      18.355773   17.530629   22.553173 H          1 MOL1         0.0829
       3    H2      18.524449   17.753079   20.792641 H          1 MOL1         0.0829
       4    C2      20.421074   18.212562   21.953622 C.3        1 MOL1        -0.1768
       5    H3      20.914291   17.353139   22.420622 H          1 MOL1         0.0829
       6    H4      20.972685   18.485458   21.045416 H          1 MOL1         0.0829
       7    C3      20.104431   19.409121   22.900634 C.3        1 MOL1         0.1211
       8    H5      19.849367   19.107096   23.925712 H          1 MOL1         0.0786
       9    C4      18.865924   19.654144   21.986708 C.3        1 MOL1        -0.1768
      10    H6      17.981277   20.069382   22.481833 H          1 MOL1         0.0829
      11    H7      19.074525   20.242499   21.084424 H          1 MOL1         0.0829
      12    O1      21.062474   20.441911   22.907155 O.3        1 MOL1        -0.5515
      13    H8      20.675407   21.194288   23.404459 H          1 MOL1         0.3773
@<TRIPOS>BOND
    1     1     2    1
    2     1     3    1
    3     1     4    1
    4     4     5    1
    5     4     6    1
    6     4     7    1
    7     7     8    1
    8     1     9    1
    9     7     9    1
   10     9    10    1
   11     9    11    1
   12     7    12    1
   13    12    13    1
@<TRIPOS>SUBSTRUCTURE
       1 MOL1            1 RESIDUE      1      MOL     
@<SCITEGIC>MOL_PROPERTY
VConf Rank
SciTegic.value.IntegerValue
691

@<SCITEGIC>MOL_PROPERTY
Conf_Id
SciTegic.value.IntegerValue
22

@<SCITEGIC>MOL_PROPERTY
Delta U+W
SciTegic.value.DoubleValue
0.000

@<SCITEGIC>MOL_PROPERTY
U+W
SciTegic.value.DoubleValue
-3.131

@<SCITEGIC>MOL_PROPERTY
Grad RMS
SciTegic.value.DoubleValue
0.000000

@<SCITEGIC>MOL_PROPERTY
U
SciTegic.value.DoubleValue
-0.154

@<SCITEGIC>MOL_PROPERTY
W
SciTegic.value.DoubleValue
-2.978

@<SCITEGIC>MOL_PROPERTY
W(PB)
SciTegic.value.DoubleValue
-4.579

@<SCITEGIC>MOL_PROPERTY
W(SA)
SciTegic.value.DoubleValue
1.601

@<SCITEGIC>MOL_PROPERTY
Valence
SciTegic.value.DoubleValue
6.333

@<SCITEGIC>MOL_PROPERTY
Coulomb
SciTegic.value.DoubleValue
-7.439

@<SCITEGIC>MOL_PROPERTY
VdW
SciTegic.value.DoubleValue
0.952

@<SCITEGIC>MOL_PROPERTY
VdW6
SciTegic.value.DoubleValue
-2.120

@<SCITEGIC>MOL_PROPERTY
VdW12
SciTegic.value.DoubleValue
3.072

@<SCITEGIC>MOL_PROPERTY
Bond
SciTegic.value.DoubleValue
0.065

@<SCITEGIC>MOL_PROPERTY
Angle
SciTegic.value.DoubleValue
0.931

@<SCITEGIC>MOL_PROPERTY
Pdih
SciTegic.value.DoubleValue
5.338

@<SCITEGIC>MOL_PROPERTY
Idih
SciTegic.value.DoubleValue
0.000

@<SCITEGIC>MOL_PROPERTY
Tether
SciTegic.value.DoubleValue
0.000

@<TRIPOS>MOLECULE
guest-s16_confgen4.mol2 : confsearch ligand conformer 692
          13          13           1
SMALL
USER_CHARGES
 
@<TRIPOS>ATOM
       1    C1      20.709221   18.923963   23.004397 C.3        1 MOL1        -0.1693
       2    H1      21.628845   19.166308   22.455628 H          1 MOL1         0.0829
       3    H2      20.971667   18.694732   24.044067 H          1 MOL1         0.0829
       4    C2      19.772104   17.895330   22.289515 C.3        1 MOL1        -0.1768
       5    H3      19.042607   17.406219   22.947085 H          1 MOL1         0.0829
       6    H4      20.269385   17.130075   21.683488 H          1 MOL1         0.0829
       7    C3      19.218134   19.126042   21.509990 C.3        1 MOL1         0.1211
       8    H5      19.826457   19.414642   20.641822 H          1 MOL1         0.0786
       9    C4      19.537852   19.940473   22.799690 C.3        1 MOL1        -0.1768
      10    H6      18.755392   19.901074   23.567666 H          1 MOL1         0.0829
      11    H7      19.826199   20.985693   22.643697 H          1 MOL1         0.0829
      12    O1      17.854248   19.056487   21.164267 O.3        1 MOL1        -0.5515
      13    H8      17.769987   18.393341   20.445698 H          1 MOL1         0.3773
@<TRIPOS>BOND
    1     1     2    1
    2     1     3    1
    3     1     4    1
    4     4     5    1
    5     4     6    1
    6     4     7    1
    7     7     8    1
    8     1     9    1
    9     7     9    1
   10     9    10    1
   11     9    11    1
   12     7    12    1
   13    12    13    1
@<TRIPOS>SUBSTRUCTURE
       1 MOL1            1 RESIDUE      1      MOL     
@<SCITEGIC>MOL_PROPERTY
VConf Rank
SciTegic.value.IntegerValue
692

@<SCITEGIC>MOL_PROPERTY
Conf_Id
SciTegic.value.IntegerValue
19

@<SCITEGIC>MOL_PROPERTY
Delta U+W
SciTegic.value.DoubleValue
-0.011

@<SCITEGIC>MOL_PROPERTY
U+W
SciTegic.value.DoubleValue
-3.142

@<SCITEGIC>MOL_PROPERTY
Grad RMS
SciTegic.value.DoubleValue
0.000000

@<SCITEGIC>MOL_PROPERTY
U
SciTegic.value.DoubleValue
-0.154

@<SCITEGIC>MOL_PROPERTY
W
SciTegic.value.DoubleValue
-2.989

@<SCITEGIC>MOL_PROPERTY
W(PB)
SciTegic.value.DoubleValue
-4.588

@<SCITEGIC>MOL_PROPERTY
W(SA)
SciTegic.value.DoubleValue
1.599

@<SCITEGIC>MOL_PROPERTY
Valence
SciTegic.value.DoubleValue
6.334

@<SCITEGIC>MOL_PROPERTY
Coulomb
SciTegic.value.DoubleValue
-7.439

@<SCITEGIC>MOL_PROPERTY
VdW
SciTegic.value.DoubleValue
0.951

@<SCITEGIC>MOL_PROPERTY
VdW6
SciTegic.value.DoubleValue
-2.120

@<SCITEGIC>MOL_PROPERTY
VdW12
SciTegic.value.DoubleValue
3.072

@<SCITEGIC>MOL_PROPERTY
Bond
SciTegic.value.DoubleValue
0.065

@<SCITEGIC>MOL_PROPERTY
Angle
SciTegic.value.DoubleValue
0.930

@<SCITEGIC>MOL_PROPERTY
Pdih
SciTegic.value.DoubleValue
5.339

@<SCITEGIC>MOL_PROPERTY
Idih
SciTegic.value.DoubleValue
0.000

@<SCITEGIC>MOL_PROPERTY
Tether
SciTegic.value.DoubleValue
0.000

@<TRIPOS>MOLECULE
guest-s16_confgen4.mol2 : confsearch ligand conformer 693
          13          13           1
SMALL
USER_CHARGES
 
@<TRIPOS>ATOM
       1    C1      20.623453   19.597336   21.790359 C.3        1 MOL1        -0.1693
       2    H1      21.264194   19.668670   20.903600 H          1 MOL1         0.0829
       3    H2      20.954982   20.343691   22.524013 H          1 MOL1         0.0829
       4    C2      20.413879   18.160772   22.374598 C.3        1 MOL1        -0.1768
       5    H3      20.443074   17.357444   21.628558 H          1 MOL1         0.0829
       6    H4      21.061374   17.883427   23.213779 H          1 MOL1         0.0829
       7    C3      18.974326   18.628354   22.754709 C.3        1 MOL1         0.1211
       8    H5      18.203456   17.851884   22.667147 H          1 MOL1         0.0786
       9    C4      19.081108   19.585278   21.526300 C.3        1 MOL1        -0.1768
      10    H6      18.569657   20.549336   21.623057 H          1 MOL1         0.0829
      11    H7      18.787263   19.127521   20.573889 H          1 MOL1         0.0829
      12    O1      18.870203   19.274310   24.007723 O.3        1 MOL1        -0.5515
      13    H8      17.974718   19.671671   24.056368 H          1 MOL1         0.3773
@<TRIPOS>BOND
    1     1     2    1
    2     1     3    1
    3     1     4    1
    4     4     5    1
    5     4     6    1
    6     4     7    1
    7     7     8    1
    8     1     9    1
    9     7     9    1
   10     9    10    1
   11     9    11    1
   12     7    12    1
   13    12    13    1
@<TRIPOS>SUBSTRUCTURE
       1 MOL1            1 RESIDUE      1      MOL     
@<SCITEGIC>MOL_PROPERTY
VConf Rank
SciTegic.value.IntegerValue
693

@<SCITEGIC>MOL_PROPERTY
Conf_Id
SciTegic.value.IntegerValue
20

@<SCITEGIC>MOL_PROPERTY
Delta U+W
SciTegic.value.DoubleValue
1.030

@<SCITEGIC>MOL_PROPERTY
U+W
SciTegic.value.DoubleValue
-2.101

@<SCITEGIC>MOL_PROPERTY
Grad RMS
SciTegic.value.DoubleValue
0.000000

@<SCITEGIC>MOL_PROPERTY
U
SciTegic.value.DoubleValue
0.841

@<SCITEGIC>MOL_PROPERTY
W
SciTegic.value.DoubleValue
-2.942

@<SCITEGIC>MOL_PROPERTY
W(PB)
SciTegic.value.DoubleValue
-4.530

@<SCITEGIC>MOL_PROPERTY
W(SA)
SciTegic.value.DoubleValue
1.587

@<SCITEGIC>MOL_PROPERTY
Valence
SciTegic.value.DoubleValue
6.736

@<SCITEGIC>MOL_PROPERTY
Coulomb
SciTegic.value.DoubleValue
-7.246

@<SCITEGIC>MOL_PROPERTY
VdW
SciTegic.value.DoubleValue
1.352

@<SCITEGIC>MOL_PROPERTY
VdW6
SciTegic.value.DoubleValue
-2.500

@<SCITEGIC>MOL_PROPERTY
VdW12
SciTegic.value.DoubleValue
3.851

@<SCITEGIC>MOL_PROPERTY
Bond
SciTegic.value.DoubleValue
0.063

@<SCITEGIC>MOL_PROPERTY
Angle
SciTegic.value.DoubleValue
0.687

@<SCITEGIC>MOL_PROPERTY
Pdih
SciTegic.value.DoubleValue
5.986

@<SCITEGIC>MOL_PROPERTY
Idih
SciTegic.value.DoubleValue
0.000

@<SCITEGIC>MOL_PROPERTY
Tether
SciTegic.value.DoubleValue
0.000

@<TRIPOS>MOLECULE
guest-s16_confgen4.mol2 : confsearch ligand conformer 694
          13          13           1
SMALL
USER_CHARGES
 
@<TRIPOS>ATOM
       1    C1      20.125379   18.020286   21.419076 C.3        1 MOL1        -0.1693
       2    H1      21.093508   17.540027   21.613359 H          1 MOL1         0.0829
       3    H2      19.677429   17.558244   20.531225 H          1 MOL1         0.0829
       4    C2      20.155549   19.584275   21.438688 C.3        1 MOL1        -0.1768
       5    H3      21.084100   20.052954   21.094559 H          1 MOL1         0.0829
       6    H4      19.309825   20.064565   20.931283 H          1 MOL1         0.0829
       7    C3      19.999461   19.445686   22.983222 C.3        1 MOL1         0.1211
       8    H5      20.945978   19.265727   23.510872 H          1 MOL1         0.0786
       9    C4      19.195566   18.147514   22.670723 C.3        1 MOL1        -0.1768
      10    H6      18.135274   18.306669   22.438692 H          1 MOL1         0.0829
      11    H7      19.276304   17.347316   23.414668 H          1 MOL1         0.0829
      12    O1      19.269268   20.472299   23.611474 O.3        1 MOL1        -0.5515
      13    H8      18.440961   20.587274   23.100193 H          1 MOL1         0.3773
@<TRIPOS>BOND
    1     1     2    1
    2     1     3    1
    3     1     4    1
    4     4     5    1
    5     4     6    1
    6     4     7    1
    7     7     8    1
    8     1     9    1
    9     7     9    1
   10     9    10    1
   11     9    11    1
   12     7    12    1
   13    12    13    1
@<TRIPOS>SUBSTRUCTURE
       1 MOL1            1 RESIDUE      1      MOL     
@<SCITEGIC>MOL_PROPERTY
VConf Rank
SciTegic.value.IntegerValue
694

@<SCITEGIC>MOL_PROPERTY
Conf_Id
SciTegic.value.IntegerValue
24

@<SCITEGIC>MOL_PROPERTY
Delta U+W
SciTegic.value.DoubleValue
0.356

@<SCITEGIC>MOL_PROPERTY
U+W
SciTegic.value.DoubleValue
-2.775

@<SCITEGIC>MOL_PROPERTY
Grad RMS
SciTegic.value.DoubleValue
0.000000

@<SCITEGIC>MOL_PROPERTY
U
SciTegic.value.DoubleValue
-0.184

@<SCITEGIC>MOL_PROPERTY
W
SciTegic.value.DoubleValue
-2.591

@<SCITEGIC>MOL_PROPERTY
W(PB)
SciTegic.value.DoubleValue
-4.184

@<SCITEGIC>MOL_PROPERTY
W(SA)
SciTegic.value.DoubleValue
1.593

@<SCITEGIC>MOL_PROPERTY
Valence
SciTegic.value.DoubleValue
6.840

@<SCITEGIC>MOL_PROPERTY
Coulomb
SciTegic.value.DoubleValue
-7.916

@<SCITEGIC>MOL_PROPERTY
VdW
SciTegic.value.DoubleValue
0.893

@<SCITEGIC>MOL_PROPERTY
VdW6
SciTegic.value.DoubleValue
-2.167

@<SCITEGIC>MOL_PROPERTY
VdW12
SciTegic.value.DoubleValue
3.060

@<SCITEGIC>MOL_PROPERTY
Bond
SciTegic.value.DoubleValue
0.059

@<SCITEGIC>MOL_PROPERTY
Angle
SciTegic.value.DoubleValue
0.918

@<SCITEGIC>MOL_PROPERTY
Pdih
SciTegic.value.DoubleValue
5.862

@<SCITEGIC>MOL_PROPERTY
Idih
SciTegic.value.DoubleValue
0.000

@<SCITEGIC>MOL_PROPERTY
Tether
SciTegic.value.DoubleValue
0.000

@<TRIPOS>MOLECULE
guest-s16_confgen4.mol2 : confsearch ligand conformer 695
          13          13           1
SMALL
USER_CHARGES
 
@<TRIPOS>ATOM
       1    C1      18.728883   18.631305   21.739190 C.3        1 MOL1        -0.1693
       2    H1      18.081079   17.776103   21.512577 H          1 MOL1         0.0829
       3    H2      18.250553   19.540319   21.352939 H          1 MOL1         0.0829
       4    C2      20.237584   18.467332   21.355693 C.3        1 MOL1        -0.1768
       5    H3      20.607776   17.435942   21.402680 H          1 MOL1         0.0829
       6    H4      20.542895   18.903489   20.397956 H          1 MOL1         0.0829
       7    C3      20.557606   19.316728   22.624592 C.3        1 MOL1         0.1211
       8    H5      21.471095   19.023002   23.157273 H          1 MOL1         0.0786
       9    C4      19.237778   18.731716   23.216038 C.3        1 MOL1        -0.1768
      10    H6      19.362830   17.765149   23.719153 H          1 MOL1         0.0829
      11    H7      18.672840   19.397995   23.877571 H          1 MOL1         0.0829
      12    O1      20.546339   20.713073   22.420090 O.3        1 MOL1        -0.5515
      13    H8      19.714600   20.915820   21.944257 H          1 MOL1         0.3773
@<TRIPOS>BOND
    1     1     2    1
    2     1     3    1
    3     1     4    1
    4     4     5    1
    5     4     6    1
    6     4     7    1
    7     7     8    1
    8     1     9    1
    9     7     9    1
   10     9    10    1
   11     9    11    1
   12     7    12    1
   13    12    13    1
@<TRIPOS>SUBSTRUCTURE
       1 MOL1            1 RESIDUE      1      MOL     
@<SCITEGIC>MOL_PROPERTY
VConf Rank
SciTegic.value.IntegerValue
695

@<SCITEGIC>MOL_PROPERTY
Conf_Id
SciTegic.value.IntegerValue
44

@<SCITEGIC>MOL_PROPERTY
Delta U+W
SciTegic.value.DoubleValue
0.823

@<SCITEGIC>MOL_PROPERTY
U+W
SciTegic.value.DoubleValue
-2.308

@<SCITEGIC>MOL_PROPERTY
Grad RMS
SciTegic.value.DoubleValue
0.000000

@<SCITEGIC>MOL_PROPERTY
U
SciTegic.value.DoubleValue
0.039

@<SCITEGIC>MOL_PROPERTY
W
SciTegic.value.DoubleValue
-2.348

@<SCITEGIC>MOL_PROPERTY
W(PB)
SciTegic.value.DoubleValue
-3.918

@<SCITEGIC>MOL_PROPERTY
W(SA)
SciTegic.value.DoubleValue
1.571

@<SCITEGIC>MOL_PROPERTY
Valence
SciTegic.value.DoubleValue
7.320

@<SCITEGIC>MOL_PROPERTY
Coulomb
SciTegic.value.DoubleValue
-8.530

@<SCITEGIC>MOL_PROPERTY
VdW
SciTegic.value.DoubleValue
1.249

@<SCITEGIC>MOL_PROPERTY
VdW6
SciTegic.value.DoubleValue
-2.615

@<SCITEGIC>MOL_PROPERTY
VdW12
SciTegic.value.DoubleValue
3.864

@<SCITEGIC>MOL_PROPERTY
Bond
SciTegic.value.DoubleValue
0.056

@<SCITEGIC>MOL_PROPERTY
Angle
SciTegic.value.DoubleValue
0.694

@<SCITEGIC>MOL_PROPERTY
Pdih
SciTegic.value.DoubleValue
6.570

@<SCITEGIC>MOL_PROPERTY
Idih
SciTegic.value.DoubleValue
0.000

@<SCITEGIC>MOL_PROPERTY
Tether
SciTegic.value.DoubleValue
0.000

@<TRIPOS>MOLECULE
guest-s16_confgen4.mol2 : confsearch ligand conformer 696
          13          13           1
SMALL
USER_CHARGES
 
@<TRIPOS>ATOM
       1    C1      20.719297   19.681735   21.772743 C.3        1 MOL1        -0.1693
       2    H1      20.863520   20.676071   22.215554 H          1 MOL1         0.0829
       3    H2      21.545907   19.483344   21.080143 H          1 MOL1         0.0829
       4    C2      19.280550   19.413985   21.219911 C.3        1 MOL1        -0.1768
       5    H3      18.750775   20.280814   20.810148 H          1 MOL1         0.0829
       6    H4      19.209963   18.586167   20.503447 H          1 MOL1         0.0829
       7    C3      18.919859   19.030667   22.686818 C.3        1 MOL1         0.1211
       8    H5      18.682237   19.893355   23.324288 H          1 MOL1         0.0786
       9    C4      20.397295   18.547631   22.801067 C.3        1 MOL1        -0.1768
      10    H6      20.857907   18.648296   23.789943 H          1 MOL1         0.0829
      11    H7      20.574051   17.529985   22.431003 H          1 MOL1         0.0829
      12    O1      17.944205   18.023731   22.823654 O.3        1 MOL1        -0.5515
      13    H8      17.927160   17.762127   23.769422 H          1 MOL1         0.3773
@<TRIPOS>BOND
    1     1     2    1
    2     1     3    1
    3     1     4    1
    4     4     5    1
    5     4     6    1
    6     4     7    1
    7     7     8    1
    8     1     9    1
    9     7     9    1
   10     9    10    1
   11     9    11    1
   12     7    12    1
   13    12    13    1
@<TRIPOS>SUBSTRUCTURE
       1 MOL1            1 RESIDUE      1      MOL     
@<SCITEGIC>MOL_PROPERTY
VConf Rank
SciTegic.value.IntegerValue
696

@<SCITEGIC>MOL_PROPERTY
Conf_Id
SciTegic.value.IntegerValue
22

@<SCITEGIC>MOL_PROPERTY
Delta U+W
SciTegic.value.DoubleValue
0.000

@<SCITEGIC>MOL_PROPERTY
U+W
SciTegic.value.DoubleValue
-3.131

@<SCITEGIC>MOL_PROPERTY
Grad RMS
SciTegic.value.DoubleValue
0.000000

@<SCITEGIC>MOL_PROPERTY
U
SciTegic.value.DoubleValue
-0.154

@<SCITEGIC>MOL_PROPERTY
W
SciTegic.value.DoubleValue
-2.978

@<SCITEGIC>MOL_PROPERTY
W(PB)
SciTegic.value.DoubleValue
-4.579

@<SCITEGIC>MOL_PROPERTY
W(SA)
SciTegic.value.DoubleValue
1.601

@<SCITEGIC>MOL_PROPERTY
Valence
SciTegic.value.DoubleValue
6.333

@<SCITEGIC>MOL_PROPERTY
Coulomb
SciTegic.value.DoubleValue
-7.439

@<SCITEGIC>MOL_PROPERTY
VdW
SciTegic.value.DoubleValue
0.952

@<SCITEGIC>MOL_PROPERTY
VdW6
SciTegic.value.DoubleValue
-2.120

@<SCITEGIC>MOL_PROPERTY
VdW12
SciTegic.value.DoubleValue
3.072

@<SCITEGIC>MOL_PROPERTY
Bond
SciTegic.value.DoubleValue
0.065

@<SCITEGIC>MOL_PROPERTY
Angle
SciTegic.value.DoubleValue
0.931

@<SCITEGIC>MOL_PROPERTY
Pdih
SciTegic.value.DoubleValue
5.338

@<SCITEGIC>MOL_PROPERTY
Idih
SciTegic.value.DoubleValue
0.000

@<SCITEGIC>MOL_PROPERTY
Tether
SciTegic.value.DoubleValue
0.000

@<TRIPOS>MOLECULE
guest-s16_confgen4.mol2 : confsearch ligand conformer 697
          13          13           1
SMALL
USER_CHARGES
 
@<TRIPOS>ATOM
       1    C1      20.853933   18.612312   22.624857 C.3        1 MOL1        -0.1693
       2    H1      21.258828   17.731619   22.109079 H          1 MOL1         0.0829
       3    H2      21.588750   18.954552   23.363270 H          1 MOL1         0.0829
       4    C2      19.385633   18.451594   23.140215 C.3        1 MOL1        -0.1768
       5    H3      19.092509   19.166949   23.918765 H          1 MOL1         0.0829
       6    H4      19.093728   17.444751   23.458384 H          1 MOL1         0.0829
       7    C3      18.963349   18.857406   21.695851 C.3        1 MOL1         0.1211
       8    H5      18.970505   18.025068   20.978757 H          1 MOL1         0.0786
       9    C4      20.266655   19.711790   21.679576 C.3        1 MOL1        -0.1768
      10    H6      20.165153   20.704226   22.136035 H          1 MOL1         0.0829
      11    H7      20.752601   19.820697   20.703894 H          1 MOL1         0.0829
      12    O1      17.762798   19.588421   21.601816 O.3        1 MOL1        -0.5515
      13    H8      17.027657   18.964996   21.786511 H          1 MOL1         0.3773
@<TRIPOS>BOND
    1     1     2    1
    2     1     3    1
    3     1     4    1
    4     4     5    1
    5     4     6    1
    6     4     7    1
    7     7     8    1
    8     1     9    1
    9     7     9    1
   10     9    10    1
   11     9    11    1
   12     7    12    1
   13    12    13    1
@<TRIPOS>SUBSTRUCTURE
       1 MOL1            1 RESIDUE      1      MOL     
@<SCITEGIC>MOL_PROPERTY
VConf Rank
SciTegic.value.IntegerValue
697

@<SCITEGIC>MOL_PROPERTY
Conf_Id
SciTegic.value.IntegerValue
19

@<SCITEGIC>MOL_PROPERTY
Delta U+W
SciTegic.value.DoubleValue
-0.011

@<SCITEGIC>MOL_PROPERTY
U+W
SciTegic.value.DoubleValue
-3.142

@<SCITEGIC>MOL_PROPERTY
Grad RMS
SciTegic.value.DoubleValue
0.000000

@<SCITEGIC>MOL_PROPERTY
U
SciTegic.value.DoubleValue
-0.154

@<SCITEGIC>MOL_PROPERTY
W
SciTegic.value.DoubleValue
-2.989

@<SCITEGIC>MOL_PROPERTY
W(PB)
SciTegic.value.DoubleValue
-4.588

@<SCITEGIC>MOL_PROPERTY
W(SA)
SciTegic.value.DoubleValue
1.599

@<SCITEGIC>MOL_PROPERTY
Valence
SciTegic.value.DoubleValue
6.334

@<SCITEGIC>MOL_PROPERTY
Coulomb
SciTegic.value.DoubleValue
-7.439

@<SCITEGIC>MOL_PROPERTY
VdW
SciTegic.value.DoubleValue
0.951

@<SCITEGIC>MOL_PROPERTY
VdW6
SciTegic.value.DoubleValue
-2.120

@<SCITEGIC>MOL_PROPERTY
VdW12
SciTegic.value.DoubleValue
3.072

@<SCITEGIC>MOL_PROPERTY
Bond
SciTegic.value.DoubleValue
0.065

@<SCITEGIC>MOL_PROPERTY
Angle
SciTegic.value.DoubleValue
0.930

@<SCITEGIC>MOL_PROPERTY
Pdih
SciTegic.value.DoubleValue
5.339

@<SCITEGIC>MOL_PROPERTY
Idih
SciTegic.value.DoubleValue
0.000

@<SCITEGIC>MOL_PROPERTY
Tether
SciTegic.value.DoubleValue
0.000

@<TRIPOS>MOLECULE
guest-s16_confgen4.mol2 : confsearch ligand conformer 698
          13          13           1
SMALL
USER_CHARGES
 
@<TRIPOS>ATOM
       1    C1      20.382740   19.295865   21.333722 C.3        1 MOL1        -0.1693
       2    H1      20.679327   20.044194   20.589399 H          1 MOL1         0.0829
       3    H2      21.051356   18.429543   21.246285 H          1 MOL1         0.0829
       4    C2      18.859881   18.938733   21.381989 C.3        1 MOL1        -0.1768
       5    H3      18.190384   19.762534   21.106505 H          1 MOL1         0.0829
       6    H4      18.558159   18.042134   20.829299 H          1 MOL1         0.0829
       7    C3      19.048770   18.755426   22.920218 C.3        1 MOL1         0.1211
       8    H5      18.189474   19.069102   23.526872 H          1 MOL1         0.0786
       9    C4      20.183993   19.819231   22.794985 C.3        1 MOL1        -0.1768
      10    H6      21.037026   19.692615   23.470747 H          1 MOL1         0.0829
      11    H7      19.835839   20.857153   22.861923 H          1 MOL1         0.0829
      12    O1      19.477497   17.468413   23.317631 O.3        1 MOL1        -0.5515
      13    H8      19.727242   17.524752   24.264525 H          1 MOL1         0.3773
@<TRIPOS>BOND
    1     1     2    1
    2     1     3    1
    3     1     4    1
    4     4     5    1
    5     4     6    1
    6     4     7    1
    7     7     8    1
    8     1     9    1
    9     7     9    1
   10     9    10    1
   11     9    11    1
   12     7    12    1
   13    12    13    1
@<TRIPOS>SUBSTRUCTURE
       1 MOL1            1 RESIDUE      1      MOL     
@<SCITEGIC>MOL_PROPERTY
VConf Rank
SciTegic.value.IntegerValue
698

@<SCITEGIC>MOL_PROPERTY
Conf_Id
SciTegic.value.IntegerValue
20

@<SCITEGIC>MOL_PROPERTY
Delta U+W
SciTegic.value.DoubleValue
1.030

@<SCITEGIC>MOL_PROPERTY
U+W
SciTegic.value.DoubleValue
-2.101

@<SCITEGIC>MOL_PROPERTY
Grad RMS
SciTegic.value.DoubleValue
0.000000

@<SCITEGIC>MOL_PROPERTY
U
SciTegic.value.DoubleValue
0.841

@<SCITEGIC>MOL_PROPERTY
W
SciTegic.value.DoubleValue
-2.942

@<SCITEGIC>MOL_PROPERTY
W(PB)
SciTegic.value.DoubleValue
-4.530

@<SCITEGIC>MOL_PROPERTY
W(SA)
SciTegic.value.DoubleValue
1.587

@<SCITEGIC>MOL_PROPERTY
Valence
SciTegic.value.DoubleValue
6.736

@<SCITEGIC>MOL_PROPERTY
Coulomb
SciTegic.value.DoubleValue
-7.246

@<SCITEGIC>MOL_PROPERTY
VdW
SciTegic.value.DoubleValue
1.352

@<SCITEGIC>MOL_PROPERTY
VdW6
SciTegic.value.DoubleValue
-2.500

@<SCITEGIC>MOL_PROPERTY
VdW12
SciTegic.value.DoubleValue
3.851

@<SCITEGIC>MOL_PROPERTY
Bond
SciTegic.value.DoubleValue
0.063

@<SCITEGIC>MOL_PROPERTY
Angle
SciTegic.value.DoubleValue
0.687

@<SCITEGIC>MOL_PROPERTY
Pdih
SciTegic.value.DoubleValue
5.986

@<SCITEGIC>MOL_PROPERTY
Idih
SciTegic.value.DoubleValue
0.000

@<SCITEGIC>MOL_PROPERTY
Tether
SciTegic.value.DoubleValue
0.000

@<TRIPOS>MOLECULE
guest-s16_confgen4.mol2 : confsearch ligand conformer 699
          13          13           1
SMALL
USER_CHARGES
 
@<TRIPOS>ATOM
       1    C1      18.747997   19.304196   22.934668 C.3        1 MOL1        -0.1693
       2    H1      17.772943   19.422002   22.443688 H          1 MOL1         0.0829
       3    H2      18.632119   19.529584   24.001529 H          1 MOL1         0.0829
       4    C2      19.936640   20.015084   22.207259 C.3        1 MOL1        -0.1768
       5    H3      19.692570   20.942923   21.678263 H          1 MOL1         0.0829
       6    H4      20.818769   20.189758   22.835529 H          1 MOL1         0.0829
       7    C3      20.004258   18.731358   21.325992 C.3        1 MOL1         0.1211
       8    H5      19.290941   18.728076   20.490611 H          1 MOL1         0.0786
       9    C4      19.497085   17.974594   22.590602 C.3        1 MOL1        -0.1768
      10    H6      20.280969   17.693193   23.304555 H          1 MOL1         0.0829
      11    H7      18.864825   17.100369   22.400156 H          1 MOL1         0.0829
      12    O1      21.290240   18.370735   20.880999 O.3        1 MOL1        -0.5515
      13    H8      21.879247   18.390964   21.664185 H          1 MOL1         0.3773
@<TRIPOS>BOND
    1     1     2    1
    2     1     3    1
    3     1     4    1
    4     4     5    1
    5     4     6    1
    6     4     7    1
    7     7     8    1
    8     1     9    1
    9     7     9    1
   10     9    10    1
   11     9    11    1
   12     7    12    1
   13    12    13    1
@<TRIPOS>SUBSTRUCTURE
       1 MOL1            1 RESIDUE      1      MOL     
@<SCITEGIC>MOL_PROPERTY
VConf Rank
SciTegic.value.IntegerValue
699

@<SCITEGIC>MOL_PROPERTY
Conf_Id
SciTegic.value.IntegerValue
24

@<SCITEGIC>MOL_PROPERTY
Delta U+W
SciTegic.value.DoubleValue
0.356

@<SCITEGIC>MOL_PROPERTY
U+W
SciTegic.value.DoubleValue
-2.775

@<SCITEGIC>MOL_PROPERTY
Grad RMS
SciTegic.value.DoubleValue
0.000000

@<SCITEGIC>MOL_PROPERTY
U
SciTegic.value.DoubleValue
-0.184

@<SCITEGIC>MOL_PROPERTY
W
SciTegic.value.DoubleValue
-2.591

@<SCITEGIC>MOL_PROPERTY
W(PB)
SciTegic.value.DoubleValue
-4.184

@<SCITEGIC>MOL_PROPERTY
W(SA)
SciTegic.value.DoubleValue
1.593

@<SCITEGIC>MOL_PROPERTY
Valence
SciTegic.value.DoubleValue
6.840

@<SCITEGIC>MOL_PROPERTY
Coulomb
SciTegic.value.DoubleValue
-7.916

@<SCITEGIC>MOL_PROPERTY
VdW
SciTegic.value.DoubleValue
0.893

@<SCITEGIC>MOL_PROPERTY
VdW6
SciTegic.value.DoubleValue
-2.167

@<SCITEGIC>MOL_PROPERTY
VdW12
SciTegic.value.DoubleValue
3.060

@<SCITEGIC>MOL_PROPERTY
Bond
SciTegic.value.DoubleValue
0.059

@<SCITEGIC>MOL_PROPERTY
Angle
SciTegic.value.DoubleValue
0.918

@<SCITEGIC>MOL_PROPERTY
Pdih
SciTegic.value.DoubleValue
5.862

@<SCITEGIC>MOL_PROPERTY
Idih
SciTegic.value.DoubleValue
0.000

@<SCITEGIC>MOL_PROPERTY
Tether
SciTegic.value.DoubleValue
0.000

@<TRIPOS>MOLECULE
guest-s16_confgen4.mol2 : confsearch ligand conformer 700
          13          13           1
SMALL
USER_CHARGES
 
@<TRIPOS>ATOM
       1    C1      19.372081   18.058917   22.785161 C.3        1 MOL1        -0.1693
       2    H1      18.685865   17.657326   23.540281 H          1 MOL1         0.0829
       3    H2      20.020840   17.244567   22.438402 H          1 MOL1         0.0829
       4    C2      20.120930   19.377481   23.173428 C.3        1 MOL1        -0.1768
       5    H3      19.561106   20.034251   23.850382 H          1 MOL1         0.0829
       6    H4      21.137288   19.258519   23.565311 H          1 MOL1         0.0829
       7    C3      20.012555   19.773706   21.668352 C.3        1 MOL1         0.1211
       8    H5      19.855366   20.844106   21.483902 H          1 MOL1         0.0786
       9    C4      18.714974   18.907809   21.645982 C.3        1 MOL1        -0.1768
      10    H6      17.810432   19.449420   21.948429 H          1 MOL1         0.0829
      11    H7      18.507567   18.380035   20.708354 H          1 MOL1         0.0829
      12    O1      21.059121   19.292350   20.853046 O.3        1 MOL1        -0.5515
      13    H8      21.153731   18.339484   21.058978 H          1 MOL1         0.3773
@<TRIPOS>BOND
    1     1     2    1
    2     1     3    1
    3     1     4    1
    4     4     5    1
    5     4     6    1
    6     4     7    1
    7     7     8    1
    8     1     9    1
    9     7     9    1
   10     9    10    1
   11     9    11    1
   12     7    12    1
   13    12    13    1
@<TRIPOS>SUBSTRUCTURE
       1 MOL1            1 RESIDUE      1      MOL     
@<SCITEGIC>MOL_PROPERTY
VConf Rank
SciTegic.value.IntegerValue
700

@<SCITEGIC>MOL_PROPERTY
Conf_Id
SciTegic.value.IntegerValue
44

@<SCITEGIC>MOL_PROPERTY
Delta U+W
SciTegic.value.DoubleValue
0.823

@<SCITEGIC>MOL_PROPERTY
U+W
SciTegic.value.DoubleValue
-2.308

@<SCITEGIC>MOL_PROPERTY
Grad RMS
SciTegic.value.DoubleValue
0.000000

@<SCITEGIC>MOL_PROPERTY
U
SciTegic.value.DoubleValue
0.039

@<SCITEGIC>MOL_PROPERTY
W
SciTegic.value.DoubleValue
-2.348

@<SCITEGIC>MOL_PROPERTY
W(PB)
SciTegic.value.DoubleValue
-3.918

@<SCITEGIC>MOL_PROPERTY
W(SA)
SciTegic.value.DoubleValue
1.571

@<SCITEGIC>MOL_PROPERTY
Valence
SciTegic.value.DoubleValue
7.320

@<SCITEGIC>MOL_PROPERTY
Coulomb
SciTegic.value.DoubleValue
-8.530

@<SCITEGIC>MOL_PROPERTY
VdW
SciTegic.value.DoubleValue
1.249

@<SCITEGIC>MOL_PROPERTY
VdW6
SciTegic.value.DoubleValue
-2.615

@<SCITEGIC>MOL_PROPERTY
VdW12
SciTegic.value.DoubleValue
3.864

@<SCITEGIC>MOL_PROPERTY
Bond
SciTegic.value.DoubleValue
0.056

@<SCITEGIC>MOL_PROPERTY
Angle
SciTegic.value.DoubleValue
0.694

@<SCITEGIC>MOL_PROPERTY
Pdih
SciTegic.value.DoubleValue
6.570

@<SCITEGIC>MOL_PROPERTY
Idih
SciTegic.value.DoubleValue
0.000

@<SCITEGIC>MOL_PROPERTY
Tether
SciTegic.value.DoubleValue
0.000

@<TRIPOS>MOLECULE
guest-s16_confgen4.mol2 : confsearch ligand conformer 701
          13          13           1
SMALL
USER_CHARGES
 
@<TRIPOS>ATOM
       1    C1      20.023593   18.797465   23.494915 C.3        1 MOL1        -0.1693
       2    H1      20.575285   19.623816   23.962211 H          1 MOL1         0.0829
       3    H2      19.881665   18.005406   24.239788 H          1 MOL1         0.0829
       4    C2      20.579995   18.342166   22.105517 C.3        1 MOL1        -0.1768
       5    H3      21.663074   18.428829   21.966263 H          1 MOL1         0.0829
       6    H4      20.262429   17.340975   21.788730 H          1 MOL1         0.0829
       7    C3      19.726038   19.506168   21.518402 C.3        1 MOL1         0.1211
       8    H5      20.219554   20.486464   21.568631 H          1 MOL1         0.0786
       9    C4      18.747567   19.229327   22.699565 C.3        1 MOL1        -0.1768
      10    H6      18.208966   20.100550   23.088219 H          1 MOL1         0.0829
      11    H7      18.027558   18.422192   22.515401 H          1 MOL1         0.0829
      12    O1      19.198606   19.276936   20.232395 O.3        1 MOL1        -0.5515
      13    H8      18.558398   19.997612   20.048105 H          1 MOL1         0.3773
@<TRIPOS>BOND
    1     1     2    1
    2     1     3    1
    3     1     4    1
    4     4     5    1
    5     4     6    1
    6     4     7    1
    7     7     8    1
    8     1     9    1
    9     7     9    1
   10     9    10    1
   11     9    11    1
   12     7    12    1
   13    12    13    1
@<TRIPOS>SUBSTRUCTURE
       1 MOL1            1 RESIDUE      1      MOL     
@<SCITEGIC>MOL_PROPERTY
VConf Rank
SciTegic.value.IntegerValue
701

@<SCITEGIC>MOL_PROPERTY
Conf_Id
SciTegic.value.IntegerValue
22

@<SCITEGIC>MOL_PROPERTY
Delta U+W
SciTegic.value.DoubleValue
0.000

@<SCITEGIC>MOL_PROPERTY
U+W
SciTegic.value.DoubleValue
-3.131

@<SCITEGIC>MOL_PROPERTY
Grad RMS
SciTegic.value.DoubleValue
0.000000

@<SCITEGIC>MOL_PROPERTY
U
SciTegic.value.DoubleValue
-0.154

@<SCITEGIC>MOL_PROPERTY
W
SciTegic.value.DoubleValue
-2.978

@<SCITEGIC>MOL_PROPERTY
W(PB)
SciTegic.value.DoubleValue
-4.579

@<SCITEGIC>MOL_PROPERTY
W(SA)
SciTegic.value.DoubleValue
1.601

@<SCITEGIC>MOL_PROPERTY
Valence
SciTegic.value.DoubleValue
6.333

@<SCITEGIC>MOL_PROPERTY
Coulomb
SciTegic.value.DoubleValue
-7.439

@<SCITEGIC>MOL_PROPERTY
VdW
SciTegic.value.DoubleValue
0.952

@<SCITEGIC>MOL_PROPERTY
VdW6
SciTegic.value.DoubleValue
-2.120

@<SCITEGIC>MOL_PROPERTY
VdW12
SciTegic.value.DoubleValue
3.072

@<SCITEGIC>MOL_PROPERTY
Bond
SciTegic.value.DoubleValue
0.065

@<SCITEGIC>MOL_PROPERTY
Angle
SciTegic.value.DoubleValue
0.931

@<SCITEGIC>MOL_PROPERTY
Pdih
SciTegic.value.DoubleValue
5.338

@<SCITEGIC>MOL_PROPERTY
Idih
SciTegic.value.DoubleValue
0.000

@<SCITEGIC>MOL_PROPERTY
Tether
SciTegic.value.DoubleValue
0.000

@<TRIPOS>MOLECULE
guest-s16_confgen4.mol2 : confsearch ligand conformer 702
          13          13           1
SMALL
USER_CHARGES
 
@<TRIPOS>ATOM
       1    C1      20.645161   18.551365   23.000501 C.3        1 MOL1        -0.1693
       2    H1      21.253683   17.755867   22.550534 H          1 MOL1         0.0829
       3    H2      21.041791   18.774072   23.998210 H          1 MOL1         0.0829
       4    C2      19.100015   18.323903   22.910414 C.3        1 MOL1        -0.1768
       5    H3      18.507743   18.915717   23.619472 H          1 MOL1         0.0829
       6    H4      18.762663   17.282449   22.952114 H          1 MOL1         0.0829
       7    C3      19.214324   18.945047   21.485526 C.3        1 MOL1         0.1211
       8    H5      19.524132   18.230085   20.710987 H          1 MOL1         0.0786
       9    C4      20.389390   19.784158   22.072005 C.3        1 MOL1        -0.1768
      10    H6      20.079014   20.697194   22.595089 H          1 MOL1         0.0829
      11    H7      21.191820   20.035690   21.370009 H          1 MOL1         0.0829
      12    O1      18.096088   19.689222   21.060907 O.3        1 MOL1        -0.5515
      13    H8      17.376276   19.049611   20.871243 H          1 MOL1         0.3773
@<TRIPOS>BOND
    1     1     2    1
    2     1     3    1
    3     1     4    1
    4     4     5    1
    5     4     6    1
    6     4     7    1
    7     7     8    1
    8     1     9    1
    9     7     9    1
   10     9    10    1
   11     9    11    1
   12     7    12    1
   13    12    13    1
@<TRIPOS>SUBSTRUCTURE
       1 MOL1            1 RESIDUE      1      MOL     
@<SCITEGIC>MOL_PROPERTY
VConf Rank
SciTegic.value.IntegerValue
702

@<SCITEGIC>MOL_PROPERTY
Conf_Id
SciTegic.value.IntegerValue
19

@<SCITEGIC>MOL_PROPERTY
Delta U+W
SciTegic.value.DoubleValue
-0.011

@<SCITEGIC>MOL_PROPERTY
U+W
SciTegic.value.DoubleValue
-3.142

@<SCITEGIC>MOL_PROPERTY
Grad RMS
SciTegic.value.DoubleValue
0.000000

@<SCITEGIC>MOL_PROPERTY
U
SciTegic.value.DoubleValue
-0.154

@<SCITEGIC>MOL_PROPERTY
W
SciTegic.value.DoubleValue
-2.989

@<SCITEGIC>MOL_PROPERTY
W(PB)
SciTegic.value.DoubleValue
-4.588

@<SCITEGIC>MOL_PROPERTY
W(SA)
SciTegic.value.DoubleValue
1.599

@<SCITEGIC>MOL_PROPERTY
Valence
SciTegic.value.DoubleValue
6.334

@<SCITEGIC>MOL_PROPERTY
Coulomb
SciTegic.value.DoubleValue
-7.439

@<SCITEGIC>MOL_PROPERTY
VdW
SciTegic.value.DoubleValue
0.951

@<SCITEGIC>MOL_PROPERTY
VdW6
SciTegic.value.DoubleValue
-2.120

@<SCITEGIC>MOL_PROPERTY
VdW12
SciTegic.value.DoubleValue
3.072

@<SCITEGIC>MOL_PROPERTY
Bond
SciTegic.value.DoubleValue
0.065

@<SCITEGIC>MOL_PROPERTY
Angle
SciTegic.value.DoubleValue
0.930

@<SCITEGIC>MOL_PROPERTY
Pdih
SciTegic.value.DoubleValue
5.339

@<SCITEGIC>MOL_PROPERTY
Idih
SciTegic.value.DoubleValue
0.000

@<SCITEGIC>MOL_PROPERTY
Tether
SciTegic.value.DoubleValue
0.000

@<TRIPOS>MOLECULE
guest-s16_confgen4.mol2 : confsearch ligand conformer 703
          13          13           1
SMALL
USER_CHARGES
 
@<TRIPOS>ATOM
       1    C1      18.994147   18.933358   23.327049 C.3        1 MOL1        -0.1693
       2    H1      18.959801   19.184310   24.393735 H          1 MOL1         0.0829
       3    H2      18.066606   18.410686   23.059302 H          1 MOL1         0.0829
       4    C2      20.301483   18.234240   22.825971 C.3        1 MOL1        -0.1768
       5    H3      21.208549   18.520737   23.371789 H          1 MOL1         0.0829
       6    H4      20.265790   17.141521   22.754662 H          1 MOL1         0.0829
       7    C3      20.089281   19.008287   21.487596 C.3        1 MOL1         0.1211
       8    H5      21.015015   19.336956   20.997897 H          1 MOL1         0.0786
       9    C4      19.387748   20.097384   22.358121 C.3        1 MOL1        -0.1768
      10    H6      18.555842   20.629004   21.883080 H          1 MOL1         0.0829
      11    H7      20.073204   20.836105   22.791036 H          1 MOL1         0.0829
      12    O1      19.250934   18.360088   20.552097 O.3        1 MOL1        -0.5515
      13    H8      19.053286   19.007020   19.841765 H          1 MOL1         0.3773
@<TRIPOS>BOND
    1     1     2    1
    2     1     3    1
    3     1     4    1
    4     4     5    1
    5     4     6    1
    6     4     7    1
    7     7     8    1
    8     1     9    1
    9     7     9    1
   10     9    10    1
   11     9    11    1
   12     7    12    1
   13    12    13    1
@<TRIPOS>SUBSTRUCTURE
       1 MOL1            1 RESIDUE      1      MOL     
@<SCITEGIC>MOL_PROPERTY
VConf Rank
SciTegic.value.IntegerValue
703

@<SCITEGIC>MOL_PROPERTY
Conf_Id
SciTegic.value.IntegerValue
20

@<SCITEGIC>MOL_PROPERTY
Delta U+W
SciTegic.value.DoubleValue
1.030

@<SCITEGIC>MOL_PROPERTY
U+W
SciTegic.value.DoubleValue
-2.101

@<SCITEGIC>MOL_PROPERTY
Grad RMS
SciTegic.value.DoubleValue
0.000000

@<SCITEGIC>MOL_PROPERTY
U
SciTegic.value.DoubleValue
0.841

@<SCITEGIC>MOL_PROPERTY
W
SciTegic.value.DoubleValue
-2.942

@<SCITEGIC>MOL_PROPERTY
W(PB)
SciTegic.value.DoubleValue
-4.530

@<SCITEGIC>MOL_PROPERTY
W(SA)
SciTegic.value.DoubleValue
1.587

@<SCITEGIC>MOL_PROPERTY
Valence
SciTegic.value.DoubleValue
6.736

@<SCITEGIC>MOL_PROPERTY
Coulomb
SciTegic.value.DoubleValue
-7.246

@<SCITEGIC>MOL_PROPERTY
VdW
SciTegic.value.DoubleValue
1.352

@<SCITEGIC>MOL_PROPERTY
VdW6
SciTegic.value.DoubleValue
-2.500

@<SCITEGIC>MOL_PROPERTY
VdW12
SciTegic.value.DoubleValue
3.851

@<SCITEGIC>MOL_PROPERTY
Bond
SciTegic.value.DoubleValue
0.063

@<SCITEGIC>MOL_PROPERTY
Angle
SciTegic.value.DoubleValue
0.687

@<SCITEGIC>MOL_PROPERTY
Pdih
SciTegic.value.DoubleValue
5.986

@<SCITEGIC>MOL_PROPERTY
Idih
SciTegic.value.DoubleValue
0.000

@<SCITEGIC>MOL_PROPERTY
Tether
SciTegic.value.DoubleValue
0.000

@<TRIPOS>MOLECULE
guest-s16_confgen4.mol2 : confsearch ligand conformer 704
          13          13           1
SMALL
USER_CHARGES
 
@<TRIPOS>ATOM
       1    C1      19.981473   19.170453   23.453354 C.3        1 MOL1        -0.1693
       2    H1      19.128818   19.396924   24.107081 H          1 MOL1         0.0829
       3    H2      20.897590   19.183746   24.055828 H          1 MOL1         0.0829
       4    C2      20.021942   19.992426   22.122911 C.3        1 MOL1        -0.1768
       5    H3      19.617928   21.009600   22.172116 H          1 MOL1         0.0829
       6    H4      21.004492   20.027153   21.636311 H          1 MOL1         0.0829
       7    C3      19.053427   18.905797   21.565799 C.3        1 MOL1         0.1211
       8    H5      17.999061   19.077237   21.821953 H          1 MOL1         0.0786
       9    C4      19.784352   17.923197   22.529853 C.3        1 MOL1        -0.1768
      10    H6      20.713797   17.495426   22.134211 H          1 MOL1         0.0829
      11    H7      19.170509   17.112926   22.938448 H          1 MOL1         0.0829
      12    O1      19.190076   18.620335   20.194065 O.3        1 MOL1        -0.5515
      13    H8      20.145136   18.477617   20.026105 H          1 MOL1         0.3773
@<TRIPOS>BOND
    1     1     2    1
    2     1     3    1
    3     1     4    1
    4     4     5    1
    5     4     6    1
    6     4     7    1
    7     7     8    1
    8     1     9    1
    9     7     9    1
   10     9    10    1
   11     9    11    1
   12     7    12    1
   13    12    13    1
@<TRIPOS>SUBSTRUCTURE
       1 MOL1            1 RESIDUE      1      MOL     
@<SCITEGIC>MOL_PROPERTY
VConf Rank
SciTegic.value.IntegerValue
704

@<SCITEGIC>MOL_PROPERTY
Conf_Id
SciTegic.value.IntegerValue
24

@<SCITEGIC>MOL_PROPERTY
Delta U+W
SciTegic.value.DoubleValue
0.356

@<SCITEGIC>MOL_PROPERTY
U+W
SciTegic.value.DoubleValue
-2.775

@<SCITEGIC>MOL_PROPERTY
Grad RMS
SciTegic.value.DoubleValue
0.000000

@<SCITEGIC>MOL_PROPERTY
U
SciTegic.value.DoubleValue
-0.184

@<SCITEGIC>MOL_PROPERTY
W
SciTegic.value.DoubleValue
-2.591

@<SCITEGIC>MOL_PROPERTY
W(PB)
SciTegic.value.DoubleValue
-4.184

@<SCITEGIC>MOL_PROPERTY
W(SA)
SciTegic.value.DoubleValue
1.593

@<SCITEGIC>MOL_PROPERTY
Valence
SciTegic.value.DoubleValue
6.840

@<SCITEGIC>MOL_PROPERTY
Coulomb
SciTegic.value.DoubleValue
-7.916

@<SCITEGIC>MOL_PROPERTY
VdW
SciTegic.value.DoubleValue
0.893

@<SCITEGIC>MOL_PROPERTY
VdW6
SciTegic.value.DoubleValue
-2.167

@<SCITEGIC>MOL_PROPERTY
VdW12
SciTegic.value.DoubleValue
3.060

@<SCITEGIC>MOL_PROPERTY
Bond
SciTegic.value.DoubleValue
0.059

@<SCITEGIC>MOL_PROPERTY
Angle
SciTegic.value.DoubleValue
0.918

@<SCITEGIC>MOL_PROPERTY
Pdih
SciTegic.value.DoubleValue
5.862

@<SCITEGIC>MOL_PROPERTY
Idih
SciTegic.value.DoubleValue
0.000

@<SCITEGIC>MOL_PROPERTY
Tether
SciTegic.value.DoubleValue
0.000

@<TRIPOS>MOLECULE
guest-s16_confgen4.mol2 : confsearch ligand conformer 705
          13          13           1
SMALL
USER_CHARGES
 
@<TRIPOS>ATOM
       1    C1      19.022086   19.870562   22.284644 C.3        1 MOL1        -0.1693
       2    H1      18.732110   20.738656   22.888547 H          1 MOL1         0.0829
       3    H2      18.412908   19.864322   21.371868 H          1 MOL1         0.0829
       4    C2      19.088284   18.501988   23.041455 C.3        1 MOL1        -0.1768
       5    H3      19.358932   18.582659   24.101293 H          1 MOL1         0.0829
       6    H4      18.205056   17.859138   22.955666 H          1 MOL1         0.0829
       7    C3      20.284030   18.146307   22.104613 C.3        1 MOL1         0.1211
       8    H5      21.077537   17.552262   22.575725 H          1 MOL1         0.0786
       9    C4      20.558405   19.681224   22.052242 C.3        1 MOL1        -0.1768
      10    H6      21.189503   20.051027   22.869539 H          1 MOL1         0.0829
      11    H7      20.954791   20.064799   21.105428 H          1 MOL1         0.0829
      12    O1      19.917067   17.568484   20.870438 O.3        1 MOL1        -0.5515
      13    H8      19.211149   18.136543   20.498549 H          1 MOL1         0.3773
@<TRIPOS>BOND
    1     1     2    1
    2     1     3    1
    3     1     4    1
    4     4     5    1
    5     4     6    1
    6     4     7    1
    7     7     8    1
    8     1     9    1
    9     7     9    1
   10     9    10    1
   11     9    11    1
   12     7    12    1
   13    12    13    1
@<TRIPOS>SUBSTRUCTURE
       1 MOL1            1 RESIDUE      1      MOL     
@<SCITEGIC>MOL_PROPERTY
VConf Rank
SciTegic.value.IntegerValue
705

@<SCITEGIC>MOL_PROPERTY
Conf_Id
SciTegic.value.IntegerValue
44

@<SCITEGIC>MOL_PROPERTY
Delta U+W
SciTegic.value.DoubleValue
0.823

@<SCITEGIC>MOL_PROPERTY
U+W
SciTegic.value.DoubleValue
-2.308

@<SCITEGIC>MOL_PROPERTY
Grad RMS
SciTegic.value.DoubleValue
0.000000

@<SCITEGIC>MOL_PROPERTY
U
SciTegic.value.DoubleValue
0.039

@<SCITEGIC>MOL_PROPERTY
W
SciTegic.value.DoubleValue
-2.348

@<SCITEGIC>MOL_PROPERTY
W(PB)
SciTegic.value.DoubleValue
-3.918

@<SCITEGIC>MOL_PROPERTY
W(SA)
SciTegic.value.DoubleValue
1.571

@<SCITEGIC>MOL_PROPERTY
Valence
SciTegic.value.DoubleValue
7.320

@<SCITEGIC>MOL_PROPERTY
Coulomb
SciTegic.value.DoubleValue
-8.530

@<SCITEGIC>MOL_PROPERTY
VdW
SciTegic.value.DoubleValue
1.249

@<SCITEGIC>MOL_PROPERTY
VdW6
SciTegic.value.DoubleValue
-2.615

@<SCITEGIC>MOL_PROPERTY
VdW12
SciTegic.value.DoubleValue
3.864

@<SCITEGIC>MOL_PROPERTY
Bond
SciTegic.value.DoubleValue
0.056

@<SCITEGIC>MOL_PROPERTY
Angle
SciTegic.value.DoubleValue
0.694

@<SCITEGIC>MOL_PROPERTY
Pdih
SciTegic.value.DoubleValue
6.570

@<SCITEGIC>MOL_PROPERTY
Idih
SciTegic.value.DoubleValue
0.000

@<SCITEGIC>MOL_PROPERTY
Tether
SciTegic.value.DoubleValue
0.000

@<TRIPOS>MOLECULE
guest-s16_confgen4.mol2 : confsearch ligand conformer 706
          13          13           1
SMALL
USER_CHARGES
 
@<TRIPOS>ATOM
       1    C1      19.910648   17.900903   22.862988 C.3        1 MOL1        -0.1693
       2    H1      20.317142   17.125953   22.199813 H          1 MOL1         0.0829
       3    H2      19.871920   17.503223   23.884109 H          1 MOL1         0.0829
       4    C2      18.604757   18.587838   22.343300 C.3        1 MOL1        -0.1768
       5    H3      17.929242   17.958847   21.753375 H          1 MOL1         0.0829
       6    H4      18.020907   19.107451   23.113175 H          1 MOL1         0.0829
       7    C3      19.559691   19.509074   21.525821 C.3        1 MOL1         0.1211
       8    H5      19.892048   19.070057   20.575102 H          1 MOL1         0.0786
       9    C4      20.565983   19.311989   22.699587 C.3        1 MOL1        -0.1768
      10    H6      21.626852   19.322293   22.426419 H          1 MOL1         0.0829
      11    H7      20.413436   19.989105   23.549315 H          1 MOL1         0.0829
      12    O1      19.106328   20.829263   21.335798 O.3        1 MOL1        -0.5515
      13    H8      19.853773   21.341910   20.959338 H          1 MOL1         0.3773
@<TRIPOS>BOND
    1     1     2    1
    2     1     3    1
    3     1     4    1
    4     4     5    1
    5     4     6    1
    6     4     7    1
    7     7     8    1
    8     1     9    1
    9     7     9    1
   10     9    10    1
   11     9    11    1
   12     7    12    1
   13    12    13    1
@<TRIPOS>SUBSTRUCTURE
       1 MOL1            1 RESIDUE      1      MOL     
@<SCITEGIC>MOL_PROPERTY
VConf Rank
SciTegic.value.IntegerValue
706

@<SCITEGIC>MOL_PROPERTY
Conf_Id
SciTegic.value.IntegerValue
22

@<SCITEGIC>MOL_PROPERTY
Delta U+W
SciTegic.value.DoubleValue
0.000

@<SCITEGIC>MOL_PROPERTY
U+W
SciTegic.value.DoubleValue
-3.131

@<SCITEGIC>MOL_PROPERTY
Grad RMS
SciTegic.value.DoubleValue
0.000000

@<SCITEGIC>MOL_PROPERTY
U
SciTegic.value.DoubleValue
-0.154

@<SCITEGIC>MOL_PROPERTY
W
SciTegic.value.DoubleValue
-2.978

@<SCITEGIC>MOL_PROPERTY
W(PB)
SciTegic.value.DoubleValue
-4.579

@<SCITEGIC>MOL_PROPERTY
W(SA)
SciTegic.value.DoubleValue
1.601

@<SCITEGIC>MOL_PROPERTY
Valence
SciTegic.value.DoubleValue
6.333

@<SCITEGIC>MOL_PROPERTY
Coulomb
SciTegic.value.DoubleValue
-7.439

@<SCITEGIC>MOL_PROPERTY
VdW
SciTegic.value.DoubleValue
0.952

@<SCITEGIC>MOL_PROPERTY
VdW6
SciTegic.value.DoubleValue
-2.120

@<SCITEGIC>MOL_PROPERTY
VdW12
SciTegic.value.DoubleValue
3.072

@<SCITEGIC>MOL_PROPERTY
Bond
SciTegic.value.DoubleValue
0.065

@<SCITEGIC>MOL_PROPERTY
Angle
SciTegic.value.DoubleValue
0.931

@<SCITEGIC>MOL_PROPERTY
Pdih
SciTegic.value.DoubleValue
5.338

@<SCITEGIC>MOL_PROPERTY
Idih
SciTegic.value.DoubleValue
0.000

@<SCITEGIC>MOL_PROPERTY
Tether
SciTegic.value.DoubleValue
0.000

@<TRIPOS>MOLECULE
guest-s16_confgen4.mol2 : confsearch ligand conformer 707
          13          13           1
SMALL
USER_CHARGES
 
@<TRIPOS>ATOM
       1    C1      20.521794   19.520744   23.014614 C.3        1 MOL1        -0.1693
       2    H1      20.373428   20.605544   23.096968 H          1 MOL1         0.0829
       3    H2      21.425896   19.247445   23.571611 H          1 MOL1         0.0829
       4    C2      20.412773   18.953622   21.560716 C.3        1 MOL1        -0.1768
       5    H3      20.870509   17.966692   21.418444 H          1 MOL1         0.0829
       6    H4      20.749930   19.617892   20.757446 H          1 MOL1         0.0829
       7    C3      18.875873   18.923548   21.818064 C.3        1 MOL1         0.1211
       8    H5      18.376513   19.887443   21.648925 H          1 MOL1         0.0786
       9    C4      19.247805   18.661810   23.308703 C.3        1 MOL1        -0.1768
      10    H6      19.447704   17.610267   23.549289 H          1 MOL1         0.0829
      11    H7      18.552065   19.067128   24.051417 H          1 MOL1         0.0829
      12    O1      18.178067   17.879746   21.179242 O.3        1 MOL1        -0.5515
      13    H8      18.149743   18.092500   20.221570 H          1 MOL1         0.3773
@<TRIPOS>BOND
    1     1     2    1
    2     1     3    1
    3     1     4    1
    4     4     5    1
    5     4     6    1
    6     4     7    1
    7     7     8    1
    8     1     9    1
    9     7     9    1
   10     9    10    1
   11     9    11    1
   12     7    12    1
   13    12    13    1
@<TRIPOS>SUBSTRUCTURE
       1 MOL1            1 RESIDUE      1      MOL     
@<SCITEGIC>MOL_PROPERTY
VConf Rank
SciTegic.value.IntegerValue
707

@<SCITEGIC>MOL_PROPERTY
Conf_Id
SciTegic.value.IntegerValue
19

@<SCITEGIC>MOL_PROPERTY
Delta U+W
SciTegic.value.DoubleValue
-0.011

@<SCITEGIC>MOL_PROPERTY
U+W
SciTegic.value.DoubleValue
-3.142

@<SCITEGIC>MOL_PROPERTY
Grad RMS
SciTegic.value.DoubleValue
0.000000

@<SCITEGIC>MOL_PROPERTY
U
SciTegic.value.DoubleValue
-0.154

@<SCITEGIC>MOL_PROPERTY
W
SciTegic.value.DoubleValue
-2.989

@<SCITEGIC>MOL_PROPERTY
W(PB)
SciTegic.value.DoubleValue
-4.588

@<SCITEGIC>MOL_PROPERTY
W(SA)
SciTegic.value.DoubleValue
1.599

@<SCITEGIC>MOL_PROPERTY
Valence
SciTegic.value.DoubleValue
6.334

@<SCITEGIC>MOL_PROPERTY
Coulomb
SciTegic.value.DoubleValue
-7.439

@<SCITEGIC>MOL_PROPERTY
VdW
SciTegic.value.DoubleValue
0.951

@<SCITEGIC>MOL_PROPERTY
VdW6
SciTegic.value.DoubleValue
-2.120

@<SCITEGIC>MOL_PROPERTY
VdW12
SciTegic.value.DoubleValue
3.072

@<SCITEGIC>MOL_PROPERTY
Bond
SciTegic.value.DoubleValue
0.065

@<SCITEGIC>MOL_PROPERTY
Angle
SciTegic.value.DoubleValue
0.930

@<SCITEGIC>MOL_PROPERTY
Pdih
SciTegic.value.DoubleValue
5.339

@<SCITEGIC>MOL_PROPERTY
Idih
SciTegic.value.DoubleValue
0.000

@<SCITEGIC>MOL_PROPERTY
Tether
SciTegic.value.DoubleValue
0.000

@<TRIPOS>MOLECULE
guest-s16_confgen4.mol2 : confsearch ligand conformer 708
          13          13           1
SMALL
USER_CHARGES
 
@<TRIPOS>ATOM
       1    C1      20.117612   19.982111   22.928747 C.3        1 MOL1        -0.1693
       2    H1      20.738720   20.884315   22.881521 H          1 MOL1         0.0829
       3    H2      19.716348   19.884969   23.945977 H          1 MOL1         0.0829
       4    C2      20.758251   18.674412   22.355618 C.3        1 MOL1        -0.1768
       5    H3      21.463058   18.836529   21.531159 H          1 MOL1         0.0829
       6    H4      21.223555   18.005526   23.088063 H          1 MOL1         0.0829
       7    C3      19.318519   18.282640   21.898326 C.3        1 MOL1         0.1211
       8    H5      19.273313   17.741045   20.944678 H          1 MOL1         0.0786
       9    C4      19.055015   19.817349   21.791890 C.3        1 MOL1        -0.1768
      10    H6      18.038560   20.147622   22.032909 H          1 MOL1         0.0829
      11    H7      19.346966   20.257263   20.830529 H          1 MOL1         0.0829
      12    O1      18.546996   17.610392   22.873508 O.3        1 MOL1        -0.5515
      13    H8      17.624774   17.575522   22.541175 H          1 MOL1         0.3773
@<TRIPOS>BOND
    1     1     2    1
    2     1     3    1
    3     1     4    1
    4     4     5    1
    5     4     6    1
    6     4     7    1
    7     7     8    1
    8     1     9    1
    9     7     9    1
   10     9    10    1
   11     9    11    1
   12     7    12    1
   13    12    13    1
@<TRIPOS>SUBSTRUCTURE
       1 MOL1            1 RESIDUE      1      MOL     
@<SCITEGIC>MOL_PROPERTY
VConf Rank
SciTegic.value.IntegerValue
708

@<SCITEGIC>MOL_PROPERTY
Conf_Id
SciTegic.value.IntegerValue
20

@<SCITEGIC>MOL_PROPERTY
Delta U+W
SciTegic.value.DoubleValue
1.030

@<SCITEGIC>MOL_PROPERTY
U+W
SciTegic.value.DoubleValue
-2.101

@<SCITEGIC>MOL_PROPERTY
Grad RMS
SciTegic.value.DoubleValue
0.000000

@<SCITEGIC>MOL_PROPERTY
U
SciTegic.value.DoubleValue
0.841

@<SCITEGIC>MOL_PROPERTY
W
SciTegic.value.DoubleValue
-2.942

@<SCITEGIC>MOL_PROPERTY
W(PB)
SciTegic.value.DoubleValue
-4.530

@<SCITEGIC>MOL_PROPERTY
W(SA)
SciTegic.value.DoubleValue
1.587

@<SCITEGIC>MOL_PROPERTY
Valence
SciTegic.value.DoubleValue
6.736

@<SCITEGIC>MOL_PROPERTY
Coulomb
SciTegic.value.DoubleValue
-7.246

@<SCITEGIC>MOL_PROPERTY
VdW
SciTegic.value.DoubleValue
1.352

@<SCITEGIC>MOL_PROPERTY
VdW6
SciTegic.value.DoubleValue
-2.500

@<SCITEGIC>MOL_PROPERTY
VdW12
SciTegic.value.DoubleValue
3.851

@<SCITEGIC>MOL_PROPERTY
Bond
SciTegic.value.DoubleValue
0.063

@<SCITEGIC>MOL_PROPERTY
Angle
SciTegic.value.DoubleValue
0.687

@<SCITEGIC>MOL_PROPERTY
Pdih
SciTegic.value.DoubleValue
5.986

@<SCITEGIC>MOL_PROPERTY
Idih
SciTegic.value.DoubleValue
0.000

@<SCITEGIC>MOL_PROPERTY
Tether
SciTegic.value.DoubleValue
0.000

@<TRIPOS>MOLECULE
guest-s16_confgen4.mol2 : confsearch ligand conformer 709
          13          13           1
SMALL
USER_CHARGES
 
@<TRIPOS>ATOM
       1    C1      19.248060   18.089744   21.406977 C.3        1 MOL1        -0.1693
       2    H1      19.940622   17.475382   20.816564 H          1 MOL1         0.0829
       3    H2      18.221004   17.801673   21.152827 H          1 MOL1         0.0829
       4    C2      19.556117   19.623408   21.388727 C.3        1 MOL1        -0.1768
       5    H3      19.993019   20.016460   20.464109 H          1 MOL1         0.0829
       6    H4      18.713437   20.262790   21.679362 H          1 MOL1         0.0829
       7    C3      20.565449   19.309651   22.534136 C.3        1 MOL1         0.1211
       8    H5      21.541595   18.951216   22.180075 H          1 MOL1         0.0786
       9    C4      19.582038   18.168280   22.933295 C.3        1 MOL1        -0.1768
      10    H6      18.745151   18.482423   23.569160 H          1 MOL1         0.0829
      11    H7      20.041832   17.276235   23.372768 H          1 MOL1         0.0829
      12    O1      20.729190   20.328734   23.491462 O.3        1 MOL1        -0.5515
      13    H8      19.831089   20.606843   23.768572 H          1 MOL1         0.3773
@<TRIPOS>BOND
    1     1     2    1
    2     1     3    1
    3     1     4    1
    4     4     5    1
    5     4     6    1
    6     4     7    1
    7     7     8    1
    8     1     9    1
    9     7     9    1
   10     9    10    1
   11     9    11    1
   12     7    12    1
   13    12    13    1
@<TRIPOS>SUBSTRUCTURE
       1 MOL1            1 RESIDUE      1      MOL     
@<SCITEGIC>MOL_PROPERTY
VConf Rank
SciTegic.value.IntegerValue
709

@<SCITEGIC>MOL_PROPERTY
Conf_Id
SciTegic.value.IntegerValue
24

@<SCITEGIC>MOL_PROPERTY
Delta U+W
SciTegic.value.DoubleValue
0.356

@<SCITEGIC>MOL_PROPERTY
U+W
SciTegic.value.DoubleValue
-2.775

@<SCITEGIC>MOL_PROPERTY
Grad RMS
SciTegic.value.DoubleValue
0.000000

@<SCITEGIC>MOL_PROPERTY
U
SciTegic.value.DoubleValue
-0.184

@<SCITEGIC>MOL_PROPERTY
W
SciTegic.value.DoubleValue
-2.591

@<SCITEGIC>MOL_PROPERTY
W(PB)
SciTegic.value.DoubleValue
-4.184

@<SCITEGIC>MOL_PROPERTY
W(SA)
SciTegic.value.DoubleValue
1.593

@<SCITEGIC>MOL_PROPERTY
Valence
SciTegic.value.DoubleValue
6.840

@<SCITEGIC>MOL_PROPERTY
Coulomb
SciTegic.value.DoubleValue
-7.916

@<SCITEGIC>MOL_PROPERTY
VdW
SciTegic.value.DoubleValue
0.893

@<SCITEGIC>MOL_PROPERTY
VdW6
SciTegic.value.DoubleValue
-2.167

@<SCITEGIC>MOL_PROPERTY
VdW12
SciTegic.value.DoubleValue
3.060

@<SCITEGIC>MOL_PROPERTY
Bond
SciTegic.value.DoubleValue
0.059

@<SCITEGIC>MOL_PROPERTY
Angle
SciTegic.value.DoubleValue
0.918

@<SCITEGIC>MOL_PROPERTY
Pdih
SciTegic.value.DoubleValue
5.862

@<SCITEGIC>MOL_PROPERTY
Idih
SciTegic.value.DoubleValue
0.000

@<SCITEGIC>MOL_PROPERTY
Tether
SciTegic.value.DoubleValue
0.000

@<TRIPOS>MOLECULE
guest-s16_confgen4.mol2 : confsearch ligand conformer 710
          13          13           1
SMALL
USER_CHARGES
 
@<TRIPOS>ATOM
       1    C1      18.655192   18.565482   22.365383 C.3        1 MOL1        -0.1693
       2    H1      17.714290   18.270293   21.885864 H          1 MOL1         0.0829
       3    H2      18.558682   18.404098   23.446557 H          1 MOL1         0.0829
       4    C2      19.221281   19.966431   21.956697 C.3        1 MOL1        -0.1768
       5    H3      18.975421   20.273629   20.932882 H          1 MOL1         0.0829
       6    H4      18.991633   20.796700   22.633914 H          1 MOL1         0.0829
       7    C3      20.639961   19.335293   22.108371 C.3        1 MOL1         0.1211
       8    H5      21.384370   19.696466   21.387332 H          1 MOL1         0.0786
       9    C4      19.960507   17.983741   21.726738 C.3        1 MOL1        -0.1768
      10    H6      19.895892   17.804813   20.646542 H          1 MOL1         0.0829
      11    H7      20.374289   17.088247   22.203795 H          1 MOL1         0.0829
      12    O1      21.171632   19.381996   23.414844 O.3        1 MOL1        -0.5515
      13    H8      20.468708   19.050781   24.011089 H          1 MOL1         0.3773
@<TRIPOS>BOND
    1     1     2    1
    2     1     3    1
    3     1     4    1
    4     4     5    1
    5     4     6    1
    6     4     7    1
    7     7     8    1
    8     1     9    1
    9     7     9    1
   10     9    10    1
   11     9    11    1
   12     7    12    1
   13    12    13    1
@<TRIPOS>SUBSTRUCTURE
       1 MOL1            1 RESIDUE      1      MOL     
@<SCITEGIC>MOL_PROPERTY
VConf Rank
SciTegic.value.IntegerValue
710

@<SCITEGIC>MOL_PROPERTY
Conf_Id
SciTegic.value.IntegerValue
44

@<SCITEGIC>MOL_PROPERTY
Delta U+W
SciTegic.value.DoubleValue
0.823

@<SCITEGIC>MOL_PROPERTY
U+W
SciTegic.value.DoubleValue
-2.308

@<SCITEGIC>MOL_PROPERTY
Grad RMS
SciTegic.value.DoubleValue
0.000000

@<SCITEGIC>MOL_PROPERTY
U
SciTegic.value.DoubleValue
0.039

@<SCITEGIC>MOL_PROPERTY
W
SciTegic.value.DoubleValue
-2.348

@<SCITEGIC>MOL_PROPERTY
W(PB)
SciTegic.value.DoubleValue
-3.918

@<SCITEGIC>MOL_PROPERTY
W(SA)
SciTegic.value.DoubleValue
1.571

@<SCITEGIC>MOL_PROPERTY
Valence
SciTegic.value.DoubleValue
7.320

@<SCITEGIC>MOL_PROPERTY
Coulomb
SciTegic.value.DoubleValue
-8.530

@<SCITEGIC>MOL_PROPERTY
VdW
SciTegic.value.DoubleValue
1.249

@<SCITEGIC>MOL_PROPERTY
VdW6
SciTegic.value.DoubleValue
-2.615

@<SCITEGIC>MOL_PROPERTY
VdW12
SciTegic.value.DoubleValue
3.864

@<SCITEGIC>MOL_PROPERTY
Bond
SciTegic.value.DoubleValue
0.056

@<SCITEGIC>MOL_PROPERTY
Angle
SciTegic.value.DoubleValue
0.694

@<SCITEGIC>MOL_PROPERTY
Pdih
SciTegic.value.DoubleValue
6.570

@<SCITEGIC>MOL_PROPERTY
Idih
SciTegic.value.DoubleValue
0.000

@<SCITEGIC>MOL_PROPERTY
Tether
SciTegic.value.DoubleValue
0.000

@<TRIPOS>MOLECULE
guest-s16_confgen4.mol2 : confsearch ligand conformer 711
          13          13           1
SMALL
USER_CHARGES
 
@<TRIPOS>ATOM
       1    C1      19.064888   19.665217   21.252651 C.3        1 MOL1        -0.1693
       2    H1      19.646497   20.502791   20.845482 H          1 MOL1         0.0829
       3    H2      18.147763   19.555455   20.661743 H          1 MOL1         0.0829
       4    C2      18.882409   19.689265   22.806173 C.3        1 MOL1        -0.1768
       5    H3      18.820232   20.679420   23.270595 H          1 MOL1         0.0829
       6    H4      18.057830   19.070810   23.181896 H          1 MOL1         0.0829
       7    C3      20.280443   19.002573   22.859116 C.3        1 MOL1         0.1211
       8    H5      21.121984   19.705647   22.791614 H          1 MOL1         0.0786
       9    C4      19.885575   18.355993   21.497057 C.3        1 MOL1        -0.1768
      10    H6      20.710107   18.166693   20.801007 H          1 MOL1         0.0829
      11    H7      19.280031   17.445140   21.583413 H          1 MOL1         0.0829
      12    O1      20.467668   18.098950   23.923521 O.3        1 MOL1        -0.5515
      13    H8      21.307301   17.619951   23.753875 H          1 MOL1         0.3773
@<TRIPOS>BOND
    1     1     2    1
    2     1     3    1
    3     1     4    1
    4     4     5    1
    5     4     6    1
    6     4     7    1
    7     7     8    1
    8     1     9    1
    9     7     9    1
   10     9    10    1
   11     9    11    1
   12     7    12    1
   13    12    13    1
@<TRIPOS>SUBSTRUCTURE
       1 MOL1            1 RESIDUE      1      MOL     
@<SCITEGIC>MOL_PROPERTY
VConf Rank
SciTegic.value.IntegerValue
711

@<SCITEGIC>MOL_PROPERTY
Conf_Id
SciTegic.value.IntegerValue
22

@<SCITEGIC>MOL_PROPERTY
Delta U+W
SciTegic.value.DoubleValue
0.000

@<SCITEGIC>MOL_PROPERTY
U+W
SciTegic.value.DoubleValue
-3.131

@<SCITEGIC>MOL_PROPERTY
Grad RMS
SciTegic.value.DoubleValue
0.000000

@<SCITEGIC>MOL_PROPERTY
U
SciTegic.value.DoubleValue
-0.154

@<SCITEGIC>MOL_PROPERTY
W
SciTegic.value.DoubleValue
-2.978

@<SCITEGIC>MOL_PROPERTY
W(PB)
SciTegic.value.DoubleValue
-4.579

@<SCITEGIC>MOL_PROPERTY
W(SA)
SciTegic.value.DoubleValue
1.601

@<SCITEGIC>MOL_PROPERTY
Valence
SciTegic.value.DoubleValue
6.333

@<SCITEGIC>MOL_PROPERTY
Coulomb
SciTegic.value.DoubleValue
-7.439

@<SCITEGIC>MOL_PROPERTY
VdW
SciTegic.value.DoubleValue
0.952

@<SCITEGIC>MOL_PROPERTY
VdW6
SciTegic.value.DoubleValue
-2.120

@<SCITEGIC>MOL_PROPERTY
VdW12
SciTegic.value.DoubleValue
3.072

@<SCITEGIC>MOL_PROPERTY
Bond
SciTegic.value.DoubleValue
0.065

@<SCITEGIC>MOL_PROPERTY
Angle
SciTegic.value.DoubleValue
0.931

@<SCITEGIC>MOL_PROPERTY
Pdih
SciTegic.value.DoubleValue
5.338

@<SCITEGIC>MOL_PROPERTY
Idih
SciTegic.value.DoubleValue
0.000

@<SCITEGIC>MOL_PROPERTY
Tether
SciTegic.value.DoubleValue
0.000

@<TRIPOS>MOLECULE
guest-s16_confgen4.mol2 : confsearch ligand conformer 712
          13          13           1
SMALL
USER_CHARGES
 
@<TRIPOS>ATOM
       1    C1      20.000601   20.045401   22.837395 C.3        1 MOL1        -0.1693
       2    H1      20.993567   19.985461   23.302165 H          1 MOL1         0.0829
       3    H2      19.572978   21.032353   23.050471 H          1 MOL1         0.0829
       4    C2      19.071225   18.818738   23.118263 C.3        1 MOL1        -0.1768
       5    H3      18.003283   19.004875   22.949012 H          1 MOL1         0.0829
       6    H4      19.194566   18.333394   24.092636 H          1 MOL1         0.0829
       7    C3      19.807817   18.141562   21.923249 C.3        1 MOL1         0.1211
       8    H5      20.766297   17.678376   22.194976 H          1 MOL1         0.0786
       9    C4      19.947874   19.581694   21.344244 C.3        1 MOL1        -0.1768
      10    H6      19.072533   19.933421   20.784198 H          1 MOL1         0.0829
      11    H7      20.846958   19.769695   20.747364 H          1 MOL1         0.0829
      12    O1      19.024737   17.257310   21.155503 O.3        1 MOL1        -0.5515
      13    H8      18.879664   16.452100   21.697531 H          1 MOL1         0.3773
@<TRIPOS>BOND
    1     1     2    1
    2     1     3    1
    3     1     4    1
    4     4     5    1
    5     4     6    1
    6     4     7    1
    7     7     8    1
    8     1     9    1
    9     7     9    1
   10     9    10    1
   11     9    11    1
   12     7    12    1
   13    12    13    1
@<TRIPOS>SUBSTRUCTURE
       1 MOL1            1 RESIDUE      1      MOL     
@<SCITEGIC>MOL_PROPERTY
VConf Rank
SciTegic.value.IntegerValue
712

@<SCITEGIC>MOL_PROPERTY
Conf_Id
SciTegic.value.IntegerValue
19

@<SCITEGIC>MOL_PROPERTY
Delta U+W
SciTegic.value.DoubleValue
-0.011

@<SCITEGIC>MOL_PROPERTY
U+W
SciTegic.value.DoubleValue
-3.142

@<SCITEGIC>MOL_PROPERTY
Grad RMS
SciTegic.value.DoubleValue
0.000000

@<SCITEGIC>MOL_PROPERTY
U
SciTegic.value.DoubleValue
-0.154

@<SCITEGIC>MOL_PROPERTY
W
SciTegic.value.DoubleValue
-2.989

@<SCITEGIC>MOL_PROPERTY
W(PB)
SciTegic.value.DoubleValue
-4.588

@<SCITEGIC>MOL_PROPERTY
W(SA)
SciTegic.value.DoubleValue
1.599

@<SCITEGIC>MOL_PROPERTY
Valence
SciTegic.value.DoubleValue
6.334

@<SCITEGIC>MOL_PROPERTY
Coulomb
SciTegic.value.DoubleValue
-7.439

@<SCITEGIC>MOL_PROPERTY
VdW
SciTegic.value.DoubleValue
0.951

@<SCITEGIC>MOL_PROPERTY
VdW6
SciTegic.value.DoubleValue
-2.120

@<SCITEGIC>MOL_PROPERTY
VdW12
SciTegic.value.DoubleValue
3.072

@<SCITEGIC>MOL_PROPERTY
Bond
SciTegic.value.DoubleValue
0.065

@<SCITEGIC>MOL_PROPERTY
Angle
SciTegic.value.DoubleValue
0.930

@<SCITEGIC>MOL_PROPERTY
Pdih
SciTegic.value.DoubleValue
5.339

@<SCITEGIC>MOL_PROPERTY
Idih
SciTegic.value.DoubleValue
0.000

@<SCITEGIC>MOL_PROPERTY
Tether
SciTegic.value.DoubleValue
0.000

@<TRIPOS>MOLECULE
guest-s16_confgen4.mol2 : confsearch ligand conformer 713
          13          13           1
SMALL
USER_CHARGES
 
@<TRIPOS>ATOM
       1    C1      18.576073   19.377075   21.735174 C.3        1 MOL1        -0.1693
       2    H1      17.648761   19.952410   21.840338 H          1 MOL1         0.0829
       3    H2      18.617357   18.960069   20.720478 H          1 MOL1         0.0829
       4    C2      18.880198   18.347184   22.873507 C.3        1 MOL1        -0.1768
       5    H3      18.498490   18.634276   23.860747 H          1 MOL1         0.0829
       6    H4      18.590259   17.309667   22.673790 H          1 MOL1         0.0829
       7    C3      20.386744   18.685663   22.647280 C.3        1 MOL1         0.1211
       8    H5      20.997622   18.683752   23.559222 H          1 MOL1         0.0786
       9    C4      19.887707   20.094455   22.197435 C.3        1 MOL1        -0.1768
      10    H6      20.472236   20.581491   21.409099 H          1 MOL1         0.0829
      11    H7      19.749930   20.805823   23.020810 H          1 MOL1         0.0829
      12    O1      21.021833   17.926646   21.637974 O.3        1 MOL1        -0.5515
      13    H8      21.894477   18.341183   21.468246 H          1 MOL1         0.3773
@<TRIPOS>BOND
    1     1     2    1
    2     1     3    1
    3     1     4    1
    4     4     5    1
    5     4     6    1
    6     4     7    1
    7     7     8    1
    8     1     9    1
    9     7     9    1
   10     9    10    1
   11     9    11    1
   12     7    12    1
   13    12    13    1
@<TRIPOS>SUBSTRUCTURE
       1 MOL1            1 RESIDUE      1      MOL     
@<SCITEGIC>MOL_PROPERTY
VConf Rank
SciTegic.value.IntegerValue
713

@<SCITEGIC>MOL_PROPERTY
Conf_Id
SciTegic.value.IntegerValue
20

@<SCITEGIC>MOL_PROPERTY
Delta U+W
SciTegic.value.DoubleValue
1.030

@<SCITEGIC>MOL_PROPERTY
U+W
SciTegic.value.DoubleValue
-2.101

@<SCITEGIC>MOL_PROPERTY
Grad RMS
SciTegic.value.DoubleValue
0.000000

@<SCITEGIC>MOL_PROPERTY
U
SciTegic.value.DoubleValue
0.841

@<SCITEGIC>MOL_PROPERTY
W
SciTegic.value.DoubleValue
-2.942

@<SCITEGIC>MOL_PROPERTY
W(PB)
SciTegic.value.DoubleValue
-4.530

@<SCITEGIC>MOL_PROPERTY
W(SA)
SciTegic.value.DoubleValue
1.587

@<SCITEGIC>MOL_PROPERTY
Valence
SciTegic.value.DoubleValue
6.736

@<SCITEGIC>MOL_PROPERTY
Coulomb
SciTegic.value.DoubleValue
-7.246

@<SCITEGIC>MOL_PROPERTY
VdW
SciTegic.value.DoubleValue
1.352

@<SCITEGIC>MOL_PROPERTY
VdW6
SciTegic.value.DoubleValue
-2.500

@<SCITEGIC>MOL_PROPERTY
VdW12
SciTegic.value.DoubleValue
3.851

@<SCITEGIC>MOL_PROPERTY
Bond
SciTegic.value.DoubleValue
0.063

@<SCITEGIC>MOL_PROPERTY
Angle
SciTegic.value.DoubleValue
0.687

@<SCITEGIC>MOL_PROPERTY
Pdih
SciTegic.value.DoubleValue
5.986

@<SCITEGIC>MOL_PROPERTY
Idih
SciTegic.value.DoubleValue
0.000

@<SCITEGIC>MOL_PROPERTY
Tether
SciTegic.value.DoubleValue
0.000

@<TRIPOS>MOLECULE
guest-s16_confgen4.mol2 : confsearch ligand conformer 714
          13          13           1
SMALL
USER_CHARGES
 
@<TRIPOS>ATOM
       1    C1      19.405320   19.907182   21.427126 C.3        1 MOL1        -0.1693
       2    H1      19.677198   19.824104   20.366537 H          1 MOL1         0.0829
       3    H2      18.868345   20.851304   21.577835 H          1 MOL1         0.0829
       4    C2      20.572547   19.613375   22.426433 C.3        1 MOL1        -0.1768
       5    H3      21.577152   19.892178   22.089786 H          1 MOL1         0.0829
       6    H4      20.418475   20.007572   23.438490 H          1 MOL1         0.0829
       7    C3      20.188961   18.113999   22.242342 C.3        1 MOL1         0.1211
       8    H5      20.628780   17.649483   21.349326 H          1 MOL1         0.0786
       9    C4      18.733540   18.630397   22.032014 C.3        1 MOL1        -0.1768
      10    H6      18.168427   18.804887   22.955913 H          1 MOL1         0.0829
      11    H7      18.114021   18.041079   21.347038 H          1 MOL1         0.0829
      12    O1      20.383138   17.297276   23.372419 O.3        1 MOL1        -0.5515
      13    H8      19.972699   17.760002   24.132776 H          1 MOL1         0.3773
@<TRIPOS>BOND
    1     1     2    1
    2     1     3    1
    3     1     4    1
    4     4     5    1
    5     4     6    1
    6     4     7    1
    7     7     8    1
    8     1     9    1
    9     7     9    1
   10     9    10    1
   11     9    11    1
   12     7    12    1
   13    12    13    1
@<TRIPOS>SUBSTRUCTURE
       1 MOL1            1 RESIDUE      1      MOL     
@<SCITEGIC>MOL_PROPERTY
VConf Rank
SciTegic.value.IntegerValue
714

@<SCITEGIC>MOL_PROPERTY
Conf_Id
SciTegic.value.IntegerValue
24

@<SCITEGIC>MOL_PROPERTY
Delta U+W
SciTegic.value.DoubleValue
0.356

@<SCITEGIC>MOL_PROPERTY
U+W
SciTegic.value.DoubleValue
-2.775

@<SCITEGIC>MOL_PROPERTY
Grad RMS
SciTegic.value.DoubleValue
0.000000

@<SCITEGIC>MOL_PROPERTY
U
SciTegic.value.DoubleValue
-0.184

@<SCITEGIC>MOL_PROPERTY
W
SciTegic.value.DoubleValue
-2.591

@<SCITEGIC>MOL_PROPERTY
W(PB)
SciTegic.value.DoubleValue
-4.184

@<SCITEGIC>MOL_PROPERTY
W(SA)
SciTegic.value.DoubleValue
1.593

@<SCITEGIC>MOL_PROPERTY
Valence
SciTegic.value.DoubleValue
6.840

@<SCITEGIC>MOL_PROPERTY
Coulomb
SciTegic.value.DoubleValue
-7.916

@<SCITEGIC>MOL_PROPERTY
VdW
SciTegic.value.DoubleValue
0.893

@<SCITEGIC>MOL_PROPERTY
VdW6
SciTegic.value.DoubleValue
-2.167

@<SCITEGIC>MOL_PROPERTY
VdW12
SciTegic.value.DoubleValue
3.060

@<SCITEGIC>MOL_PROPERTY
Bond
SciTegic.value.DoubleValue
0.059

@<SCITEGIC>MOL_PROPERTY
Angle
SciTegic.value.DoubleValue
0.918

@<SCITEGIC>MOL_PROPERTY
Pdih
SciTegic.value.DoubleValue
5.862

@<SCITEGIC>MOL_PROPERTY
Idih
SciTegic.value.DoubleValue
0.000

@<SCITEGIC>MOL_PROPERTY
Tether
SciTegic.value.DoubleValue
0.000

@<TRIPOS>MOLECULE
guest-s16_confgen4.mol2 : confsearch ligand conformer 715
          13          13           1
SMALL
USER_CHARGES
 
@<TRIPOS>ATOM
       1    C1      20.622937   19.149204   21.601164 C.3        1 MOL1        -0.1693
       2    H1      21.372799   18.703216   20.936954 H          1 MOL1         0.0829
       3    H2      20.868870   20.209807   21.738767 H          1 MOL1         0.0829
       4    C2      20.327041   18.365006   22.923138 C.3        1 MOL1        -0.1768
       5    H3      20.452257   17.278285   22.843300 H          1 MOL1         0.0829
       6    H4      20.854698   18.711353   23.818867 H          1 MOL1         0.0829
       7    C3      18.851477   18.848405   22.771386 C.3        1 MOL1         0.1211
       8    H5      18.093671   18.124213   23.096599 H          1 MOL1         0.0786
       9    C4      19.128186   18.861886   21.236054 C.3        1 MOL1        -0.1768
      10    H6      18.959462   17.896993   20.742567 H          1 MOL1         0.0829
      11    H7      18.612344   19.640724   20.663319 H          1 MOL1         0.0829
      12    O1      18.582594   20.113933   23.335185 O.3        1 MOL1        -0.5515
      13    H8      19.285520   20.714947   23.012710 H          1 MOL1         0.3773
@<TRIPOS>BOND
    1     1     2    1
    2     1     3    1
    3     1     4    1
    4     4     5    1
    5     4     6    1
    6     4     7    1
    7     7     8    1
    8     1     9    1
    9     7     9    1
   10     9    10    1
   11     9    11    1
   12     7    12    1
   13    12    13    1
@<TRIPOS>SUBSTRUCTURE
       1 MOL1            1 RESIDUE      1      MOL     
@<SCITEGIC>MOL_PROPERTY
VConf Rank
SciTegic.value.IntegerValue
715

@<SCITEGIC>MOL_PROPERTY
Conf_Id
SciTegic.value.IntegerValue
44

@<SCITEGIC>MOL_PROPERTY
Delta U+W
SciTegic.value.DoubleValue
0.823

@<SCITEGIC>MOL_PROPERTY
U+W
SciTegic.value.DoubleValue
-2.308

@<SCITEGIC>MOL_PROPERTY
Grad RMS
SciTegic.value.DoubleValue
0.000000

@<SCITEGIC>MOL_PROPERTY
U
SciTegic.value.DoubleValue
0.039

@<SCITEGIC>MOL_PROPERTY
W
SciTegic.value.DoubleValue
-2.348

@<SCITEGIC>MOL_PROPERTY
W(PB)
SciTegic.value.DoubleValue
-3.918

@<SCITEGIC>MOL_PROPERTY
W(SA)
SciTegic.value.DoubleValue
1.571

@<SCITEGIC>MOL_PROPERTY
Valence
SciTegic.value.DoubleValue
7.320

@<SCITEGIC>MOL_PROPERTY
Coulomb
SciTegic.value.DoubleValue
-8.530

@<SCITEGIC>MOL_PROPERTY
VdW
SciTegic.value.DoubleValue
1.249

@<SCITEGIC>MOL_PROPERTY
VdW6
SciTegic.value.DoubleValue
-2.615

@<SCITEGIC>MOL_PROPERTY
VdW12
SciTegic.value.DoubleValue
3.864

@<SCITEGIC>MOL_PROPERTY
Bond
SciTegic.value.DoubleValue
0.056

@<SCITEGIC>MOL_PROPERTY
Angle
SciTegic.value.DoubleValue
0.694

@<SCITEGIC>MOL_PROPERTY
Pdih
SciTegic.value.DoubleValue
6.570

@<SCITEGIC>MOL_PROPERTY
Idih
SciTegic.value.DoubleValue
0.000

@<SCITEGIC>MOL_PROPERTY
Tether
SciTegic.value.DoubleValue
0.000

@<TRIPOS>MOLECULE
guest-s16_confgen4.mol2 : confsearch ligand conformer 716
          13          13           1
SMALL
USER_CHARGES
 
@<TRIPOS>ATOM
       1    C1      20.058482   20.007593   23.059216 C.3        1 MOL1        -0.1693
       2    H1      19.439454   20.097655   23.961590 H          1 MOL1         0.0829
       3    H2      20.876684   20.734916   23.121545 H          1 MOL1         0.0829
       4    C2      19.257621   19.987996   21.715511 C.3        1 MOL1        -0.1768
       5    H3      18.335498   20.578895   21.693380 H          1 MOL1         0.0829
       6    H4      19.850420   20.225414   20.823431 H          1 MOL1         0.0829
       7    C3      19.079154   18.463415   21.985051 C.3        1 MOL1         0.1211
       8    H5      18.247833   18.228041   22.663702 H          1 MOL1         0.0786
       9    C4      20.467278   18.543582   22.689236 C.3        1 MOL1        -0.1768
      10    H6      20.616913   17.857553   23.530155 H          1 MOL1         0.0829
      11    H7      21.327065   18.465254   22.012164 H          1 MOL1         0.0829
      12    O1      19.032365   17.650055   20.835790 O.3        1 MOL1        -0.5515
      13    H8      19.083962   16.717537   21.137371 H          1 MOL1         0.3773
@<TRIPOS>BOND
    1     1     2    1
    2     1     3    1
    3     1     4    1
    4     4     5    1
    5     4     6    1
    6     4     7    1
    7     7     8    1
    8     1     9    1
    9     7     9    1
   10     9    10    1
   11     9    11    1
   12     7    12    1
   13    12    13    1
@<TRIPOS>SUBSTRUCTURE
       1 MOL1            1 RESIDUE      1      MOL     
@<SCITEGIC>MOL_PROPERTY
VConf Rank
SciTegic.value.IntegerValue
716

@<SCITEGIC>MOL_PROPERTY
Conf_Id
SciTegic.value.IntegerValue
22

@<SCITEGIC>MOL_PROPERTY
Delta U+W
SciTegic.value.DoubleValue
0.000

@<SCITEGIC>MOL_PROPERTY
U+W
SciTegic.value.DoubleValue
-3.131

@<SCITEGIC>MOL_PROPERTY
Grad RMS
SciTegic.value.DoubleValue
0.000000

@<SCITEGIC>MOL_PROPERTY
U
SciTegic.value.DoubleValue
-0.154

@<SCITEGIC>MOL_PROPERTY
W
SciTegic.value.DoubleValue
-2.978

@<SCITEGIC>MOL_PROPERTY
W(PB)
SciTegic.value.DoubleValue
-4.579

@<SCITEGIC>MOL_PROPERTY
W(SA)
SciTegic.value.DoubleValue
1.601

@<SCITEGIC>MOL_PROPERTY
Valence
SciTegic.value.DoubleValue
6.333

@<SCITEGIC>MOL_PROPERTY
Coulomb
SciTegic.value.DoubleValue
-7.439

@<SCITEGIC>MOL_PROPERTY
VdW
SciTegic.value.DoubleValue
0.952

@<SCITEGIC>MOL_PROPERTY
VdW6
SciTegic.value.DoubleValue
-2.120

@<SCITEGIC>MOL_PROPERTY
VdW12
SciTegic.value.DoubleValue
3.072

@<SCITEGIC>MOL_PROPERTY
Bond
SciTegic.value.DoubleValue
0.065

@<SCITEGIC>MOL_PROPERTY
Angle
SciTegic.value.DoubleValue
0.931

@<SCITEGIC>MOL_PROPERTY
Pdih
SciTegic.value.DoubleValue
5.338

@<SCITEGIC>MOL_PROPERTY
Idih
SciTegic.value.DoubleValue
0.000

@<SCITEGIC>MOL_PROPERTY
Tether
SciTegic.value.DoubleValue
0.000

@<TRIPOS>MOLECULE
guest-s16_confgen4.mol2 : confsearch ligand conformer 717
          13          13           1
SMALL
USER_CHARGES
 
@<TRIPOS>ATOM
       1    C1      18.843218   18.178652   21.494171 C.3        1 MOL1        -0.1693
       2    H1      19.129508   17.118718   21.481385 H          1 MOL1         0.0829
       3    H2      17.991872   18.319849   20.817700 H          1 MOL1         0.0829
       4    C2      20.032425   19.180088   21.320270 C.3        1 MOL1        -0.1768
       5    H3      19.738959   20.189810   21.007010 H          1 MOL1         0.0829
       6    H4      20.859822   18.840957   20.687358 H          1 MOL1         0.0829
       7    C3      20.238447   19.012861   22.856104 C.3        1 MOL1         0.1211
       8    H5      20.820817   18.123547   23.133641 H          1 MOL1         0.0786
       9    C4      18.696063   18.799580   22.922491 C.3        1 MOL1        -0.1768
      10    H6      18.110473   19.726425   22.962827 H          1 MOL1         0.0829
      11    H7      18.342025   18.124542   23.709219 H          1 MOL1         0.0829
      12    O1      20.718015   20.154539   23.527770 O.3        1 MOL1        -0.5515
      13    H8      21.660453   20.264815   23.277064 H          1 MOL1         0.3773
@<TRIPOS>BOND
    1     1     2    1
    2     1     3    1
    3     1     4    1
    4     4     5    1
    5     4     6    1
    6     4     7    1
    7     7     8    1
    8     1     9    1
    9     7     9    1
   10     9    10    1
   11     9    11    1
   12     7    12    1
   13    12    13    1
@<TRIPOS>SUBSTRUCTURE
       1 MOL1            1 RESIDUE      1      MOL     
@<SCITEGIC>MOL_PROPERTY
VConf Rank
SciTegic.value.IntegerValue
717

@<SCITEGIC>MOL_PROPERTY
Conf_Id
SciTegic.value.IntegerValue
19

@<SCITEGIC>MOL_PROPERTY
Delta U+W
SciTegic.value.DoubleValue
-0.011

@<SCITEGIC>MOL_PROPERTY
U+W
SciTegic.value.DoubleValue
-3.142

@<SCITEGIC>MOL_PROPERTY
Grad RMS
SciTegic.value.DoubleValue
0.000000

@<SCITEGIC>MOL_PROPERTY
U
SciTegic.value.DoubleValue
-0.154

@<SCITEGIC>MOL_PROPERTY
W
SciTegic.value.DoubleValue
-2.989

@<SCITEGIC>MOL_PROPERTY
W(PB)
SciTegic.value.DoubleValue
-4.588

@<SCITEGIC>MOL_PROPERTY
W(SA)
SciTegic.value.DoubleValue
1.599

@<SCITEGIC>MOL_PROPERTY
Valence
SciTegic.value.DoubleValue
6.334

@<SCITEGIC>MOL_PROPERTY
Coulomb
SciTegic.value.DoubleValue
-7.439

@<SCITEGIC>MOL_PROPERTY
VdW
SciTegic.value.DoubleValue
0.951

@<SCITEGIC>MOL_PROPERTY
VdW6
SciTegic.value.DoubleValue
-2.120

@<SCITEGIC>MOL_PROPERTY
VdW12
SciTegic.value.DoubleValue
3.072

@<SCITEGIC>MOL_PROPERTY
Bond
SciTegic.value.DoubleValue
0.065

@<SCITEGIC>MOL_PROPERTY
Angle
SciTegic.value.DoubleValue
0.930

@<SCITEGIC>MOL_PROPERTY
Pdih
SciTegic.value.DoubleValue
5.339

@<SCITEGIC>MOL_PROPERTY
Idih
SciTegic.value.DoubleValue
0.000

@<SCITEGIC>MOL_PROPERTY
Tether
SciTegic.value.DoubleValue
0.000

@<TRIPOS>MOLECULE
guest-s16_confgen4.mol2 : confsearch ligand conformer 718
          13          13           1
SMALL
USER_CHARGES
 
@<TRIPOS>ATOM
       1    C1      20.028545   19.356201   23.406922 C.3        1 MOL1        -0.1693
       2    H1      20.839957   19.243569   24.135552 H          1 MOL1         0.0829
       3    H2      19.291293   20.063320   23.808977 H          1 MOL1         0.0829
       4    C2      19.417229   18.029071   22.846573 C.3        1 MOL1        -0.1768
       5    H3      20.124175   17.192886   22.785025 H          1 MOL1         0.0829
       6    H4      18.500811   17.678088   23.333793 H          1 MOL1         0.0829
       7    C3      19.218959   18.798898   21.503635 C.3        1 MOL1         0.1211
       8    H5      19.362765   18.189678   20.601979 H          1 MOL1         0.0786
       9    C4      20.463181   19.639011   21.930504 C.3        1 MOL1        -0.1768
      10    H6      20.461130   20.690333   21.622171 H          1 MOL1         0.0829
      11    H7      21.424411   19.193291   21.647054 H          1 MOL1         0.0829
      12    O1      18.011014   19.526829   21.408074 O.3        1 MOL1        -0.5515
      13    H8      18.078217   20.098520   20.613840 H          1 MOL1         0.3773
@<TRIPOS>BOND
    1     1     2    1
    2     1     3    1
    3     1     4    1
    4     4     5    1
    5     4     6    1
    6     4     7    1
    7     7     8    1
    8     1     9    1
    9     7     9    1
   10     9    10    1
   11     9    11    1
   12     7    12    1
   13    12    13    1
@<TRIPOS>SUBSTRUCTURE
       1 MOL1            1 RESIDUE      1      MOL     
@<SCITEGIC>MOL_PROPERTY
VConf Rank
SciTegic.value.IntegerValue
718

@<SCITEGIC>MOL_PROPERTY
Conf_Id
SciTegic.value.IntegerValue
20

@<SCITEGIC>MOL_PROPERTY
Delta U+W
SciTegic.value.DoubleValue
1.030

@<SCITEGIC>MOL_PROPERTY
U+W
SciTegic.value.DoubleValue
-2.101

@<SCITEGIC>MOL_PROPERTY
Grad RMS
SciTegic.value.DoubleValue
0.000000

@<SCITEGIC>MOL_PROPERTY
U
SciTegic.value.DoubleValue
0.841

@<SCITEGIC>MOL_PROPERTY
W
SciTegic.value.DoubleValue
-2.942

@<SCITEGIC>MOL_PROPERTY
W(PB)
SciTegic.value.DoubleValue
-4.530

@<SCITEGIC>MOL_PROPERTY
W(SA)
SciTegic.value.DoubleValue
1.587

@<SCITEGIC>MOL_PROPERTY
Valence
SciTegic.value.DoubleValue
6.736

@<SCITEGIC>MOL_PROPERTY
Coulomb
SciTegic.value.DoubleValue
-7.246

@<SCITEGIC>MOL_PROPERTY
VdW
SciTegic.value.DoubleValue
1.352

@<SCITEGIC>MOL_PROPERTY
VdW6
SciTegic.value.DoubleValue
-2.500

@<SCITEGIC>MOL_PROPERTY
VdW12
SciTegic.value.DoubleValue
3.851

@<SCITEGIC>MOL_PROPERTY
Bond
SciTegic.value.DoubleValue
0.063

@<SCITEGIC>MOL_PROPERTY
Angle
SciTegic.value.DoubleValue
0.687

@<SCITEGIC>MOL_PROPERTY
Pdih
SciTegic.value.DoubleValue
5.986

@<SCITEGIC>MOL_PROPERTY
Idih
SciTegic.value.DoubleValue
0.000

@<SCITEGIC>MOL_PROPERTY
Tether
SciTegic.value.DoubleValue
0.000

@<TRIPOS>MOLECULE
guest-s16_confgen4.mol2 : confsearch ligand conformer 719
          13          13           1
SMALL
USER_CHARGES
 
@<TRIPOS>ATOM
       1    C1      20.769954   18.591632   21.530115 C.3        1 MOL1        -0.1693
       2    H1      21.737571   19.052490   21.768852 H          1 MOL1         0.0829
       3    H2      20.914273   17.880849   20.707691 H          1 MOL1         0.0829
       4    C2      19.587143   19.602177   21.365452 C.3        1 MOL1        -0.1768
       5    H3      19.846430   20.585749   20.958451 H          1 MOL1         0.0829
       6    H4      18.723540   19.209804   20.814434 H          1 MOL1         0.0829
       7    C3      19.464864   19.522727   22.917190 C.3        1 MOL1         0.1211
       8    H5      20.160330   20.183860   23.451907 H          1 MOL1         0.0786
       9    C4      19.976458   18.058060   22.768269 C.3        1 MOL1        -0.1768
      10    H6      19.199872   17.320558   22.530798 H          1 MOL1         0.0829
      11    H7      20.579568   17.677942   23.600171 H          1 MOL1         0.0829
      12    O1      18.160216   19.658231   23.428415 O.3        1 MOL1        -0.5515
      13    H8      17.588383   19.048760   22.916291 H          1 MOL1         0.3773
@<TRIPOS>BOND
    1     1     2    1
    2     1     3    1
    3     1     4    1
    4     4     5    1
    5     4     6    1
    6     4     7    1
    7     7     8    1
    8     1     9    1
    9     7     9    1
   10     9    10    1
   11     9    11    1
   12     7    12    1
   13    12    13    1
@<TRIPOS>SUBSTRUCTURE
       1 MOL1            1 RESIDUE      1      MOL     
@<SCITEGIC>MOL_PROPERTY
VConf Rank
SciTegic.value.IntegerValue
719

@<SCITEGIC>MOL_PROPERTY
Conf_Id
SciTegic.value.IntegerValue
24

@<SCITEGIC>MOL_PROPERTY
Delta U+W
SciTegic.value.DoubleValue
0.356

@<SCITEGIC>MOL_PROPERTY
U+W
SciTegic.value.DoubleValue
-2.775

@<SCITEGIC>MOL_PROPERTY
Grad RMS
SciTegic.value.DoubleValue
0.000000

@<SCITEGIC>MOL_PROPERTY
U
SciTegic.value.DoubleValue
-0.184

@<SCITEGIC>MOL_PROPERTY
W
SciTegic.value.DoubleValue
-2.591

@<SCITEGIC>MOL_PROPERTY
W(PB)
SciTegic.value.DoubleValue
-4.184

@<SCITEGIC>MOL_PROPERTY
W(SA)
SciTegic.value.DoubleValue
1.593

@<SCITEGIC>MOL_PROPERTY
Valence
SciTegic.value.DoubleValue
6.840

@<SCITEGIC>MOL_PROPERTY
Coulomb
SciTegic.value.DoubleValue
-7.916

@<SCITEGIC>MOL_PROPERTY
VdW
SciTegic.value.DoubleValue
0.893

@<SCITEGIC>MOL_PROPERTY
VdW6
SciTegic.value.DoubleValue
-2.167

@<SCITEGIC>MOL_PROPERTY
VdW12
SciTegic.value.DoubleValue
3.060

@<SCITEGIC>MOL_PROPERTY
Bond
SciTegic.value.DoubleValue
0.059

@<SCITEGIC>MOL_PROPERTY
Angle
SciTegic.value.DoubleValue
0.918

@<SCITEGIC>MOL_PROPERTY
Pdih
SciTegic.value.DoubleValue
5.862

@<SCITEGIC>MOL_PROPERTY
Idih
SciTegic.value.DoubleValue
0.000

@<SCITEGIC>MOL_PROPERTY
Tether
SciTegic.value.DoubleValue
0.000

@<TRIPOS>MOLECULE
guest-s16_confgen4.mol2 : confsearch ligand conformer 720
          13          13           1
SMALL
USER_CHARGES
 
@<TRIPOS>ATOM
       1    C1      19.633064   18.412524   23.184389 C.3        1 MOL1        -0.1693
       2    H1      20.048163   17.599788   23.792277 H          1 MOL1         0.0829
       3    H2      18.820901   18.887666   23.749124 H          1 MOL1         0.0829
       4    C2      19.279797   18.047719   21.703762 C.3        1 MOL1        -0.1768
       5    H3      19.913051   17.266523   21.265884 H          1 MOL1         0.0829
       6    H4      18.231535   17.798483   21.504417 H          1 MOL1         0.0829
       7    C3      19.716661   19.500159   21.338303 C.3        1 MOL1         0.1211
       8    H5      20.220352   19.599455   20.368292 H          1 MOL1         0.0786
       9    C4      20.673869   19.405094   22.566599 C.3        1 MOL1        -0.1768
      10    H6      21.648929   18.956706   22.340278 H          1 MOL1         0.0829
      11    H7      20.839030   20.337337   23.118282 H          1 MOL1         0.0829
      12    O1      18.699077   20.471047   21.455031 O.3        1 MOL1        -0.5515
      13    H8      18.287428   20.335471   22.333369 H          1 MOL1         0.3773
@<TRIPOS>BOND
    1     1     2    1
    2     1     3    1
    3     1     4    1
    4     4     5    1
    5     4     6    1
    6     4     7    1
    7     7     8    1
    8     1     9    1
    9     7     9    1
   10     9    10    1
   11     9    11    1
   12     7    12    1
   13    12    13    1
@<TRIPOS>SUBSTRUCTURE
       1 MOL1            1 RESIDUE      1      MOL     
@<SCITEGIC>MOL_PROPERTY
VConf Rank
SciTegic.value.IntegerValue
720

@<SCITEGIC>MOL_PROPERTY
Conf_Id
SciTegic.value.IntegerValue
44

@<SCITEGIC>MOL_PROPERTY
Delta U+W
SciTegic.value.DoubleValue
0.823

@<SCITEGIC>MOL_PROPERTY
U+W
SciTegic.value.DoubleValue
-2.308

@<SCITEGIC>MOL_PROPERTY
Grad RMS
SciTegic.value.DoubleValue
0.000000

@<SCITEGIC>MOL_PROPERTY
U
SciTegic.value.DoubleValue
0.039

@<SCITEGIC>MOL_PROPERTY
W
SciTegic.value.DoubleValue
-2.348

@<SCITEGIC>MOL_PROPERTY
W(PB)
SciTegic.value.DoubleValue
-3.918

@<SCITEGIC>MOL_PROPERTY
W(SA)
SciTegic.value.DoubleValue
1.571

@<SCITEGIC>MOL_PROPERTY
Valence
SciTegic.value.DoubleValue
7.320

@<SCITEGIC>MOL_PROPERTY
Coulomb
SciTegic.value.DoubleValue
-8.530

@<SCITEGIC>MOL_PROPERTY
VdW
SciTegic.value.DoubleValue
1.249

@<SCITEGIC>MOL_PROPERTY
VdW6
SciTegic.value.DoubleValue
-2.615

@<SCITEGIC>MOL_PROPERTY
VdW12
SciTegic.value.DoubleValue
3.864

@<SCITEGIC>MOL_PROPERTY
Bond
SciTegic.value.DoubleValue
0.056

@<SCITEGIC>MOL_PROPERTY
Angle
SciTegic.value.DoubleValue
0.694

@<SCITEGIC>MOL_PROPERTY
Pdih
SciTegic.value.DoubleValue
6.570

@<SCITEGIC>MOL_PROPERTY
Idih
SciTegic.value.DoubleValue
0.000

@<SCITEGIC>MOL_PROPERTY
Tether
SciTegic.value.DoubleValue
0.000

@<TRIPOS>MOLECULE
guest-s16_confgen4.mol2 : confsearch ligand conformer 721
          13          13           1
SMALL
USER_CHARGES
 
@<TRIPOS>ATOM
       1    C1      20.800981   18.559433   21.777208 C.3        1 MOL1        -0.1693
       2    H1      20.666500   17.889227   20.917951 H          1 MOL1         0.0829
       3    H2      21.874770   18.674629   21.967062 H          1 MOL1         0.0829
       4    C2      19.916593   18.214714   23.020725 C.3        1 MOL1        -0.1768
       5    H3      19.698665   17.153049   23.179902 H          1 MOL1         0.0829
       6    H4      20.263489   18.649437   23.966380 H          1 MOL1         0.0829
       7    C3      18.802407   19.035033   22.303429 C.3        1 MOL1         0.1211
       8    H5      18.243391   18.460260   21.552297 H          1 MOL1         0.0786
       9    C4      19.968964   19.882613   21.711867 C.3        1 MOL1        -0.1768
      10    H6      19.799480   20.296804   20.711920 H          1 MOL1         0.0829
      11    H7      20.329564   20.683448   22.369457 H          1 MOL1         0.0829
      12    O1      17.923625   19.731394   23.156288 O.3        1 MOL1        -0.5515
      13    H8      17.384300   20.327865   22.593657 H          1 MOL1         0.3773
@<TRIPOS>BOND
    1     1     2    1
    2     1     3    1
    3     1     4    1
    4     4     5    1
    5     4     6    1
    6     4     7    1
    7     7     8    1
    8     1     9    1
    9     7     9    1
   10     9    10    1
   11     9    11    1
   12     7    12    1
   13    12    13    1
@<TRIPOS>SUBSTRUCTURE
       1 MOL1            1 RESIDUE      1      MOL     
@<SCITEGIC>MOL_PROPERTY
VConf Rank
SciTegic.value.IntegerValue
721

@<SCITEGIC>MOL_PROPERTY
Conf_Id
SciTegic.value.IntegerValue
22

@<SCITEGIC>MOL_PROPERTY
Delta U+W
SciTegic.value.DoubleValue
0.000

@<SCITEGIC>MOL_PROPERTY
U+W
SciTegic.value.DoubleValue
-3.131

@<SCITEGIC>MOL_PROPERTY
Grad RMS
SciTegic.value.DoubleValue
0.000000

@<SCITEGIC>MOL_PROPERTY
U
SciTegic.value.DoubleValue
-0.154

@<SCITEGIC>MOL_PROPERTY
W
SciTegic.value.DoubleValue
-2.978

@<SCITEGIC>MOL_PROPERTY
W(PB)
SciTegic.value.DoubleValue
-4.579

@<SCITEGIC>MOL_PROPERTY
W(SA)
SciTegic.value.DoubleValue
1.601

@<SCITEGIC>MOL_PROPERTY
Valence
SciTegic.value.DoubleValue
6.333

@<SCITEGIC>MOL_PROPERTY
Coulomb
SciTegic.value.DoubleValue
-7.439

@<SCITEGIC>MOL_PROPERTY
VdW
SciTegic.value.DoubleValue
0.952

@<SCITEGIC>MOL_PROPERTY
VdW6
SciTegic.value.DoubleValue
-2.120

@<SCITEGIC>MOL_PROPERTY
VdW12
SciTegic.value.DoubleValue
3.072

@<SCITEGIC>MOL_PROPERTY
Bond
SciTegic.value.DoubleValue
0.065

@<SCITEGIC>MOL_PROPERTY
Angle
SciTegic.value.DoubleValue
0.931

@<SCITEGIC>MOL_PROPERTY
Pdih
SciTegic.value.DoubleValue
5.338

@<SCITEGIC>MOL_PROPERTY
Idih
SciTegic.value.DoubleValue
0.000

@<SCITEGIC>MOL_PROPERTY
Tether
SciTegic.value.DoubleValue
0.000

@<TRIPOS>MOLECULE
guest-s16_confgen4.mol2 : confsearch ligand conformer 722
          13          13           1
SMALL
USER_CHARGES
 
@<TRIPOS>ATOM
       1    C1      20.789850   19.147978   22.833509 C.3        1 MOL1        -0.1693
       2    H1      21.416112   19.876593   22.301999 H          1 MOL1         0.0829
       3    H2      21.349624   18.768394   23.696589 H          1 MOL1         0.0829
       4    C2      20.121870   18.068608   21.919128 C.3        1 MOL1        -0.1768
       5    H3      19.778449   17.170094   22.446887 H          1 MOL1         0.0829
       6    H4      20.694928   17.762213   21.037143 H          1 MOL1         0.0829
       7    C3      19.014880   19.137805   21.672988 C.3        1 MOL1         0.1211
       8    H5      19.267456   19.869875   20.893668 H          1 MOL1         0.0786
       9    C4      19.328161   19.626631   23.119276 C.3        1 MOL1        -0.1768
      10    H6      18.808473   19.070619   23.909440 H          1 MOL1         0.0829
      11    H7      19.196790   20.699298   23.298406 H          1 MOL1         0.0829
      12    O1      17.716497   18.627252   21.477829 O.3        1 MOL1        -0.5515
      13    H8      17.699011   18.209019   20.590147 H          1 MOL1         0.3773
@<TRIPOS>BOND
    1     1     2    1
    2     1     3    1
    3     1     4    1
    4     4     5    1
    5     4     6    1
    6     4     7    1
    7     7     8    1
    8     1     9    1
    9     7     9    1
   10     9    10    1
   11     9    11    1
   12     7    12    1
   13    12    13    1
@<TRIPOS>SUBSTRUCTURE
       1 MOL1            1 RESIDUE      1      MOL     
@<SCITEGIC>MOL_PROPERTY
VConf Rank
SciTegic.value.IntegerValue
722

@<SCITEGIC>MOL_PROPERTY
Conf_Id
SciTegic.value.IntegerValue
19

@<SCITEGIC>MOL_PROPERTY
Delta U+W
SciTegic.value.DoubleValue
-0.011

@<SCITEGIC>MOL_PROPERTY
U+W
SciTegic.value.DoubleValue
-3.142

@<SCITEGIC>MOL_PROPERTY
Grad RMS
SciTegic.value.DoubleValue
0.000000

@<SCITEGIC>MOL_PROPERTY
U
SciTegic.value.DoubleValue
-0.154

@<SCITEGIC>MOL_PROPERTY
W
SciTegic.value.DoubleValue
-2.989

@<SCITEGIC>MOL_PROPERTY
W(PB)
SciTegic.value.DoubleValue
-4.588

@<SCITEGIC>MOL_PROPERTY
W(SA)
SciTegic.value.DoubleValue
1.599

@<SCITEGIC>MOL_PROPERTY
Valence
SciTegic.value.DoubleValue
6.334

@<SCITEGIC>MOL_PROPERTY
Coulomb
SciTegic.value.DoubleValue
-7.439

@<SCITEGIC>MOL_PROPERTY
VdW
SciTegic.value.DoubleValue
0.951

@<SCITEGIC>MOL_PROPERTY
VdW6
SciTegic.value.DoubleValue
-2.120

@<SCITEGIC>MOL_PROPERTY
VdW12
SciTegic.value.DoubleValue
3.072

@<SCITEGIC>MOL_PROPERTY
Bond
SciTegic.value.DoubleValue
0.065

@<SCITEGIC>MOL_PROPERTY
Angle
SciTegic.value.DoubleValue
0.930

@<SCITEGIC>MOL_PROPERTY
Pdih
SciTegic.value.DoubleValue
5.339

@<SCITEGIC>MOL_PROPERTY
Idih
SciTegic.value.DoubleValue
0.000

@<SCITEGIC>MOL_PROPERTY
Tether
SciTegic.value.DoubleValue
0.000

@<TRIPOS>MOLECULE
guest-s16_confgen4.mol2 : confsearch ligand conformer 723
          13          13           1
SMALL
USER_CHARGES
 
@<TRIPOS>ATOM
       1    C1      20.229940   19.093180   21.203738 C.3        1 MOL1        -0.1693
       2    H1      20.153465   19.353103   20.141397 H          1 MOL1         0.0829
       3    H2      21.265386   18.799117   21.419573 H          1 MOL1         0.0829
       4    C2      19.146690   18.104934   21.750467 C.3        1 MOL1        -0.1768
       5    H3      18.172607   18.176161   21.251614 H          1 MOL1         0.0829
       6    H4      19.438813   17.050131   21.799934 H          1 MOL1         0.0829
       7    C3      19.237517   18.897208   23.091915 C.3        1 MOL1         0.1211
       8    H5      18.285495   18.997438   23.628963 H          1 MOL1         0.0786
       9    C4      19.623794   20.126220   22.210771 C.3        1 MOL1        -0.1768
      10    H6      20.331274   20.833563   22.657413 H          1 MOL1         0.0829
      11    H7      18.765314   20.688019   21.822996 H          1 MOL1         0.0829
      12    O1      20.247740   18.455355   23.976426 O.3        1 MOL1        -0.5515
      13    H8      20.323652   19.125266   24.688894 H          1 MOL1         0.3773
@<TRIPOS>BOND
    1     1     2    1
    2     1     3    1
    3     1     4    1
    4     4     5    1
    5     4     6    1
    6     4     7    1
    7     7     8    1
    8     1     9    1
    9     7     9    1
   10     9    10    1
   11     9    11    1
   12     7    12    1
   13    12    13    1
@<TRIPOS>SUBSTRUCTURE
       1 MOL1            1 RESIDUE      1      MOL     
@<SCITEGIC>MOL_PROPERTY
VConf Rank
SciTegic.value.IntegerValue
723

@<SCITEGIC>MOL_PROPERTY
Conf_Id
SciTegic.value.IntegerValue
20

@<SCITEGIC>MOL_PROPERTY
Delta U+W
SciTegic.value.DoubleValue
1.030

@<SCITEGIC>MOL_PROPERTY
U+W
SciTegic.value.DoubleValue
-2.101

@<SCITEGIC>MOL_PROPERTY
Grad RMS
SciTegic.value.DoubleValue
0.000000

@<SCITEGIC>MOL_PROPERTY
U
SciTegic.value.DoubleValue
0.841

@<SCITEGIC>MOL_PROPERTY
W
SciTegic.value.DoubleValue
-2.942

@<SCITEGIC>MOL_PROPERTY
W(PB)
SciTegic.value.DoubleValue
-4.530

@<SCITEGIC>MOL_PROPERTY
W(SA)
SciTegic.value.DoubleValue
1.587

@<SCITEGIC>MOL_PROPERTY
Valence
SciTegic.value.DoubleValue
6.736

@<SCITEGIC>MOL_PROPERTY
Coulomb
SciTegic.value.DoubleValue
-7.246

@<SCITEGIC>MOL_PROPERTY
VdW
SciTegic.value.DoubleValue
1.352

@<SCITEGIC>MOL_PROPERTY
VdW6
SciTegic.value.DoubleValue
-2.500

@<SCITEGIC>MOL_PROPERTY
VdW12
SciTegic.value.DoubleValue
3.851

@<SCITEGIC>MOL_PROPERTY
Bond
SciTegic.value.DoubleValue
0.063

@<SCITEGIC>MOL_PROPERTY
Angle
SciTegic.value.DoubleValue
0.687

@<SCITEGIC>MOL_PROPERTY
Pdih
SciTegic.value.DoubleValue
5.986

@<SCITEGIC>MOL_PROPERTY
Idih
SciTegic.value.DoubleValue
0.000

@<SCITEGIC>MOL_PROPERTY
Tether
SciTegic.value.DoubleValue
0.000

@<TRIPOS>MOLECULE
guest-s16_confgen4.mol2 : confsearch ligand conformer 724
          13          13           1
SMALL
USER_CHARGES
 
@<TRIPOS>ATOM
       1    C1      19.391630   20.152580   21.932245 C.3        1 MOL1        -0.1693
       2    H1      20.176715   20.875688   21.674514 H          1 MOL1         0.0829
       3    H2      18.420368   20.659558   21.887015 H          1 MOL1         0.0829
       4    C2      19.671052   19.316844   23.224848 C.3        1 MOL1        -0.1768
       5    H3      20.235893   19.824488   24.014497 H          1 MOL1         0.0829
       6    H4      18.782605   18.852659   23.670474 H          1 MOL1         0.0829
       7    C3      20.500578   18.382274   22.293385 C.3        1 MOL1         0.1211
       8    H5      21.525451   18.733086   22.111013 H          1 MOL1         0.0786
       9    C4      19.488860   18.785241   21.178397 C.3        1 MOL1        -0.1768
      10    H6      18.559691   18.202237   21.166615 H          1 MOL1         0.0829
      11    H7      19.892797   18.823398   20.160718 H          1 MOL1         0.0829
      12    O1      20.498792   17.019764   22.647479 O.3        1 MOL1        -0.5515
      13    H8      19.564171   16.765021   22.796835 H          1 MOL1         0.3773
@<TRIPOS>BOND
    1     1     2    1
    2     1     3    1
    3     1     4    1
    4     4     5    1
    5     4     6    1
    6     4     7    1
    7     7     8    1
    8     1     9    1
    9     7     9    1
   10     9    10    1
   11     9    11    1
   12     7    12    1
   13    12    13    1
@<TRIPOS>SUBSTRUCTURE
       1 MOL1            1 RESIDUE      1      MOL     
@<SCITEGIC>MOL_PROPERTY
VConf Rank
SciTegic.value.IntegerValue
724

@<SCITEGIC>MOL_PROPERTY
Conf_Id
SciTegic.value.IntegerValue
24

@<SCITEGIC>MOL_PROPERTY
Delta U+W
SciTegic.value.DoubleValue
0.356

@<SCITEGIC>MOL_PROPERTY
U+W
SciTegic.value.DoubleValue
-2.775

@<SCITEGIC>MOL_PROPERTY
Grad RMS
SciTegic.value.DoubleValue
0.000000

@<SCITEGIC>MOL_PROPERTY
U
SciTegic.value.DoubleValue
-0.184

@<SCITEGIC>MOL_PROPERTY
W
SciTegic.value.DoubleValue
-2.591

@<SCITEGIC>MOL_PROPERTY
W(PB)
SciTegic.value.DoubleValue
-4.184

@<SCITEGIC>MOL_PROPERTY
W(SA)
SciTegic.value.DoubleValue
1.593

@<SCITEGIC>MOL_PROPERTY
Valence
SciTegic.value.DoubleValue
6.840

@<SCITEGIC>MOL_PROPERTY
Coulomb
SciTegic.value.DoubleValue
-7.916

@<SCITEGIC>MOL_PROPERTY
VdW
SciTegic.value.DoubleValue
0.893

@<SCITEGIC>MOL_PROPERTY
VdW6
SciTegic.value.DoubleValue
-2.167

@<SCITEGIC>MOL_PROPERTY
VdW12
SciTegic.value.DoubleValue
3.060

@<SCITEGIC>MOL_PROPERTY
Bond
SciTegic.value.DoubleValue
0.059

@<SCITEGIC>MOL_PROPERTY
Angle
SciTegic.value.DoubleValue
0.918

@<SCITEGIC>MOL_PROPERTY
Pdih
SciTegic.value.DoubleValue
5.862

@<SCITEGIC>MOL_PROPERTY
Idih
SciTegic.value.DoubleValue
0.000

@<SCITEGIC>MOL_PROPERTY
Tether
SciTegic.value.DoubleValue
0.000

@<TRIPOS>MOLECULE
guest-s16_confgen4.mol2 : confsearch ligand conformer 725
          13          13           1
SMALL
USER_CHARGES
 
@<TRIPOS>ATOM
       1    C1      20.677297   18.533431   21.882922 C.3        1 MOL1        -0.1693
       2    H1      21.764410   18.537170   22.026261 H          1 MOL1         0.0829
       3    H2      20.433693   17.805766   21.098411 H          1 MOL1         0.0829
       4    C2      20.005008   19.936539   21.711307 C.3        1 MOL1        -0.1768
       5    H3      20.513177   20.750707   22.242259 H          1 MOL1         0.0829
       6    H4      19.814303   20.258273   20.681343 H          1 MOL1         0.0829
       7    C3      18.782628   19.342579   22.477462 C.3        1 MOL1         0.1211
       8    H5      18.268250   20.048381   23.142103 H          1 MOL1         0.0786
       9    C4      19.816035   18.411740   23.184288 C.3        1 MOL1        -0.1768
      10    H6      20.277873   18.852049   24.076392 H          1 MOL1         0.0829
      11    H7      19.460848   17.406267   23.436428 H          1 MOL1         0.0829
      12    O1      17.843022   18.673513   21.664309 O.3        1 MOL1        -0.5515
      13    H8      18.355313   18.061555   21.096524 H          1 MOL1         0.3773
@<TRIPOS>BOND
    1     1     2    1
    2     1     3    1
    3     1     4    1
    4     4     5    1
    5     4     6    1
    6     4     7    1
    7     7     8    1
    8     1     9    1
    9     7     9    1
   10     9    10    1
   11     9    11    1
   12     7    12    1
   13    12    13    1
@<TRIPOS>SUBSTRUCTURE
       1 MOL1            1 RESIDUE      1      MOL     
@<SCITEGIC>MOL_PROPERTY
VConf Rank
SciTegic.value.IntegerValue
725

@<SCITEGIC>MOL_PROPERTY
Conf_Id
SciTegic.value.IntegerValue
44

@<SCITEGIC>MOL_PROPERTY
Delta U+W
SciTegic.value.DoubleValue
0.823

@<SCITEGIC>MOL_PROPERTY
U+W
SciTegic.value.DoubleValue
-2.308

@<SCITEGIC>MOL_PROPERTY
Grad RMS
SciTegic.value.DoubleValue
0.000000

@<SCITEGIC>MOL_PROPERTY
U
SciTegic.value.DoubleValue
0.039

@<SCITEGIC>MOL_PROPERTY
W
SciTegic.value.DoubleValue
-2.348

@<SCITEGIC>MOL_PROPERTY
W(PB)
SciTegic.value.DoubleValue
-3.918

@<SCITEGIC>MOL_PROPERTY
W(SA)
SciTegic.value.DoubleValue
1.571

@<SCITEGIC>MOL_PROPERTY
Valence
SciTegic.value.DoubleValue
7.320

@<SCITEGIC>MOL_PROPERTY
Coulomb
SciTegic.value.DoubleValue
-8.530

@<SCITEGIC>MOL_PROPERTY
VdW
SciTegic.value.DoubleValue
1.249

@<SCITEGIC>MOL_PROPERTY
VdW6
SciTegic.value.DoubleValue
-2.615

@<SCITEGIC>MOL_PROPERTY
VdW12
SciTegic.value.DoubleValue
3.864

@<SCITEGIC>MOL_PROPERTY
Bond
SciTegic.value.DoubleValue
0.056

@<SCITEGIC>MOL_PROPERTY
Angle
SciTegic.value.DoubleValue
0.694

@<SCITEGIC>MOL_PROPERTY
Pdih
SciTegic.value.DoubleValue
6.570

@<SCITEGIC>MOL_PROPERTY
Idih
SciTegic.value.DoubleValue
0.000

@<SCITEGIC>MOL_PROPERTY
Tether
SciTegic.value.DoubleValue
0.000

@<TRIPOS>MOLECULE
guest-s16_confgen4.mol2 : confsearch ligand conformer 726
          13          13           1
SMALL
USER_CHARGES
 
@<TRIPOS>ATOM
       1    C1      20.648836   19.924592   22.233574 C.3        1 MOL1        -0.1693
       2    H1      21.095375   20.064488   21.240287 H          1 MOL1         0.0829
       3    H2      21.130185   20.616654   22.934781 H          1 MOL1         0.0829
       4    C2      20.545111   18.435137   22.700557 C.3        1 MOL1        -0.1768
       5    H3      21.338030   17.763339   22.354252 H          1 MOL1         0.0829
       6    H4      20.415310   18.300171   23.781539 H          1 MOL1         0.0829
       7    C3      19.219688   18.397817   21.881590 C.3        1 MOL1         0.1211
       8    H5      19.367172   18.213296   20.808621 H          1 MOL1         0.0786
       9    C4      19.084656   19.905868   22.251375 C.3        1 MOL1        -0.1768
      10    H6      18.586335   20.537508   21.507817 H          1 MOL1         0.0829
      11    H7      18.635402   20.095739   23.234185 H          1 MOL1         0.0829
      12    O1      18.214763   17.557724   22.400160 O.3        1 MOL1        -0.5515
      13    H8      17.391864   17.745575   21.899406 H          1 MOL1         0.3773
@<TRIPOS>BOND
    1     1     2    1
    2     1     3    1
    3     1     4    1
    4     4     5    1
    5     4     6    1
    6     4     7    1
    7     7     8    1
    8     1     9    1
    9     7     9    1
   10     9    10    1
   11     9    11    1
   12     7    12    1
   13    12    13    1
@<TRIPOS>SUBSTRUCTURE
       1 MOL1            1 RESIDUE      1      MOL     
@<SCITEGIC>MOL_PROPERTY
VConf Rank
SciTegic.value.IntegerValue
726

@<SCITEGIC>MOL_PROPERTY
Conf_Id
SciTegic.value.IntegerValue
22

@<SCITEGIC>MOL_PROPERTY
Delta U+W
SciTegic.value.DoubleValue
0.000

@<SCITEGIC>MOL_PROPERTY
U+W
SciTegic.value.DoubleValue
-3.131

@<SCITEGIC>MOL_PROPERTY
Grad RMS
SciTegic.value.DoubleValue
0.000000

@<SCITEGIC>MOL_PROPERTY
U
SciTegic.value.DoubleValue
-0.154

@<SCITEGIC>MOL_PROPERTY
W
SciTegic.value.DoubleValue
-2.978

@<SCITEGIC>MOL_PROPERTY
W(PB)
SciTegic.value.DoubleValue
-4.579

@<SCITEGIC>MOL_PROPERTY
W(SA)
SciTegic.value.DoubleValue
1.601

@<SCITEGIC>MOL_PROPERTY
Valence
SciTegic.value.DoubleValue
6.333

@<SCITEGIC>MOL_PROPERTY
Coulomb
SciTegic.value.DoubleValue
-7.439

@<SCITEGIC>MOL_PROPERTY
VdW
SciTegic.value.DoubleValue
0.952

@<SCITEGIC>MOL_PROPERTY
VdW6
SciTegic.value.DoubleValue
-2.120

@<SCITEGIC>MOL_PROPERTY
VdW12
SciTegic.value.DoubleValue
3.072

@<SCITEGIC>MOL_PROPERTY
Bond
SciTegic.value.DoubleValue
0.065

@<SCITEGIC>MOL_PROPERTY
Angle
SciTegic.value.DoubleValue
0.931

@<SCITEGIC>MOL_PROPERTY
Pdih
SciTegic.value.DoubleValue
5.338

@<SCITEGIC>MOL_PROPERTY
Idih
SciTegic.value.DoubleValue
0.000

@<SCITEGIC>MOL_PROPERTY
Tether
SciTegic.value.DoubleValue
0.000

@<TRIPOS>MOLECULE
guest-s16_confgen4.mol2 : confsearch ligand conformer 727
          13          13           1
SMALL
USER_CHARGES
 
@<TRIPOS>ATOM
       1    C1      18.721503   19.658703   22.862196 C.3        1 MOL1        -0.1693
       2    H1      17.710392   19.233385   22.813768 H          1 MOL1         0.0829
       3    H2      18.671382   20.623373   23.381076 H          1 MOL1         0.0829
       4    C2      19.502025   19.647497   21.506471 C.3        1 MOL1        -0.1768
       5    H3      20.349298   20.343021   21.459903 H          1 MOL1         0.0829
       6    H4      18.897274   19.767178   20.600863 H          1 MOL1         0.0829
       7    C3      19.885730   18.183609   21.879291 C.3        1 MOL1         0.1211
       8    H5      19.116196   17.442170   21.624051 H          1 MOL1         0.0786
       9    C4      19.825166   18.667745   23.359422 C.3        1 MOL1        -0.1768
      10    H6      20.744568   19.146280   23.718992 H          1 MOL1         0.0829
      11    H7      19.507692   17.918660   24.092936 H          1 MOL1         0.0829
      12    O1      21.154177   17.761242   21.435221 O.3        1 MOL1        -0.5515
      13    H8      21.096698   17.641518   20.462819 H          1 MOL1         0.3773
@<TRIPOS>BOND
    1     1     2    1
    2     1     3    1
    3     1     4    1
    4     4     5    1
    5     4     6    1
    6     4     7    1
    7     7     8    1
    8     1     9    1
    9     7     9    1
   10     9    10    1
   11     9    11    1
   12     7    12    1
   13    12    13    1
@<TRIPOS>SUBSTRUCTURE
       1 MOL1            1 RESIDUE      1      MOL     
@<SCITEGIC>MOL_PROPERTY
VConf Rank
SciTegic.value.IntegerValue
727

@<SCITEGIC>MOL_PROPERTY
Conf_Id
SciTegic.value.IntegerValue
19

@<SCITEGIC>MOL_PROPERTY
Delta U+W
SciTegic.value.DoubleValue
-0.011

@<SCITEGIC>MOL_PROPERTY
U+W
SciTegic.value.DoubleValue
-3.142

@<SCITEGIC>MOL_PROPERTY
Grad RMS
SciTegic.value.DoubleValue
0.000000

@<SCITEGIC>MOL_PROPERTY
U
SciTegic.value.DoubleValue
-0.154

@<SCITEGIC>MOL_PROPERTY
W
SciTegic.value.DoubleValue
-2.989

@<SCITEGIC>MOL_PROPERTY
W(PB)
SciTegic.value.DoubleValue
-4.588

@<SCITEGIC>MOL_PROPERTY
W(SA)
SciTegic.value.DoubleValue
1.599

@<SCITEGIC>MOL_PROPERTY
Valence
SciTegic.value.DoubleValue
6.334

@<SCITEGIC>MOL_PROPERTY
Coulomb
SciTegic.value.DoubleValue
-7.439

@<SCITEGIC>MOL_PROPERTY
VdW
SciTegic.value.DoubleValue
0.951

@<SCITEGIC>MOL_PROPERTY
VdW6
SciTegic.value.DoubleValue
-2.120

@<SCITEGIC>MOL_PROPERTY
VdW12
SciTegic.value.DoubleValue
3.072

@<SCITEGIC>MOL_PROPERTY
Bond
SciTegic.value.DoubleValue
0.065

@<SCITEGIC>MOL_PROPERTY
Angle
SciTegic.value.DoubleValue
0.930

@<SCITEGIC>MOL_PROPERTY
Pdih
SciTegic.value.DoubleValue
5.339

@<SCITEGIC>MOL_PROPERTY
Idih
SciTegic.value.DoubleValue
0.000

@<SCITEGIC>MOL_PROPERTY
Tether
SciTegic.value.DoubleValue
0.000

@<TRIPOS>MOLECULE
guest-s16_confgen4.mol2 : confsearch ligand conformer 728
          13          13           1
SMALL
USER_CHARGES
 
@<TRIPOS>ATOM
       1    C1      19.983257   20.181544   22.630669 C.3        1 MOL1        -0.1693
       2    H1      20.478895   21.107650   22.316587 H          1 MOL1         0.0829
       3    H2      19.588863   20.321214   23.645634 H          1 MOL1         0.0829
       4    C2      20.798030   18.861161   22.426448 C.3        1 MOL1        -0.1768
       5    H3      21.482737   18.876885   21.569888 H          1 MOL1         0.0829
       6    H4      21.341397   18.490632   23.302721 H          1 MOL1         0.0829
       7    C3      19.427843   18.172440   22.137177 C.3        1 MOL1         0.1211
       8    H5      19.464368   17.384662   21.373708 H          1 MOL1         0.0786
       9    C4      18.963011   19.567966   21.615129 C.3        1 MOL1        -0.1768
      10    H6      17.909336   19.816658   21.783270 H          1 MOL1         0.0829
      11    H7      19.202820   19.755661   20.561451 H          1 MOL1         0.0829
      12    O1      18.743626   17.704942   23.282357 O.3        1 MOL1        -0.5515
      13    H8      17.837504   17.458282   22.999062 H          1 MOL1         0.3773
@<TRIPOS>BOND
    1     1     2    1
    2     1     3    1
    3     1     4    1
    4     4     5    1
    5     4     6    1
    6     4     7    1
    7     7     8    1
    8     1     9    1
    9     7     9    1
   10     9    10    1
   11     9    11    1
   12     7    12    1
   13    12    13    1
@<TRIPOS>SUBSTRUCTURE
       1 MOL1            1 RESIDUE      1      MOL     
@<SCITEGIC>MOL_PROPERTY
VConf Rank
SciTegic.value.IntegerValue
728

@<SCITEGIC>MOL_PROPERTY
Conf_Id
SciTegic.value.IntegerValue
20

@<SCITEGIC>MOL_PROPERTY
Delta U+W
SciTegic.value.DoubleValue
1.030

@<SCITEGIC>MOL_PROPERTY
U+W
SciTegic.value.DoubleValue
-2.101

@<SCITEGIC>MOL_PROPERTY
Grad RMS
SciTegic.value.DoubleValue
0.000000

@<SCITEGIC>MOL_PROPERTY
U
SciTegic.value.DoubleValue
0.841

@<SCITEGIC>MOL_PROPERTY
W
SciTegic.value.DoubleValue
-2.942

@<SCITEGIC>MOL_PROPERTY
W(PB)
SciTegic.value.DoubleValue
-4.530

@<SCITEGIC>MOL_PROPERTY
W(SA)
SciTegic.value.DoubleValue
1.587

@<SCITEGIC>MOL_PROPERTY
Valence
SciTegic.value.DoubleValue
6.736

@<SCITEGIC>MOL_PROPERTY
Coulomb
SciTegic.value.DoubleValue
-7.246

@<SCITEGIC>MOL_PROPERTY
VdW
SciTegic.value.DoubleValue
1.352

@<SCITEGIC>MOL_PROPERTY
VdW6
SciTegic.value.DoubleValue
-2.500

@<SCITEGIC>MOL_PROPERTY
VdW12
SciTegic.value.DoubleValue
3.851

@<SCITEGIC>MOL_PROPERTY
Bond
SciTegic.value.DoubleValue
0.063

@<SCITEGIC>MOL_PROPERTY
Angle
SciTegic.value.DoubleValue
0.687

@<SCITEGIC>MOL_PROPERTY
Pdih
SciTegic.value.DoubleValue
5.986

@<SCITEGIC>MOL_PROPERTY
Idih
SciTegic.value.DoubleValue
0.000

@<SCITEGIC>MOL_PROPERTY
Tether
SciTegic.value.DoubleValue
0.000

@<TRIPOS>MOLECULE
guest-s16_confgen4.mol2 : confsearch ligand conformer 729
          13          13           1
SMALL
USER_CHARGES
 
@<TRIPOS>ATOM
       1    C1      19.373844   19.653419   23.218889 C.3        1 MOL1        -0.1693
       2    H1      19.434205   19.196143   24.215345 H          1 MOL1         0.0829
       3    H2      18.981784   20.672030   23.324447 H          1 MOL1         0.0829
       4    C2      18.688300   18.762512   22.130923 C.3        1 MOL1        -0.1768
       5    H3      17.891562   18.098322   22.483558 H          1 MOL1         0.0829
       6    H4      18.326442   19.310618   21.252272 H          1 MOL1         0.0829
       7    C3      20.091291   18.105407   21.960676 C.3        1 MOL1         0.1211
       8    H5      20.304411   17.316798   22.695095 H          1 MOL1         0.0786
       9    C4      20.665794   19.500946   22.349997 C.3        1 MOL1        -0.1768
      10    H6      20.745930   20.214101   21.520312 H          1 MOL1         0.0829
      11    H7      21.615484   19.488905   22.896105 H          1 MOL1         0.0829
      12    O1      20.399323   17.666701   20.658958 O.3        1 MOL1        -0.5515
      13    H8      20.190233   18.406934   20.051457 H          1 MOL1         0.3773
@<TRIPOS>BOND
    1     1     2    1
    2     1     3    1
    3     1     4    1
    4     4     5    1
    5     4     6    1
    6     4     7    1
    7     7     8    1
    8     1     9    1
    9     7     9    1
   10     9    10    1
   11     9    11    1
   12     7    12    1
   13    12    13    1
@<TRIPOS>SUBSTRUCTURE
       1 MOL1            1 RESIDUE      1      MOL     
@<SCITEGIC>MOL_PROPERTY
VConf Rank
SciTegic.value.IntegerValue
729

@<SCITEGIC>MOL_PROPERTY
Conf_Id
SciTegic.value.IntegerValue
24

@<SCITEGIC>MOL_PROPERTY
Delta U+W
SciTegic.value.DoubleValue
0.356

@<SCITEGIC>MOL_PROPERTY
U+W
SciTegic.value.DoubleValue
-2.775

@<SCITEGIC>MOL_PROPERTY
Grad RMS
SciTegic.value.DoubleValue
0.000000

@<SCITEGIC>MOL_PROPERTY
U
SciTegic.value.DoubleValue
-0.184

@<SCITEGIC>MOL_PROPERTY
W
SciTegic.value.DoubleValue
-2.591

@<SCITEGIC>MOL_PROPERTY
W(PB)
SciTegic.value.DoubleValue
-4.184

@<SCITEGIC>MOL_PROPERTY
W(SA)
SciTegic.value.DoubleValue
1.593

@<SCITEGIC>MOL_PROPERTY
Valence
SciTegic.value.DoubleValue
6.840

@<SCITEGIC>MOL_PROPERTY
Coulomb
SciTegic.value.DoubleValue
-7.916

@<SCITEGIC>MOL_PROPERTY
VdW
SciTegic.value.DoubleValue
0.893

@<SCITEGIC>MOL_PROPERTY
VdW6
SciTegic.value.DoubleValue
-2.167

@<SCITEGIC>MOL_PROPERTY
VdW12
SciTegic.value.DoubleValue
3.060

@<SCITEGIC>MOL_PROPERTY
Bond
SciTegic.value.DoubleValue
0.059

@<SCITEGIC>MOL_PROPERTY
Angle
SciTegic.value.DoubleValue
0.918

@<SCITEGIC>MOL_PROPERTY
Pdih
SciTegic.value.DoubleValue
5.862

@<SCITEGIC>MOL_PROPERTY
Idih
SciTegic.value.DoubleValue
0.000

@<SCITEGIC>MOL_PROPERTY
Tether
SciTegic.value.DoubleValue
0.000

@<TRIPOS>MOLECULE
guest-s16_confgen4.mol2 : confsearch ligand conformer 730
          13          13           1
SMALL
USER_CHARGES
 
@<TRIPOS>ATOM
       1    C1      19.272843   18.231085   22.945707 C.3        1 MOL1        -0.1693
       2    H1      18.427967   17.979713   23.597911 H          1 MOL1         0.0829
       3    H2      20.030379   17.442772   23.040565 H          1 MOL1         0.0829
       4    C2      19.822813   19.691242   23.070656 C.3        1 MOL1        -0.1768
       5    H3      19.068874   20.437297   23.349926 H          1 MOL1         0.0829
       6    H4      20.699255   19.824030   23.714804 H          1 MOL1         0.0829
       7    C3      20.107664   19.617069   21.538550 C.3        1 MOL1         0.1211
       8    H5      19.954263   20.558273   20.995328 H          1 MOL1         0.0786
       9    C4      18.908805   18.620790   21.474061 C.3        1 MOL1        -0.1768
      10    H6      17.930765   19.104386   21.361870 H          1 MOL1         0.0829
      11    H7      18.989679   17.821840   20.728509 H          1 MOL1         0.0829
      12    O1      21.358440   19.060569   21.195630 O.3        1 MOL1        -0.5515
      13    H8      21.440109   18.228906   21.706493 H          1 MOL1         0.3773
@<TRIPOS>BOND
    1     1     2    1
    2     1     3    1
    3     1     4    1
    4     4     5    1
    5     4     6    1
    6     4     7    1
    7     7     8    1
    8     1     9    1
    9     7     9    1
   10     9    10    1
   11     9    11    1
   12     7    12    1
   13    12    13    1
@<TRIPOS>SUBSTRUCTURE
       1 MOL1            1 RESIDUE      1      MOL     
@<SCITEGIC>MOL_PROPERTY
VConf Rank
SciTegic.value.IntegerValue
730

@<SCITEGIC>MOL_PROPERTY
Conf_Id
SciTegic.value.IntegerValue
44

@<SCITEGIC>MOL_PROPERTY
Delta U+W
SciTegic.value.DoubleValue
0.823

@<SCITEGIC>MOL_PROPERTY
U+W
SciTegic.value.DoubleValue
-2.308

@<SCITEGIC>MOL_PROPERTY
Grad RMS
SciTegic.value.DoubleValue
0.000000

@<SCITEGIC>MOL_PROPERTY
U
SciTegic.value.DoubleValue
0.039

@<SCITEGIC>MOL_PROPERTY
W
SciTegic.value.DoubleValue
-2.348

@<SCITEGIC>MOL_PROPERTY
W(PB)
SciTegic.value.DoubleValue
-3.918

@<SCITEGIC>MOL_PROPERTY
W(SA)
SciTegic.value.DoubleValue
1.571

@<SCITEGIC>MOL_PROPERTY
Valence
SciTegic.value.DoubleValue
7.320

@<SCITEGIC>MOL_PROPERTY
Coulomb
SciTegic.value.DoubleValue
-8.530

@<SCITEGIC>MOL_PROPERTY
VdW
SciTegic.value.DoubleValue
1.249

@<SCITEGIC>MOL_PROPERTY
VdW6
SciTegic.value.DoubleValue
-2.615

@<SCITEGIC>MOL_PROPERTY
VdW12
SciTegic.value.DoubleValue
3.864

@<SCITEGIC>MOL_PROPERTY
Bond
SciTegic.value.DoubleValue
0.056

@<SCITEGIC>MOL_PROPERTY
Angle
SciTegic.value.DoubleValue
0.694

@<SCITEGIC>MOL_PROPERTY
Pdih
SciTegic.value.DoubleValue
6.570

@<SCITEGIC>MOL_PROPERTY
Idih
SciTegic.value.DoubleValue
0.000

@<SCITEGIC>MOL_PROPERTY
Tether
SciTegic.value.DoubleValue
0.000

@<TRIPOS>MOLECULE
guest-s16_confgen4.mol2 : confsearch ligand conformer 731
          13          13           1
SMALL
USER_CHARGES
 
@<TRIPOS>ATOM
       1    C1      20.800211   18.656025   21.693557 C.3        1 MOL1        -0.1693
       2    H1      21.063255   17.614027   21.918576 H          1 MOL1         0.0829
       3    H2      21.553307   19.068048   21.011340 H          1 MOL1         0.0829
       4    C2      20.456233   19.529070   22.945267 C.3        1 MOL1        -0.1768
       5    H3      20.993206   19.284194   23.868119 H          1 MOL1         0.0829
       6    H4      20.513727   20.612149   22.780284 H          1 MOL1         0.0829
       7    C3      19.022549   18.931698   22.816642 C.3        1 MOL1         0.1211
       8    H5      18.911314   17.943024   23.282704 H          1 MOL1         0.0786
       9    C4      19.306888   18.880631   21.285063 C.3        1 MOL1        -0.1768
      10    H6      18.828366   18.061470   20.737191 H          1 MOL1         0.0829
      11    H7      19.113706   19.821075   20.753989 H          1 MOL1         0.0829
      12    O1      17.975445   19.789437   23.207031 O.3        1 MOL1        -0.5515
      13    H8      17.134520   19.367059   22.928382 H          1 MOL1         0.3773
@<TRIPOS>BOND
    1     1     2    1
    2     1     3    1
    3     1     4    1
    4     4     5    1
    5     4     6    1
    6     4     7    1
    7     7     8    1
    8     1     9    1
    9     7     9    1
   10     9    10    1
   11     9    11    1
   12     7    12    1
   13    12    13    1
@<TRIPOS>SUBSTRUCTURE
       1 MOL1            1 RESIDUE      1      MOL     
@<SCITEGIC>MOL_PROPERTY
VConf Rank
SciTegic.value.IntegerValue
731

@<SCITEGIC>MOL_PROPERTY
Conf_Id
SciTegic.value.IntegerValue
22

@<SCITEGIC>MOL_PROPERTY
Delta U+W
SciTegic.value.DoubleValue
0.000

@<SCITEGIC>MOL_PROPERTY
U+W
SciTegic.value.DoubleValue
-3.131

@<SCITEGIC>MOL_PROPERTY
Grad RMS
SciTegic.value.DoubleValue
0.000000

@<SCITEGIC>MOL_PROPERTY
U
SciTegic.value.DoubleValue
-0.154

@<SCITEGIC>MOL_PROPERTY
W
SciTegic.value.DoubleValue
-2.978

@<SCITEGIC>MOL_PROPERTY
W(PB)
SciTegic.value.DoubleValue
-4.579

@<SCITEGIC>MOL_PROPERTY
W(SA)
SciTegic.value.DoubleValue
1.601

@<SCITEGIC>MOL_PROPERTY
Valence
SciTegic.value.DoubleValue
6.333

@<SCITEGIC>MOL_PROPERTY
Coulomb
SciTegic.value.DoubleValue
-7.439

@<SCITEGIC>MOL_PROPERTY
VdW
SciTegic.value.DoubleValue
0.952

@<SCITEGIC>MOL_PROPERTY
VdW6
SciTegic.value.DoubleValue
-2.120

@<SCITEGIC>MOL_PROPERTY
VdW12
SciTegic.value.DoubleValue
3.072

@<SCITEGIC>MOL_PROPERTY
Bond
SciTegic.value.DoubleValue
0.065

@<SCITEGIC>MOL_PROPERTY
Angle
SciTegic.value.DoubleValue
0.931

@<SCITEGIC>MOL_PROPERTY
Pdih
SciTegic.value.DoubleValue
5.338

@<SCITEGIC>MOL_PROPERTY
Idih
SciTegic.value.DoubleValue
0.000

@<SCITEGIC>MOL_PROPERTY
Tether
SciTegic.value.DoubleValue
0.000

@<TRIPOS>MOLECULE
guest-s16_confgen4.mol2 : confsearch ligand conformer 732
          13          13           1
SMALL
USER_CHARGES
 
@<TRIPOS>ATOM
       1    C1      19.161020   19.663629   23.234577 C.3        1 MOL1        -0.1693
       2    H1      18.478870   19.119172   23.900779 H          1 MOL1         0.0829
       3    H2      19.216026   20.707301   23.566333 H          1 MOL1         0.0829
       4    C2      18.901772   19.440685   21.708007 C.3        1 MOL1        -0.1768
       5    H3      19.338104   20.204985   21.052833 H          1 MOL1         0.0829
       6    H4      17.858815   19.278325   21.414662 H          1 MOL1         0.0829
       7    C3      19.769654   18.156560   21.872322 C.3        1 MOL1         0.1211
       8    H5      19.214415   17.289036   22.254649 H          1 MOL1         0.0786
       9    C4      20.529936   18.951914   22.976055 C.3        1 MOL1        -0.1768
      10    H6      21.324642   19.607073   22.598174 H          1 MOL1         0.0829
      11    H7      20.928812   18.355353   23.803687 H          1 MOL1         0.0829
      12    O1      20.539710   17.801473   20.747389 O.3        1 MOL1        -0.5515
      13    H8      19.920324   17.458874   20.067543 H          1 MOL1         0.3773
@<TRIPOS>BOND
    1     1     2    1
    2     1     3    1
    3     1     4    1
    4     4     5    1
    5     4     6    1
    6     4     7    1
    7     7     8    1
    8     1     9    1
    9     7     9    1
   10     9    10    1
   11     9    11    1
   12     7    12    1
   13    12    13    1
@<TRIPOS>SUBSTRUCTURE
       1 MOL1            1 RESIDUE      1      MOL     
@<SCITEGIC>MOL_PROPERTY
VConf Rank
SciTegic.value.IntegerValue
732

@<SCITEGIC>MOL_PROPERTY
Conf_Id
SciTegic.value.IntegerValue
19

@<SCITEGIC>MOL_PROPERTY
Delta U+W
SciTegic.value.DoubleValue
-0.011

@<SCITEGIC>MOL_PROPERTY
U+W
SciTegic.value.DoubleValue
-3.142

@<SCITEGIC>MOL_PROPERTY
Grad RMS
SciTegic.value.DoubleValue
0.000000

@<SCITEGIC>MOL_PROPERTY
U
SciTegic.value.DoubleValue
-0.154

@<SCITEGIC>MOL_PROPERTY
W
SciTegic.value.DoubleValue
-2.989

@<SCITEGIC>MOL_PROPERTY
W(PB)
SciTegic.value.DoubleValue
-4.588

@<SCITEGIC>MOL_PROPERTY
W(SA)
SciTegic.value.DoubleValue
1.599

@<SCITEGIC>MOL_PROPERTY
Valence
SciTegic.value.DoubleValue
6.334

@<SCITEGIC>MOL_PROPERTY
Coulomb
SciTegic.value.DoubleValue
-7.439

@<SCITEGIC>MOL_PROPERTY
VdW
SciTegic.value.DoubleValue
0.951

@<SCITEGIC>MOL_PROPERTY
VdW6
SciTegic.value.DoubleValue
-2.120

@<SCITEGIC>MOL_PROPERTY
VdW12
SciTegic.value.DoubleValue
3.072

@<SCITEGIC>MOL_PROPERTY
Bond
SciTegic.value.DoubleValue
0.065

@<SCITEGIC>MOL_PROPERTY
Angle
SciTegic.value.DoubleValue
0.930

@<SCITEGIC>MOL_PROPERTY
Pdih
SciTegic.value.DoubleValue
5.339

@<SCITEGIC>MOL_PROPERTY
Idih
SciTegic.value.DoubleValue
0.000

@<SCITEGIC>MOL_PROPERTY
Tether
SciTegic.value.DoubleValue
0.000

@<TRIPOS>MOLECULE
guest-s16_confgen4.mol2 : confsearch ligand conformer 733
          13          13           1
SMALL
USER_CHARGES
 
@<TRIPOS>ATOM
       1    C1      18.613711   19.746473   22.277420 C.3        1 MOL1        -0.1693
       2    H1      17.843191   20.210581   21.650619 H          1 MOL1         0.0829
       3    H2      18.356070   19.912979   23.331509 H          1 MOL1         0.0829
       4    C2      20.096585   20.085525   21.909859 C.3        1 MOL1        -0.1768
       5    H3      20.269281   20.274197   20.843396 H          1 MOL1         0.0829
       6    H4      20.563769   20.890235   22.488283 H          1 MOL1         0.0829
       7    C3      20.441941   18.633745   22.366470 C.3        1 MOL1         0.1211
       8    H5      21.235308   18.147892   21.783951 H          1 MOL1         0.0786
       9    C4      18.989908   18.268898   21.925355 C.3        1 MOL1        -0.1768
      10    H6      18.490032   17.492438   22.514919 H          1 MOL1         0.0829
      11    H7      18.893714   18.017059   20.862200 H          1 MOL1         0.0829
      12    O1      20.699950   18.490554   23.748885 O.3        1 MOL1        -0.5515
      13    H8      20.728229   17.529119   23.941235 H          1 MOL1         0.3773
@<TRIPOS>BOND
    1     1     2    1
    2     1     3    1
    3     1     4    1
    4     4     5    1
    5     4     6    1
    6     4     7    1
    7     7     8    1
    8     1     9    1
    9     7     9    1
   10     9    10    1
   11     9    11    1
   12     7    12    1
   13    12    13    1
@<TRIPOS>SUBSTRUCTURE
       1 MOL1            1 RESIDUE      1      MOL     
@<SCITEGIC>MOL_PROPERTY
VConf Rank
SciTegic.value.IntegerValue
733

@<SCITEGIC>MOL_PROPERTY
Conf_Id
SciTegic.value.IntegerValue
20

@<SCITEGIC>MOL_PROPERTY
Delta U+W
SciTegic.value.DoubleValue
1.030

@<SCITEGIC>MOL_PROPERTY
U+W
SciTegic.value.DoubleValue
-2.101

@<SCITEGIC>MOL_PROPERTY
Grad RMS
SciTegic.value.DoubleValue
0.000000

@<SCITEGIC>MOL_PROPERTY
U
SciTegic.value.DoubleValue
0.841

@<SCITEGIC>MOL_PROPERTY
W
SciTegic.value.DoubleValue
-2.942

@<SCITEGIC>MOL_PROPERTY
W(PB)
SciTegic.value.DoubleValue
-4.530

@<SCITEGIC>MOL_PROPERTY
W(SA)
SciTegic.value.DoubleValue
1.587

@<SCITEGIC>MOL_PROPERTY
Valence
SciTegic.value.DoubleValue
6.736

@<SCITEGIC>MOL_PROPERTY
Coulomb
SciTegic.value.DoubleValue
-7.246

@<SCITEGIC>MOL_PROPERTY
VdW
SciTegic.value.DoubleValue
1.352

@<SCITEGIC>MOL_PROPERTY
VdW6
SciTegic.value.DoubleValue
-2.500

@<SCITEGIC>MOL_PROPERTY
VdW12
SciTegic.value.DoubleValue
3.851

@<SCITEGIC>MOL_PROPERTY
Bond
SciTegic.value.DoubleValue
0.063

@<SCITEGIC>MOL_PROPERTY
Angle
SciTegic.value.DoubleValue
0.687

@<SCITEGIC>MOL_PROPERTY
Pdih
SciTegic.value.DoubleValue
5.986

@<SCITEGIC>MOL_PROPERTY
Idih
SciTegic.value.DoubleValue
0.000

@<SCITEGIC>MOL_PROPERTY
Tether
SciTegic.value.DoubleValue
0.000

@<TRIPOS>MOLECULE
guest-s16_confgen4.mol2 : confsearch ligand conformer 734
          13          13           1
SMALL
USER_CHARGES
 
@<TRIPOS>ATOM
       1    C1      19.135996   19.551699   23.166937 C.3        1 MOL1        -0.1693
       2    H1      19.266705   20.637801   23.261633 H          1 MOL1         0.0829
       3    H2      18.467734   19.208665   23.965795 H          1 MOL1         0.0829
       4    C2      20.465203   18.746023   22.989594 C.3        1 MOL1        -0.1768
       5    H3      21.347696   19.154727   23.494034 H          1 MOL1         0.0829
       6    H4      20.387693   17.677701   23.226383 H          1 MOL1         0.0829
       7    C3      20.329609   19.092735   21.476134 C.3        1 MOL1         0.1211
       8    H5      20.714616   20.087091   21.212089 H          1 MOL1         0.0786
       9    C4      18.791124   19.057909   21.723125 C.3        1 MOL1        -0.1768
      10    H6      18.339436   18.059298   21.676842 H          1 MOL1         0.0829
      11    H7      18.195151   19.742054   21.109078 H          1 MOL1         0.0829
      12    O1      20.821160   18.118693   20.586506 O.3        1 MOL1        -0.5515
      13    H8      20.446480   17.258442   20.869884 H          1 MOL1         0.3773
@<TRIPOS>BOND
    1     1     2    1
    2     1     3    1
    3     1     4    1
    4     4     5    1
    5     4     6    1
    6     4     7    1
    7     7     8    1
    8     1     9    1
    9     7     9    1
   10     9    10    1
   11     9    11    1
   12     7    12    1
   13    12    13    1
@<TRIPOS>SUBSTRUCTURE
       1 MOL1            1 RESIDUE      1      MOL     
@<SCITEGIC>MOL_PROPERTY
VConf Rank
SciTegic.value.IntegerValue
734

@<SCITEGIC>MOL_PROPERTY
Conf_Id
SciTegic.value.IntegerValue
24

@<SCITEGIC>MOL_PROPERTY
Delta U+W
SciTegic.value.DoubleValue
0.356

@<SCITEGIC>MOL_PROPERTY
U+W
SciTegic.value.DoubleValue
-2.775

@<SCITEGIC>MOL_PROPERTY
Grad RMS
SciTegic.value.DoubleValue
0.000000

@<SCITEGIC>MOL_PROPERTY
U
SciTegic.value.DoubleValue
-0.184

@<SCITEGIC>MOL_PROPERTY
W
SciTegic.value.DoubleValue
-2.591

@<SCITEGIC>MOL_PROPERTY
W(PB)
SciTegic.value.DoubleValue
-4.184

@<SCITEGIC>MOL_PROPERTY
W(SA)
SciTegic.value.DoubleValue
1.593

@<SCITEGIC>MOL_PROPERTY
Valence
SciTegic.value.DoubleValue
6.840

@<SCITEGIC>MOL_PROPERTY
Coulomb
SciTegic.value.DoubleValue
-7.916

@<SCITEGIC>MOL_PROPERTY
VdW
SciTegic.value.DoubleValue
0.893

@<SCITEGIC>MOL_PROPERTY
VdW6
SciTegic.value.DoubleValue
-2.167

@<SCITEGIC>MOL_PROPERTY
VdW12
SciTegic.value.DoubleValue
3.060

@<SCITEGIC>MOL_PROPERTY
Bond
SciTegic.value.DoubleValue
0.059

@<SCITEGIC>MOL_PROPERTY
Angle
SciTegic.value.DoubleValue
0.918

@<SCITEGIC>MOL_PROPERTY
Pdih
SciTegic.value.DoubleValue
5.862

@<SCITEGIC>MOL_PROPERTY
Idih
SciTegic.value.DoubleValue
0.000

@<SCITEGIC>MOL_PROPERTY
Tether
SciTegic.value.DoubleValue
0.000

@<TRIPOS>MOLECULE
guest-s16_confgen4.mol2 : confsearch ligand conformer 735
          13          13           1
SMALL
USER_CHARGES
 
@<TRIPOS>ATOM
       1    C1      20.529719   18.219798   22.259840 C.3        1 MOL1        -0.1693
       2    H1      20.923137   17.271733   21.874133 H          1 MOL1         0.0829
       3    H2      21.234049   18.609417   23.005770 H          1 MOL1         0.0829
       4    C2      19.031659   18.204920   22.713419 C.3        1 MOL1        -0.1768
       5    H3      18.397816   17.500310   22.161348 H          1 MOL1         0.0829
       6    H4      18.852779   18.067565   23.785727 H          1 MOL1         0.0829
       7    C3      18.954698   19.673301   22.191952 C.3        1 MOL1         0.1211
       8    H5      17.997054   19.949410   21.732419 H          1 MOL1         0.0786
       9    C4      20.069862   19.258433   21.182850 C.3        1 MOL1        -0.1768
      10    H6      19.690573   18.812127   20.255507 H          1 MOL1         0.0829
      11    H7      20.794650   20.038068   20.922927 H          1 MOL1         0.0829
      12    O1      19.340649   20.655029   23.129490 O.3        1 MOL1        -0.5515
      13    H8      20.195212   20.357861   23.504626 H          1 MOL1         0.3773
@<TRIPOS>BOND
    1     1     2    1
    2     1     3    1
    3     1     4    1
    4     4     5    1
    5     4     6    1
    6     4     7    1
    7     7     8    1
    8     1     9    1
    9     7     9    1
   10     9    10    1
   11     9    11    1
   12     7    12    1
   13    12    13    1
@<TRIPOS>SUBSTRUCTURE
       1 MOL1            1 RESIDUE      1      MOL     
@<SCITEGIC>MOL_PROPERTY
VConf Rank
SciTegic.value.IntegerValue
735

@<SCITEGIC>MOL_PROPERTY
Conf_Id
SciTegic.value.IntegerValue
44

@<SCITEGIC>MOL_PROPERTY
Delta U+W
SciTegic.value.DoubleValue
0.823

@<SCITEGIC>MOL_PROPERTY
U+W
SciTegic.value.DoubleValue
-2.308

@<SCITEGIC>MOL_PROPERTY
Grad RMS
SciTegic.value.DoubleValue
0.000000

@<SCITEGIC>MOL_PROPERTY
U
SciTegic.value.DoubleValue
0.039

@<SCITEGIC>MOL_PROPERTY
W
SciTegic.value.DoubleValue
-2.348

@<SCITEGIC>MOL_PROPERTY
W(PB)
SciTegic.value.DoubleValue
-3.918

@<SCITEGIC>MOL_PROPERTY
W(SA)
SciTegic.value.DoubleValue
1.571

@<SCITEGIC>MOL_PROPERTY
Valence
SciTegic.value.DoubleValue
7.320

@<SCITEGIC>MOL_PROPERTY
Coulomb
SciTegic.value.DoubleValue
-8.530

@<SCITEGIC>MOL_PROPERTY
VdW
SciTegic.value.DoubleValue
1.249

@<SCITEGIC>MOL_PROPERTY
VdW6
SciTegic.value.DoubleValue
-2.615

@<SCITEGIC>MOL_PROPERTY
VdW12
SciTegic.value.DoubleValue
3.864

@<SCITEGIC>MOL_PROPERTY
Bond
SciTegic.value.DoubleValue
0.056

@<SCITEGIC>MOL_PROPERTY
Angle
SciTegic.value.DoubleValue
0.694

@<SCITEGIC>MOL_PROPERTY
Pdih
SciTegic.value.DoubleValue
6.570

@<SCITEGIC>MOL_PROPERTY
Idih
SciTegic.value.DoubleValue
0.000

@<SCITEGIC>MOL_PROPERTY
Tether
SciTegic.value.DoubleValue
0.000

@<TRIPOS>MOLECULE
guest-s16_confgen4.mol2 : confsearch ligand conformer 736
          13          13           1
SMALL
USER_CHARGES
 
@<TRIPOS>ATOM
       1    C1      18.416979   18.627361   22.324091 C.3        1 MOL1        -0.1693
       2    H1      17.798691   19.224957   23.006869 H          1 MOL1         0.0829
       3    H2      17.783110   17.867550   21.851615 H          1 MOL1         0.0829
       4    C2      19.761795   18.115271   22.937720 C.3        1 MOL1        -0.1768
       5    H3      19.749142   17.888610   24.009366 H          1 MOL1         0.0829
       6    H4      20.219331   17.272893   22.404198 H          1 MOL1         0.0829
       7    C3      20.331160   19.512505   22.547325 C.3        1 MOL1         0.1211
       8    H5      20.115730   20.299721   23.282813 H          1 MOL1         0.0786
       9    C4      19.322541   19.462871   21.360136 C.3        1 MOL1        -0.1768
      10    H6      18.919061   20.428145   21.035141 H          1 MOL1         0.0829
      11    H7      19.681561   18.915575   20.479587 H          1 MOL1         0.0829
      12    O1      21.691657   19.527841   22.182143 O.3        1 MOL1        -0.5515
      13    H8      21.881970   20.414608   21.807139 H          1 MOL1         0.3773
@<TRIPOS>BOND
    1     1     2    1
    2     1     3    1
    3     1     4    1
    4     4     5    1
    5     4     6    1
    6     4     7    1
    7     7     8    1
    8     1     9    1
    9     7     9    1
   10     9    10    1
   11     9    11    1
   12     7    12    1
   13    12    13    1
@<TRIPOS>SUBSTRUCTURE
       1 MOL1            1 RESIDUE      1      MOL     
@<SCITEGIC>MOL_PROPERTY
VConf Rank
SciTegic.value.IntegerValue
736

@<SCITEGIC>MOL_PROPERTY
Conf_Id
SciTegic.value.IntegerValue
22

@<SCITEGIC>MOL_PROPERTY
Delta U+W
SciTegic.value.DoubleValue
0.000

@<SCITEGIC>MOL_PROPERTY
U+W
SciTegic.value.DoubleValue
-3.131

@<SCITEGIC>MOL_PROPERTY
Grad RMS
SciTegic.value.DoubleValue
0.000000

@<SCITEGIC>MOL_PROPERTY
U
SciTegic.value.DoubleValue
-0.154

@<SCITEGIC>MOL_PROPERTY
W
SciTegic.value.DoubleValue
-2.978

@<SCITEGIC>MOL_PROPERTY
W(PB)
SciTegic.value.DoubleValue
-4.579

@<SCITEGIC>MOL_PROPERTY
W(SA)
SciTegic.value.DoubleValue
1.601

@<SCITEGIC>MOL_PROPERTY
Valence
SciTegic.value.DoubleValue
6.333

@<SCITEGIC>MOL_PROPERTY
Coulomb
SciTegic.value.DoubleValue
-7.439

@<SCITEGIC>MOL_PROPERTY
VdW
SciTegic.value.DoubleValue
0.952

@<SCITEGIC>MOL_PROPERTY
VdW6
SciTegic.value.DoubleValue
-2.120

@<SCITEGIC>MOL_PROPERTY
VdW12
SciTegic.value.DoubleValue
3.072

@<SCITEGIC>MOL_PROPERTY
Bond
SciTegic.value.DoubleValue
0.065

@<SCITEGIC>MOL_PROPERTY
Angle
SciTegic.value.DoubleValue
0.931

@<SCITEGIC>MOL_PROPERTY
Pdih
SciTegic.value.DoubleValue
5.338

@<SCITEGIC>MOL_PROPERTY
Idih
SciTegic.value.DoubleValue
0.000

@<SCITEGIC>MOL_PROPERTY
Tether
SciTegic.value.DoubleValue
0.000

@<TRIPOS>MOLECULE
guest-s16_confgen4.mol2 : confsearch ligand conformer 737
          13          13           1
SMALL
USER_CHARGES
 
@<TRIPOS>ATOM
       1    C1      20.932417   19.125642   22.304862 C.3        1 MOL1        -0.1693
       2    H1      21.488331   18.621745   21.503217 H          1 MOL1         0.0829
       3    H2      21.649206   19.621638   22.970099 H          1 MOL1         0.0829
       4    C2      19.844939   18.243216   23.002031 C.3        1 MOL1        -0.1768
       5    H3      19.523783   18.604909   23.986831 H          1 MOL1         0.0829
       6    H4      20.066281   17.172731   23.074429 H          1 MOL1         0.0829
       7    C3      18.918656   18.667755   21.822641 C.3        1 MOL1         0.1211
       8    H5      19.050545   18.065745   20.913108 H          1 MOL1         0.0786
       9    C4      19.729213   19.998852   21.817924 C.3        1 MOL1        -0.1768
      10    H6      19.380516   20.745799   22.541847 H          1 MOL1         0.0829
      11    H7      19.845998   20.481912   20.841719 H          1 MOL1         0.0829
      12    O1      17.553116   18.795304   22.144482 O.3        1 MOL1        -0.5515
      13    H8      17.199097   17.889134   22.273819 H          1 MOL1         0.3773
@<TRIPOS>BOND
    1     1     2    1
    2     1     3    1
    3     1     4    1
    4     4     5    1
    5     4     6    1
    6     4     7    1
    7     7     8    1
    8     1     9    1
    9     7     9    1
   10     9    10    1
   11     9    11    1
   12     7    12    1
   13    12    13    1
@<TRIPOS>SUBSTRUCTURE
       1 MOL1            1 RESIDUE      1      MOL     
@<SCITEGIC>MOL_PROPERTY
VConf Rank
SciTegic.value.IntegerValue
737

@<SCITEGIC>MOL_PROPERTY
Conf_Id
SciTegic.value.IntegerValue
19

@<SCITEGIC>MOL_PROPERTY
Delta U+W
SciTegic.value.DoubleValue
-0.011

@<SCITEGIC>MOL_PROPERTY
U+W
SciTegic.value.DoubleValue
-3.142

@<SCITEGIC>MOL_PROPERTY
Grad RMS
SciTegic.value.DoubleValue
0.000000

@<SCITEGIC>MOL_PROPERTY
U
SciTegic.value.DoubleValue
-0.154

@<SCITEGIC>MOL_PROPERTY
W
SciTegic.value.DoubleValue
-2.989

@<SCITEGIC>MOL_PROPERTY
W(PB)
SciTegic.value.DoubleValue
-4.588

@<SCITEGIC>MOL_PROPERTY
W(SA)
SciTegic.value.DoubleValue
1.599

@<SCITEGIC>MOL_PROPERTY
Valence
SciTegic.value.DoubleValue
6.334

@<SCITEGIC>MOL_PROPERTY
Coulomb
SciTegic.value.DoubleValue
-7.439

@<SCITEGIC>MOL_PROPERTY
VdW
SciTegic.value.DoubleValue
0.951

@<SCITEGIC>MOL_PROPERTY
VdW6
SciTegic.value.DoubleValue
-2.120

@<SCITEGIC>MOL_PROPERTY
VdW12
SciTegic.value.DoubleValue
3.072

@<SCITEGIC>MOL_PROPERTY
Bond
SciTegic.value.DoubleValue
0.065

@<SCITEGIC>MOL_PROPERTY
Angle
SciTegic.value.DoubleValue
0.930

@<SCITEGIC>MOL_PROPERTY
Pdih
SciTegic.value.DoubleValue
5.339

@<SCITEGIC>MOL_PROPERTY
Idih
SciTegic.value.DoubleValue
0.000

@<SCITEGIC>MOL_PROPERTY
Tether
SciTegic.value.DoubleValue
0.000

@<TRIPOS>MOLECULE
guest-s16_confgen4.mol2 : confsearch ligand conformer 738
          13          13           1
SMALL
USER_CHARGES
 
@<TRIPOS>ATOM
       1    C1      19.997132   19.575389   21.225544 C.3        1 MOL1        -0.1693
       2    H1      20.550533   20.409725   20.778770 H          1 MOL1         0.0829
       3    H2      19.681457   18.894428   20.424389 H          1 MOL1         0.0829
       4    C2      18.864134   19.961895   22.233463 C.3        1 MOL1        -0.1768
       5    H3      19.049925   20.885739   22.794496 H          1 MOL1         0.0829
       6    H4      17.848293   19.998407   21.824652 H          1 MOL1         0.0829
       7    C3      19.237521   18.658492   23.006221 C.3        1 MOL1         0.1211
       8    H5      19.152580   18.734114   24.097953 H          1 MOL1         0.0786
       9    C4      20.678598   18.872114   22.446080 C.3        1 MOL1        -0.1768
      10    H6      21.245769   17.962178   22.220948 H          1 MOL1         0.0829
      11    H7      21.304943   19.532083   23.058539 H          1 MOL1         0.0829
      12    O1      18.586662   17.489505   22.550156 O.3        1 MOL1        -0.5515
      13    H8      19.024140   16.725627   22.982891 H          1 MOL1         0.3773
@<TRIPOS>BOND
    1     1     2    1
    2     1     3    1
    3     1     4    1
    4     4     5    1
    5     4     6    1
    6     4     7    1
    7     7     8    1
    8     1     9    1
    9     7     9    1
   10     9    10    1
   11     9    11    1
   12     7    12    1
   13    12    13    1
@<TRIPOS>SUBSTRUCTURE
       1 MOL1            1 RESIDUE      1      MOL     
@<SCITEGIC>MOL_PROPERTY
VConf Rank
SciTegic.value.IntegerValue
738

@<SCITEGIC>MOL_PROPERTY
Conf_Id
SciTegic.value.IntegerValue
20

@<SCITEGIC>MOL_PROPERTY
Delta U+W
SciTegic.value.DoubleValue
1.030

@<SCITEGIC>MOL_PROPERTY
U+W
SciTegic.value.DoubleValue
-2.101

@<SCITEGIC>MOL_PROPERTY
Grad RMS
SciTegic.value.DoubleValue
0.000000

@<SCITEGIC>MOL_PROPERTY
U
SciTegic.value.DoubleValue
0.841

@<SCITEGIC>MOL_PROPERTY
W
SciTegic.value.DoubleValue
-2.942

@<SCITEGIC>MOL_PROPERTY
W(PB)
SciTegic.value.DoubleValue
-4.530

@<SCITEGIC>MOL_PROPERTY
W(SA)
SciTegic.value.DoubleValue
1.587

@<SCITEGIC>MOL_PROPERTY
Valence
SciTegic.value.DoubleValue
6.736

@<SCITEGIC>MOL_PROPERTY
Coulomb
SciTegic.value.DoubleValue
-7.246

@<SCITEGIC>MOL_PROPERTY
VdW
SciTegic.value.DoubleValue
1.352

@<SCITEGIC>MOL_PROPERTY
VdW6
SciTegic.value.DoubleValue
-2.500

@<SCITEGIC>MOL_PROPERTY
VdW12
SciTegic.value.DoubleValue
3.851

@<SCITEGIC>MOL_PROPERTY
Bond
SciTegic.value.DoubleValue
0.063

@<SCITEGIC>MOL_PROPERTY
Angle
SciTegic.value.DoubleValue
0.687

@<SCITEGIC>MOL_PROPERTY
Pdih
SciTegic.value.DoubleValue
5.986

@<SCITEGIC>MOL_PROPERTY
Idih
SciTegic.value.DoubleValue
0.000

@<SCITEGIC>MOL_PROPERTY
Tether
SciTegic.value.DoubleValue
0.000

@<TRIPOS>MOLECULE
guest-s16_confgen4.mol2 : confsearch ligand conformer 739
          13          13           1
SMALL
USER_CHARGES
 
@<TRIPOS>ATOM
       1    C1      20.699502   19.708682   22.617831 C.3        1 MOL1        -0.1693
       2    H1      20.433914   20.646963   23.122568 H          1 MOL1         0.0829
       3    H2      21.792498   19.631256   22.575563 H          1 MOL1         0.0829
       4    C2      19.939855   19.450800   21.274779 C.3        1 MOL1        -0.1768
       5    H3      19.681021   20.339643   20.688898 H          1 MOL1         0.0829
       6    H4      20.418144   18.719286   20.611820 H          1 MOL1         0.0829
       7    C3      18.801729   18.876123   22.171201 C.3        1 MOL1         0.1211
       8    H5      18.131513   19.642495   22.583727 H          1 MOL1         0.0786
       9    C4      19.940939   18.445654   23.143853 C.3        1 MOL1        -0.1768
      10    H6      20.419471   17.489477   22.898656 H          1 MOL1         0.0829
      11    H7      19.683062   18.446797   24.208649 H          1 MOL1         0.0829
      12    O1      18.060104   17.822087   21.604796 O.3        1 MOL1        -0.5515
      13    H8      18.706850   17.173575   21.255694 H          1 MOL1         0.3773
@<TRIPOS>BOND
    1     1     2    1
    2     1     3    1
    3     1     4    1
    4     4     5    1
    5     4     6    1
    6     4     7    1
    7     7     8    1
    8     1     9    1
    9     7     9    1
   10     9    10    1
   11     9    11    1
   12     7    12    1
   13    12    13    1
@<TRIPOS>SUBSTRUCTURE
       1 MOL1            1 RESIDUE      1      MOL     
@<SCITEGIC>MOL_PROPERTY
VConf Rank
SciTegic.value.IntegerValue
739

@<SCITEGIC>MOL_PROPERTY
Conf_Id
SciTegic.value.IntegerValue
24

@<SCITEGIC>MOL_PROPERTY
Delta U+W
SciTegic.value.DoubleValue
0.356

@<SCITEGIC>MOL_PROPERTY
U+W
SciTegic.value.DoubleValue
-2.775

@<SCITEGIC>MOL_PROPERTY
Grad RMS
SciTegic.value.DoubleValue
0.000000

@<SCITEGIC>MOL_PROPERTY
U
SciTegic.value.DoubleValue
-0.184

@<SCITEGIC>MOL_PROPERTY
W
SciTegic.value.DoubleValue
-2.591

@<SCITEGIC>MOL_PROPERTY
W(PB)
SciTegic.value.DoubleValue
-4.184

@<SCITEGIC>MOL_PROPERTY
W(SA)
SciTegic.value.DoubleValue
1.593

@<SCITEGIC>MOL_PROPERTY
Valence
SciTegic.value.DoubleValue
6.840

@<SCITEGIC>MOL_PROPERTY
Coulomb
SciTegic.value.DoubleValue
-7.916

@<SCITEGIC>MOL_PROPERTY
VdW
SciTegic.value.DoubleValue
0.893

@<SCITEGIC>MOL_PROPERTY
VdW6
SciTegic.value.DoubleValue
-2.167

@<SCITEGIC>MOL_PROPERTY
VdW12
SciTegic.value.DoubleValue
3.060

@<SCITEGIC>MOL_PROPERTY
Bond
SciTegic.value.DoubleValue
0.059

@<SCITEGIC>MOL_PROPERTY
Angle
SciTegic.value.DoubleValue
0.918

@<SCITEGIC>MOL_PROPERTY
Pdih
SciTegic.value.DoubleValue
5.862

@<SCITEGIC>MOL_PROPERTY
Idih
SciTegic.value.DoubleValue
0.000

@<SCITEGIC>MOL_PROPERTY
Tether
SciTegic.value.DoubleValue
0.000

@<TRIPOS>MOLECULE
guest-s16_confgen4.mol2 : confsearch ligand conformer 740
          13          13           1
SMALL
USER_CHARGES
 
@<TRIPOS>ATOM
       1    C1      20.640372   18.580366   21.743801 C.3        1 MOL1        -0.1693
       2    H1      21.727011   18.700795   21.659622 H          1 MOL1         0.0829
       3    H2      20.336663   17.729723   21.120534 H          1 MOL1         0.0829
       4    C2      19.790518   19.879594   21.544070 C.3        1 MOL1        -0.1768
       5    H3      20.293615   20.802859   21.856306 H          1 MOL1         0.0829
       6    H4      19.370454   20.033228   20.543744 H          1 MOL1         0.0829
       7    C3      18.814099   19.294810   22.611134 C.3        1 MOL1         0.1211
       8    H5      18.358561   20.039665   23.276089 H          1 MOL1         0.0786
       9    C4      20.063933   18.569366   23.199045 C.3        1 MOL1        -0.1768
      10    H6      20.634068   19.171381   23.917055 H          1 MOL1         0.0829
      11    H7      19.881857   17.582558   23.639233 H          1 MOL1         0.0829
      12    O1      17.819742   18.436181   22.095636 O.3        1 MOL1        -0.5515
      13    H8      18.280964   17.797446   21.513738 H          1 MOL1         0.3773
@<TRIPOS>BOND
    1     1     2    1
    2     1     3    1
    3     1     4    1
    4     4     5    1
    5     4     6    1
    6     4     7    1
    7     7     8    1
    8     1     9    1
    9     7     9    1
   10     9    10    1
   11     9    11    1
   12     7    12    1
   13    12    13    1
@<TRIPOS>SUBSTRUCTURE
       1 MOL1            1 RESIDUE      1      MOL     
@<SCITEGIC>MOL_PROPERTY
VConf Rank
SciTegic.value.IntegerValue
740

@<SCITEGIC>MOL_PROPERTY
Conf_Id
SciTegic.value.IntegerValue
44

@<SCITEGIC>MOL_PROPERTY
Delta U+W
SciTegic.value.DoubleValue
0.823

@<SCITEGIC>MOL_PROPERTY
U+W
SciTegic.value.DoubleValue
-2.308

@<SCITEGIC>MOL_PROPERTY
Grad RMS
SciTegic.value.DoubleValue
0.000000

@<SCITEGIC>MOL_PROPERTY
U
SciTegic.value.DoubleValue
0.039

@<SCITEGIC>MOL_PROPERTY
W
SciTegic.value.DoubleValue
-2.348

@<SCITEGIC>MOL_PROPERTY
W(PB)
SciTegic.value.DoubleValue
-3.918

@<SCITEGIC>MOL_PROPERTY
W(SA)
SciTegic.value.DoubleValue
1.571

@<SCITEGIC>MOL_PROPERTY
Valence
SciTegic.value.DoubleValue
7.320

@<SCITEGIC>MOL_PROPERTY
Coulomb
SciTegic.value.DoubleValue
-8.530

@<SCITEGIC>MOL_PROPERTY
VdW
SciTegic.value.DoubleValue
1.249

@<SCITEGIC>MOL_PROPERTY
VdW6
SciTegic.value.DoubleValue
-2.615

@<SCITEGIC>MOL_PROPERTY
VdW12
SciTegic.value.DoubleValue
3.864

@<SCITEGIC>MOL_PROPERTY
Bond
SciTegic.value.DoubleValue
0.056

@<SCITEGIC>MOL_PROPERTY
Angle
SciTegic.value.DoubleValue
0.694

@<SCITEGIC>MOL_PROPERTY
Pdih
SciTegic.value.DoubleValue
6.570

@<SCITEGIC>MOL_PROPERTY
Idih
SciTegic.value.DoubleValue
0.000

@<SCITEGIC>MOL_PROPERTY
Tether
SciTegic.value.DoubleValue
0.000

@<TRIPOS>MOLECULE
guest-s16_confgen4.mol2 : confsearch ligand conformer 741
          13          13           1
SMALL
USER_CHARGES
 
@<TRIPOS>ATOM
       1    C1      18.973225   18.515403   23.239043 C.3        1 MOL1        -0.1693
       2    H1      18.955768   17.417652   23.224070 H          1 MOL1         0.0829
       3    H2      18.434575   18.862315   24.128900 H          1 MOL1         0.0829
       4    C2      18.575703   19.194716   21.887075 C.3        1 MOL1        -0.1768
       5    H3      17.834817   18.664517   21.278850 H          1 MOL1         0.0829
       6    H4      18.275278   20.246451   21.971835 H          1 MOL1         0.0829
       7    C3      20.064897   18.979445   21.481112 C.3        1 MOL1         0.1211
       8    H5      20.276973   17.974035   21.092219 H          1 MOL1         0.0786
       9    C4      20.382083   19.151059   22.997402 C.3        1 MOL1        -0.1768
      10    H6      21.239000   18.581707   23.373837 H          1 MOL1         0.0829
      11    H7      20.477429   20.192864   23.328075 H          1 MOL1         0.0829
      12    O1      20.607662   19.967399   20.636188 O.3        1 MOL1        -0.5515
      13    H8      21.575319   19.810342   20.589535 H          1 MOL1         0.3773
@<TRIPOS>BOND
    1     1     2    1
    2     1     3    1
    3     1     4    1
    4     4     5    1
    5     4     6    1
    6     4     7    1
    7     7     8    1
    8     1     9    1
    9     7     9    1
   10     9    10    1
   11     9    11    1
   12     7    12    1
   13    12    13    1
@<TRIPOS>SUBSTRUCTURE
       1 MOL1            1 RESIDUE      1      MOL     
@<SCITEGIC>MOL_PROPERTY
VConf Rank
SciTegic.value.IntegerValue
741

@<SCITEGIC>MOL_PROPERTY
Conf_Id
SciTegic.value.IntegerValue
22

@<SCITEGIC>MOL_PROPERTY
Delta U+W
SciTegic.value.DoubleValue
0.000

@<SCITEGIC>MOL_PROPERTY
U+W
SciTegic.value.DoubleValue
-3.131

@<SCITEGIC>MOL_PROPERTY
Grad RMS
SciTegic.value.DoubleValue
0.000000

@<SCITEGIC>MOL_PROPERTY
U
SciTegic.value.DoubleValue
-0.154

@<SCITEGIC>MOL_PROPERTY
W
SciTegic.value.DoubleValue
-2.978

@<SCITEGIC>MOL_PROPERTY
W(PB)
SciTegic.value.DoubleValue
-4.579

@<SCITEGIC>MOL_PROPERTY
W(SA)
SciTegic.value.DoubleValue
1.601

@<SCITEGIC>MOL_PROPERTY
Valence
SciTegic.value.DoubleValue
6.333

@<SCITEGIC>MOL_PROPERTY
Coulomb
SciTegic.value.DoubleValue
-7.439

@<SCITEGIC>MOL_PROPERTY
VdW
SciTegic.value.DoubleValue
0.952

@<SCITEGIC>MOL_PROPERTY
VdW6
SciTegic.value.DoubleValue
-2.120

@<SCITEGIC>MOL_PROPERTY
VdW12
SciTegic.value.DoubleValue
3.072

@<SCITEGIC>MOL_PROPERTY
Bond
SciTegic.value.DoubleValue
0.065

@<SCITEGIC>MOL_PROPERTY
Angle
SciTegic.value.DoubleValue
0.931

@<SCITEGIC>MOL_PROPERTY
Pdih
SciTegic.value.DoubleValue
5.338

@<SCITEGIC>MOL_PROPERTY
Idih
SciTegic.value.DoubleValue
0.000

@<SCITEGIC>MOL_PROPERTY
Tether
SciTegic.value.DoubleValue
0.000

@<TRIPOS>MOLECULE
guest-s16_confgen4.mol2 : confsearch ligand conformer 742
          13          13           1
SMALL
USER_CHARGES
 
@<TRIPOS>ATOM
       1    C1      18.675922   18.071799   21.924946 C.3        1 MOL1        -0.1693
       2    H1      18.439175   18.064165   20.852809 H          1 MOL1         0.0829
       3    H2      17.995114   17.382926   22.439041 H          1 MOL1         0.0829
       4    C2      18.815579   19.497160   22.554370 C.3        1 MOL1        -0.1768
       5    H3      18.723718   19.526322   23.647304 H          1 MOL1         0.0829
       6    H4      18.177892   20.278128   22.125865 H          1 MOL1         0.0829
       7    C3      20.282205   19.452559   22.028810 C.3        1 MOL1         0.1211
       8    H5      20.386127   19.736058   20.972453 H          1 MOL1         0.0786
       9    C4      20.195674   17.913859   22.260671 C.3        1 MOL1        -0.1768
      10    H6      20.408826   17.596568   23.289008 H          1 MOL1         0.0829
      11    H7      20.781274   17.294807   21.572334 H          1 MOL1         0.0829
      12    O1      21.228190   20.129132   22.823737 O.3        1 MOL1        -0.5515
      13    H8      21.072404   21.090898   22.705664 H          1 MOL1         0.3773
@<TRIPOS>BOND
    1     1     2    1
    2     1     3    1
    3     1     4    1
    4     4     5    1
    5     4     6    1
    6     4     7    1
    7     7     8    1
    8     1     9    1
    9     7     9    1
   10     9    10    1
   11     9    11    1
   12     7    12    1
   13    12    13    1
@<TRIPOS>SUBSTRUCTURE
       1 MOL1            1 RESIDUE      1      MOL     
@<SCITEGIC>MOL_PROPERTY
VConf Rank
SciTegic.value.IntegerValue
742

@<SCITEGIC>MOL_PROPERTY
Conf_Id
SciTegic.value.IntegerValue
19

@<SCITEGIC>MOL_PROPERTY
Delta U+W
SciTegic.value.DoubleValue
-0.011

@<SCITEGIC>MOL_PROPERTY
U+W
SciTegic.value.DoubleValue
-3.142

@<SCITEGIC>MOL_PROPERTY
Grad RMS
SciTegic.value.DoubleValue
0.000000

@<SCITEGIC>MOL_PROPERTY
U
SciTegic.value.DoubleValue
-0.154

@<SCITEGIC>MOL_PROPERTY
W
SciTegic.value.DoubleValue
-2.989

@<SCITEGIC>MOL_PROPERTY
W(PB)
SciTegic.value.DoubleValue
-4.588

@<SCITEGIC>MOL_PROPERTY
W(SA)
SciTegic.value.DoubleValue
1.599

@<SCITEGIC>MOL_PROPERTY
Valence
SciTegic.value.DoubleValue
6.334

@<SCITEGIC>MOL_PROPERTY
Coulomb
SciTegic.value.DoubleValue
-7.439

@<SCITEGIC>MOL_PROPERTY
VdW
SciTegic.value.DoubleValue
0.951

@<SCITEGIC>MOL_PROPERTY
VdW6
SciTegic.value.DoubleValue
-2.120

@<SCITEGIC>MOL_PROPERTY
VdW12
SciTegic.value.DoubleValue
3.072

@<SCITEGIC>MOL_PROPERTY
Bond
SciTegic.value.DoubleValue
0.065

@<SCITEGIC>MOL_PROPERTY
Angle
SciTegic.value.DoubleValue
0.930

@<SCITEGIC>MOL_PROPERTY
Pdih
SciTegic.value.DoubleValue
5.339

@<SCITEGIC>MOL_PROPERTY
Idih
SciTegic.value.DoubleValue
0.000

@<SCITEGIC>MOL_PROPERTY
Tether
SciTegic.value.DoubleValue
0.000

@<TRIPOS>MOLECULE
guest-s16_confgen4.mol2 : confsearch ligand conformer 743
          13          13           1
SMALL
USER_CHARGES
 
@<TRIPOS>ATOM
       1    C1      19.985852   20.231648   22.206810 C.3        1 MOL1        -0.1693
       2    H1      20.082511   21.177611   22.752508 H          1 MOL1         0.0829
       3    H2      20.427227   20.355120   21.209238 H          1 MOL1         0.0829
       4    C2      18.564890   19.576046   22.211732 C.3        1 MOL1        -0.1768
       5    H3      17.975864   19.773398   23.115539 H          1 MOL1         0.0829
       6    H4      17.939317   19.776765   21.334940 H          1 MOL1         0.0829
       7    C3      19.303330   18.201236   22.217324 C.3        1 MOL1         0.1211
       8    H5      18.804572   17.416836   22.801078 H          1 MOL1         0.0786
       9    C4      20.450386   18.946391   22.969058 C.3        1 MOL1        -0.1768
      10    H6      21.467997   18.601928   22.754197 H          1 MOL1         0.0829
      11    H7      20.318822   18.991478   24.057006 H          1 MOL1         0.0829
      12    O1      19.649519   17.706825   20.939100 O.3        1 MOL1        -0.5515
      13    H8      20.251401   16.944415   21.075568 H          1 MOL1         0.3773
@<TRIPOS>BOND
    1     1     2    1
    2     1     3    1
    3     1     4    1
    4     4     5    1
    5     4     6    1
    6     4     7    1
    7     7     8    1
    8     1     9    1
    9     7     9    1
   10     9    10    1
   11     9    11    1
   12     7    12    1
   13    12    13    1
@<TRIPOS>SUBSTRUCTURE
       1 MOL1            1 RESIDUE      1      MOL     
@<SCITEGIC>MOL_PROPERTY
VConf Rank
SciTegic.value.IntegerValue
743

@<SCITEGIC>MOL_PROPERTY
Conf_Id
SciTegic.value.IntegerValue
20

@<SCITEGIC>MOL_PROPERTY
Delta U+W
SciTegic.value.DoubleValue
1.030

@<SCITEGIC>MOL_PROPERTY
U+W
SciTegic.value.DoubleValue
-2.101

@<SCITEGIC>MOL_PROPERTY
Grad RMS
SciTegic.value.DoubleValue
0.000000

@<SCITEGIC>MOL_PROPERTY
U
SciTegic.value.DoubleValue
0.841

@<SCITEGIC>MOL_PROPERTY
W
SciTegic.value.DoubleValue
-2.942

@<SCITEGIC>MOL_PROPERTY
W(PB)
SciTegic.value.DoubleValue
-4.530

@<SCITEGIC>MOL_PROPERTY
W(SA)
SciTegic.value.DoubleValue
1.587

@<SCITEGIC>MOL_PROPERTY
Valence
SciTegic.value.DoubleValue
6.736

@<SCITEGIC>MOL_PROPERTY
Coulomb
SciTegic.value.DoubleValue
-7.246

@<SCITEGIC>MOL_PROPERTY
VdW
SciTegic.value.DoubleValue
1.352

@<SCITEGIC>MOL_PROPERTY
VdW6
SciTegic.value.DoubleValue
-2.500

@<SCITEGIC>MOL_PROPERTY
VdW12
SciTegic.value.DoubleValue
3.851

@<SCITEGIC>MOL_PROPERTY
Bond
SciTegic.value.DoubleValue
0.063

@<SCITEGIC>MOL_PROPERTY
Angle
SciTegic.value.DoubleValue
0.687

@<SCITEGIC>MOL_PROPERTY
Pdih
SciTegic.value.DoubleValue
5.986

@<SCITEGIC>MOL_PROPERTY
Idih
SciTegic.value.DoubleValue
0.000

@<SCITEGIC>MOL_PROPERTY
Tether
SciTegic.value.DoubleValue
0.000

@<TRIPOS>MOLECULE
guest-s16_confgen4.mol2 : confsearch ligand conformer 744
          13          13           1
SMALL
USER_CHARGES
 
@<TRIPOS>ATOM
       1    C1      18.615927   19.245725   21.684549 C.3        1 MOL1        -0.1693
       2    H1      17.781120   18.548636   21.835651 H          1 MOL1         0.0829
       3    H2      18.263539   20.087056   21.075939 H          1 MOL1         0.0829
       4    C2      19.952055   18.575691   21.222842 C.3        1 MOL1        -0.1768
       5    H3      19.852225   17.687212   20.589650 H          1 MOL1         0.0829
       6    H4      20.670380   19.261253   20.756578 H          1 MOL1         0.0829
       7    C3      20.195788   18.303037   22.737903 C.3        1 MOL1         0.1211
       8    H5      19.692216   17.401955   23.113615 H          1 MOL1         0.0786
       9    C4      19.399450   19.619652   22.985945 C.3        1 MOL1        -0.1768
      10    H6      19.994260   20.538553   22.913755 H          1 MOL1         0.0829
      11    H7      18.811587   19.653150   23.909842 H          1 MOL1         0.0829
      12    O1      21.542628   18.325077   23.146991 O.3        1 MOL1        -0.5515
      13    H8      21.937429   19.145840   22.784776 H          1 MOL1         0.3773
@<TRIPOS>BOND
    1     1     2    1
    2     1     3    1
    3     1     4    1
    4     4     5    1
    5     4     6    1
    6     4     7    1
    7     7     8    1
    8     1     9    1
    9     7     9    1
   10     9    10    1
   11     9    11    1
   12     7    12    1
   13    12    13    1
@<TRIPOS>SUBSTRUCTURE
       1 MOL1            1 RESIDUE      1      MOL     
@<SCITEGIC>MOL_PROPERTY
VConf Rank
SciTegic.value.IntegerValue
744

@<SCITEGIC>MOL_PROPERTY
Conf_Id
SciTegic.value.IntegerValue
24

@<SCITEGIC>MOL_PROPERTY
Delta U+W
SciTegic.value.DoubleValue
0.356

@<SCITEGIC>MOL_PROPERTY
U+W
SciTegic.value.DoubleValue
-2.775

@<SCITEGIC>MOL_PROPERTY
Grad RMS
SciTegic.value.DoubleValue
0.000000

@<SCITEGIC>MOL_PROPERTY
U
SciTegic.value.DoubleValue
-0.184

@<SCITEGIC>MOL_PROPERTY
W
SciTegic.value.DoubleValue
-2.591

@<SCITEGIC>MOL_PROPERTY
W(PB)
SciTegic.value.DoubleValue
-4.184

@<SCITEGIC>MOL_PROPERTY
W(SA)
SciTegic.value.DoubleValue
1.593

@<SCITEGIC>MOL_PROPERTY
Valence
SciTegic.value.DoubleValue
6.840

@<SCITEGIC>MOL_PROPERTY
Coulomb
SciTegic.value.DoubleValue
-7.916

@<SCITEGIC>MOL_PROPERTY
VdW
SciTegic.value.DoubleValue
0.893

@<SCITEGIC>MOL_PROPERTY
VdW6
SciTegic.value.DoubleValue
-2.167

@<SCITEGIC>MOL_PROPERTY
VdW12
SciTegic.value.DoubleValue
3.060

@<SCITEGIC>MOL_PROPERTY
Bond
SciTegic.value.DoubleValue
0.059

@<SCITEGIC>MOL_PROPERTY
Angle
SciTegic.value.DoubleValue
0.918

@<SCITEGIC>MOL_PROPERTY
Pdih
SciTegic.value.DoubleValue
5.862

@<SCITEGIC>MOL_PROPERTY
Idih
SciTegic.value.DoubleValue
0.000

@<SCITEGIC>MOL_PROPERTY
Tether
SciTegic.value.DoubleValue
0.000

@<TRIPOS>MOLECULE
guest-s16_confgen4.mol2 : confsearch ligand conformer 745
          13          13           1
SMALL
USER_CHARGES
 
@<TRIPOS>ATOM
       1    C1      19.628338   20.044288   22.539425 C.3        1 MOL1        -0.1693
       2    H1      19.168140   20.752826   23.238399 H          1 MOL1         0.0829
       3    H2      20.311676   20.598688   21.883692 H          1 MOL1         0.0829
       4    C2      18.645089   19.077196   21.799091 C.3        1 MOL1        -0.1768
       5    H3      17.745651   18.819674   22.371549 H          1 MOL1         0.0829
       6    H4      18.341451   19.376510   20.789674 H          1 MOL1         0.0829
       7    C3      19.779257   18.009071   21.881333 C.3        1 MOL1         0.1211
       8    H5      19.432161   16.979538   22.036491 H          1 MOL1         0.0786
       9    C4      20.233623   18.749345   23.177303 C.3        1 MOL1        -0.1768
      10    H6      19.723670   18.411440   24.087678 H          1 MOL1         0.0829
      11    H7      21.312668   18.763294   23.367503 H          1 MOL1         0.0829
      12    O1      20.708538   18.050003   20.819970 O.3        1 MOL1        -0.5515
      13    H8      20.981595   18.986099   20.727899 H          1 MOL1         0.3773
@<TRIPOS>BOND
    1     1     2    1
    2     1     3    1
    3     1     4    1
    4     4     5    1
    5     4     6    1
    6     4     7    1
    7     7     8    1
    8     1     9    1
    9     7     9    1
   10     9    10    1
   11     9    11    1
   12     7    12    1
   13    12    13    1
@<TRIPOS>SUBSTRUCTURE
       1 MOL1            1 RESIDUE      1      MOL     
@<SCITEGIC>MOL_PROPERTY
VConf Rank
SciTegic.value.IntegerValue
745

@<SCITEGIC>MOL_PROPERTY
Conf_Id
SciTegic.value.IntegerValue
44

@<SCITEGIC>MOL_PROPERTY
Delta U+W
SciTegic.value.DoubleValue
0.823

@<SCITEGIC>MOL_PROPERTY
U+W
SciTegic.value.DoubleValue
-2.308

@<SCITEGIC>MOL_PROPERTY
Grad RMS
SciTegic.value.DoubleValue
0.000000

@<SCITEGIC>MOL_PROPERTY
U
SciTegic.value.DoubleValue
0.039

@<SCITEGIC>MOL_PROPERTY
W
SciTegic.value.DoubleValue
-2.348

@<SCITEGIC>MOL_PROPERTY
W(PB)
SciTegic.value.DoubleValue
-3.918

@<SCITEGIC>MOL_PROPERTY
W(SA)
SciTegic.value.DoubleValue
1.571

@<SCITEGIC>MOL_PROPERTY
Valence
SciTegic.value.DoubleValue
7.320

@<SCITEGIC>MOL_PROPERTY
Coulomb
SciTegic.value.DoubleValue
-8.530

@<SCITEGIC>MOL_PROPERTY
VdW
SciTegic.value.DoubleValue
1.249

@<SCITEGIC>MOL_PROPERTY
VdW6
SciTegic.value.DoubleValue
-2.615

@<SCITEGIC>MOL_PROPERTY
VdW12
SciTegic.value.DoubleValue
3.864

@<SCITEGIC>MOL_PROPERTY
Bond
SciTegic.value.DoubleValue
0.056

@<SCITEGIC>MOL_PROPERTY
Angle
SciTegic.value.DoubleValue
0.694

@<SCITEGIC>MOL_PROPERTY
Pdih
SciTegic.value.DoubleValue
6.570

@<SCITEGIC>MOL_PROPERTY
Idih
SciTegic.value.DoubleValue
0.000

@<SCITEGIC>MOL_PROPERTY
Tether
SciTegic.value.DoubleValue
0.000

@<TRIPOS>MOLECULE
guest-s16_confgen4.mol2 : confsearch ligand conformer 746
          13          13           1
SMALL
USER_CHARGES
 
@<TRIPOS>ATOM
       1    C1      19.039550   18.003753   21.731027 C.3        1 MOL1        -0.1693
       2    H1      19.670060   17.399731   21.065294 H          1 MOL1         0.0829
       3    H2      18.057096   17.523896   21.813852 H          1 MOL1         0.0829
       4    C2      19.031342   19.535425   21.412875 C.3        1 MOL1        -0.1768
       5    H3      19.139772   19.810940   20.358221 H          1 MOL1         0.0829
       6    H4      18.184057   20.088557   21.836831 H          1 MOL1         0.0829
       7    C3      20.333881   19.596061   22.266435 C.3        1 MOL1         0.1211
       8    H5      21.241617   19.327420   21.708843 H          1 MOL1         0.0786
       9    C4      19.718227   18.416871   23.078639 C.3        1 MOL1        -0.1768
      10    H6      20.433325   17.700604   23.497886 H          1 MOL1         0.0829
      11    H7      19.020381   18.722559   23.868170 H          1 MOL1         0.0829
      12    O1      20.525534   20.790226   22.988782 O.3        1 MOL1        -0.5515
      13    H8      21.277885   20.641865   23.601285 H          1 MOL1         0.3773
@<TRIPOS>BOND
    1     1     2    1
    2     1     3    1
    3     1     4    1
    4     4     5    1
    5     4     6    1
    6     4     7    1
    7     7     8    1
    8     1     9    1
    9     7     9    1
   10     9    10    1
   11     9    11    1
   12     7    12    1
   13    12    13    1
@<TRIPOS>SUBSTRUCTURE
       1 MOL1            1 RESIDUE      1      MOL     
@<SCITEGIC>MOL_PROPERTY
VConf Rank
SciTegic.value.IntegerValue
746

@<SCITEGIC>MOL_PROPERTY
Conf_Id
SciTegic.value.IntegerValue
22

@<SCITEGIC>MOL_PROPERTY
Delta U+W
SciTegic.value.DoubleValue
0.000

@<SCITEGIC>MOL_PROPERTY
U+W
SciTegic.value.DoubleValue
-3.131

@<SCITEGIC>MOL_PROPERTY
Grad RMS
SciTegic.value.DoubleValue
0.000000

@<SCITEGIC>MOL_PROPERTY
U
SciTegic.value.DoubleValue
-0.154

@<SCITEGIC>MOL_PROPERTY
W
SciTegic.value.DoubleValue
-2.978

@<SCITEGIC>MOL_PROPERTY
W(PB)
SciTegic.value.DoubleValue
-4.579

@<SCITEGIC>MOL_PROPERTY
W(SA)
SciTegic.value.DoubleValue
1.601

@<SCITEGIC>MOL_PROPERTY
Valence
SciTegic.value.DoubleValue
6.333

@<SCITEGIC>MOL_PROPERTY
Coulomb
SciTegic.value.DoubleValue
-7.439

@<SCITEGIC>MOL_PROPERTY
VdW
SciTegic.value.DoubleValue
0.952

@<SCITEGIC>MOL_PROPERTY
VdW6
SciTegic.value.DoubleValue
-2.120

@<SCITEGIC>MOL_PROPERTY
VdW12
SciTegic.value.DoubleValue
3.072

@<SCITEGIC>MOL_PROPERTY
Bond
SciTegic.value.DoubleValue
0.065

@<SCITEGIC>MOL_PROPERTY
Angle
SciTegic.value.DoubleValue
0.931

@<SCITEGIC>MOL_PROPERTY
Pdih
SciTegic.value.DoubleValue
5.338

@<SCITEGIC>MOL_PROPERTY
Idih
SciTegic.value.DoubleValue
0.000

@<SCITEGIC>MOL_PROPERTY
Tether
SciTegic.value.DoubleValue
0.000

@<TRIPOS>MOLECULE
guest-s16_confgen4.mol2 : confsearch ligand conformer 747
          13          13           1
SMALL
USER_CHARGES
 
@<TRIPOS>ATOM
       1    C1      20.555947   18.669958   21.341824 C.3        1 MOL1        -0.1693
       2    H1      21.445246   18.176268   21.755350 H          1 MOL1         0.0829
       3    H2      20.723744   18.857598   20.274597 H          1 MOL1         0.0829
       4    C2      20.032181   19.883439   22.178759 C.3        1 MOL1        -0.1768
       5    H3      19.374631   20.568928   21.629644 H          1 MOL1         0.0829
       6    H4      20.792817   20.470302   22.705254 H          1 MOL1         0.0829
       7    C3      19.285331   18.815357   23.033516 C.3        1 MOL1         0.1211
       8    H5      19.909302   18.347849   23.807569 H          1 MOL1         0.0786
       9    C4      19.197225   17.990019   21.714464 C.3        1 MOL1        -0.1768
      10    H6      18.354933   18.259480   21.065218 H          1 MOL1         0.0829
      11    H7      19.217442   16.901076   21.831745 H          1 MOL1         0.0829
      12    O1      18.049611   19.228487   23.569119 O.3        1 MOL1        -0.5515
      13    H8      18.243689   19.865620   24.289951 H          1 MOL1         0.3773
@<TRIPOS>BOND
    1     1     2    1
    2     1     3    1
    3     1     4    1
    4     4     5    1
    5     4     6    1
    6     4     7    1
    7     7     8    1
    8     1     9    1
    9     7     9    1
   10     9    10    1
   11     9    11    1
   12     7    12    1
   13    12    13    1
@<TRIPOS>SUBSTRUCTURE
       1 MOL1            1 RESIDUE      1      MOL     
@<SCITEGIC>MOL_PROPERTY
VConf Rank
SciTegic.value.IntegerValue
747

@<SCITEGIC>MOL_PROPERTY
Conf_Id
SciTegic.value.IntegerValue
19

@<SCITEGIC>MOL_PROPERTY
Delta U+W
SciTegic.value.DoubleValue
-0.011

@<SCITEGIC>MOL_PROPERTY
U+W
SciTegic.value.DoubleValue
-3.142

@<SCITEGIC>MOL_PROPERTY
Grad RMS
SciTegic.value.DoubleValue
0.000000

@<SCITEGIC>MOL_PROPERTY
U
SciTegic.value.DoubleValue
-0.154

@<SCITEGIC>MOL_PROPERTY
W
SciTegic.value.DoubleValue
-2.989

@<SCITEGIC>MOL_PROPERTY
W(PB)
SciTegic.value.DoubleValue
-4.588

@<SCITEGIC>MOL_PROPERTY
W(SA)
SciTegic.value.DoubleValue
1.599

@<SCITEGIC>MOL_PROPERTY
Valence
SciTegic.value.DoubleValue
6.334

@<SCITEGIC>MOL_PROPERTY
Coulomb
SciTegic.value.DoubleValue
-7.439

@<SCITEGIC>MOL_PROPERTY
VdW
SciTegic.value.DoubleValue
0.951

@<SCITEGIC>MOL_PROPERTY
VdW6
SciTegic.value.DoubleValue
-2.120

@<SCITEGIC>MOL_PROPERTY
VdW12
SciTegic.value.DoubleValue
3.072

@<SCITEGIC>MOL_PROPERTY
Bond
SciTegic.value.DoubleValue
0.065

@<SCITEGIC>MOL_PROPERTY
Angle
SciTegic.value.DoubleValue
0.930

@<SCITEGIC>MOL_PROPERTY
Pdih
SciTegic.value.DoubleValue
5.339

@<SCITEGIC>MOL_PROPERTY
Idih
SciTegic.value.DoubleValue
0.000

@<SCITEGIC>MOL_PROPERTY
Tether
SciTegic.value.DoubleValue
0.000

@<TRIPOS>MOLECULE
guest-s16_confgen4.mol2 : confsearch ligand conformer 748
          13          13           1
SMALL
USER_CHARGES
 
@<TRIPOS>ATOM
       1    C1      19.724073   18.160130   21.437408 C.3        1 MOL1        -0.1693
       2    H1      19.207949   17.321139   20.956070 H          1 MOL1         0.0829
       3    H2      20.692106   18.308084   20.941193 H          1 MOL1         0.0829
       4    C2      19.794754   18.119753   23.000208 C.3        1 MOL1        -0.1768
       5    H3      18.942289   17.625468   23.481615 H          1 MOL1         0.0829
       6    H4      20.719997   17.720114   23.429869 H          1 MOL1         0.0829
       7    C3      19.687078   19.675830   22.950618 C.3        1 MOL1         0.1211
       8    H5      19.111386   20.120623   23.772537 H          1 MOL1         0.0786
       9    C4      18.884587   19.466848   21.628335 C.3        1 MOL1        -0.1768
      10    H6      19.014837   20.237880   20.860939 H          1 MOL1         0.0829
      11    H7      17.810919   19.298922   21.776692 H          1 MOL1         0.0829
      12    O1      20.918929   20.352811   22.801009 O.3        1 MOL1        -0.5515
      13    H8      20.712784   21.292095   22.607609 H          1 MOL1         0.3773
@<TRIPOS>BOND
    1     1     2    1
    2     1     3    1
    3     1     4    1
    4     4     5    1
    5     4     6    1
    6     4     7    1
    7     7     8    1
    8     1     9    1
    9     7     9    1
   10     9    10    1
   11     9    11    1
   12     7    12    1
   13    12    13    1
@<TRIPOS>SUBSTRUCTURE
       1 MOL1            1 RESIDUE      1      MOL     
@<SCITEGIC>MOL_PROPERTY
VConf Rank
SciTegic.value.IntegerValue
748

@<SCITEGIC>MOL_PROPERTY
Conf_Id
SciTegic.value.IntegerValue
20

@<SCITEGIC>MOL_PROPERTY
Delta U+W
SciTegic.value.DoubleValue
1.030

@<SCITEGIC>MOL_PROPERTY
U+W
SciTegic.value.DoubleValue
-2.101

@<SCITEGIC>MOL_PROPERTY
Grad RMS
SciTegic.value.DoubleValue
0.000000

@<SCITEGIC>MOL_PROPERTY
U
SciTegic.value.DoubleValue
0.841

@<SCITEGIC>MOL_PROPERTY
W
SciTegic.value.DoubleValue
-2.942

@<SCITEGIC>MOL_PROPERTY
W(PB)
SciTegic.value.DoubleValue
-4.530

@<SCITEGIC>MOL_PROPERTY
W(SA)
SciTegic.value.DoubleValue
1.587

@<SCITEGIC>MOL_PROPERTY
Valence
SciTegic.value.DoubleValue
6.736

@<SCITEGIC>MOL_PROPERTY
Coulomb
SciTegic.value.DoubleValue
-7.246

@<SCITEGIC>MOL_PROPERTY
VdW
SciTegic.value.DoubleValue
1.352

@<SCITEGIC>MOL_PROPERTY
VdW6
SciTegic.value.DoubleValue
-2.500

@<SCITEGIC>MOL_PROPERTY
VdW12
SciTegic.value.DoubleValue
3.851

@<SCITEGIC>MOL_PROPERTY
Bond
SciTegic.value.DoubleValue
0.063

@<SCITEGIC>MOL_PROPERTY
Angle
SciTegic.value.DoubleValue
0.687

@<SCITEGIC>MOL_PROPERTY
Pdih
SciTegic.value.DoubleValue
5.986

@<SCITEGIC>MOL_PROPERTY
Idih
SciTegic.value.DoubleValue
0.000

@<SCITEGIC>MOL_PROPERTY
Tether
SciTegic.value.DoubleValue
0.000

@<TRIPOS>MOLECULE
guest-s16_confgen4.mol2 : confsearch ligand conformer 749
          13          13           1
SMALL
USER_CHARGES
 
@<TRIPOS>ATOM
       1    C1      19.009914   19.272008   23.211251 C.3        1 MOL1        -0.1693
       2    H1      18.861893   18.524356   24.001679 H          1 MOL1         0.0829
       3    H2      18.454929   20.179020   23.479097 H          1 MOL1         0.0829
       4    C2      18.792961   18.737914   21.756936 C.3        1 MOL1        -0.1768
       5    H3      18.039634   17.951133   21.639614 H          1 MOL1         0.0829
       6    H4      18.608591   19.516439   21.006407 H          1 MOL1         0.0829
       7    C3      20.271036   18.251668   21.846462 C.3        1 MOL1         0.1211
       8    H5      20.390181   17.283254   22.351114 H          1 MOL1         0.0786
       9    C4      20.498760   19.480045   22.778335 C.3        1 MOL1        -0.1768
      10    H6      20.695656   20.424445   22.256101 H          1 MOL1         0.0829
      11    H7      21.251912   19.348677   23.563061 H          1 MOL1         0.0829
      12    O1      20.988048   18.270786   20.635121 O.3        1 MOL1        -0.5515
      13    H8      20.845088   19.153092   20.232856 H          1 MOL1         0.3773
@<TRIPOS>BOND
    1     1     2    1
    2     1     3    1
    3     1     4    1
    4     4     5    1
    5     4     6    1
    6     4     7    1
    7     7     8    1
    8     1     9    1
    9     7     9    1
   10     9    10    1
   11     9    11    1
   12     7    12    1
   13    12    13    1
@<TRIPOS>SUBSTRUCTURE
       1 MOL1            1 RESIDUE      1      MOL     
@<SCITEGIC>MOL_PROPERTY
VConf Rank
SciTegic.value.IntegerValue
749

@<SCITEGIC>MOL_PROPERTY
Conf_Id
SciTegic.value.IntegerValue
24

@<SCITEGIC>MOL_PROPERTY
Delta U+W
SciTegic.value.DoubleValue
0.356

@<SCITEGIC>MOL_PROPERTY
U+W
SciTegic.value.DoubleValue
-2.775

@<SCITEGIC>MOL_PROPERTY
Grad RMS
SciTegic.value.DoubleValue
0.000000

@<SCITEGIC>MOL_PROPERTY
U
SciTegic.value.DoubleValue
-0.184

@<SCITEGIC>MOL_PROPERTY
W
SciTegic.value.DoubleValue
-2.591

@<SCITEGIC>MOL_PROPERTY
W(PB)
SciTegic.value.DoubleValue
-4.184

@<SCITEGIC>MOL_PROPERTY
W(SA)
SciTegic.value.DoubleValue
1.593

@<SCITEGIC>MOL_PROPERTY
Valence
SciTegic.value.DoubleValue
6.840

@<SCITEGIC>MOL_PROPERTY
Coulomb
SciTegic.value.DoubleValue
-7.916

@<SCITEGIC>MOL_PROPERTY
VdW
SciTegic.value.DoubleValue
0.893

@<SCITEGIC>MOL_PROPERTY
VdW6
SciTegic.value.DoubleValue
-2.167

@<SCITEGIC>MOL_PROPERTY
VdW12
SciTegic.value.DoubleValue
3.060

@<SCITEGIC>MOL_PROPERTY
Bond
SciTegic.value.DoubleValue
0.059

@<SCITEGIC>MOL_PROPERTY
Angle
SciTegic.value.DoubleValue
0.918

@<SCITEGIC>MOL_PROPERTY
Pdih
SciTegic.value.DoubleValue
5.862

@<SCITEGIC>MOL_PROPERTY
Idih
SciTegic.value.DoubleValue
0.000

@<SCITEGIC>MOL_PROPERTY
Tether
SciTegic.value.DoubleValue
0.000

@<TRIPOS>MOLECULE
guest-s16_confgen4.mol2 : confsearch ligand conformer 750
          13          13           1
SMALL
USER_CHARGES
 
@<TRIPOS>ATOM
       1    C1      18.945121   19.801554   22.335333 C.3        1 MOL1        -0.1693
       2    H1      18.348066   20.385378   23.046001 H          1 MOL1         0.0829
       3    H2      18.736372   20.169697   21.322816 H          1 MOL1         0.0829
       4    C2      18.874587   18.246343   22.498066 C.3        1 MOL1        -0.1768
       5    H3      18.708154   17.905293   23.527143 H          1 MOL1         0.0829
       6    H4      18.171962   17.722985   21.839945 H          1 MOL1         0.0829
       7    C3      20.370107   18.224083   22.054313 C.3        1 MOL1         0.1211
       8    H5      20.986078   17.462092   22.548719 H          1 MOL1         0.0786
       9    C4      20.464300   19.649867   22.680620 C.3        1 MOL1        -0.1768
      10    H6      20.687640   19.652942   23.754456 H          1 MOL1         0.0829
      11    H7      21.145384   20.348158   22.181398 H          1 MOL1         0.0829
      12    O1      20.572347   18.176571   20.658402 O.3        1 MOL1        -0.5515
      13    H8      20.001738   18.873009   20.272794 H          1 MOL1         0.3773
@<TRIPOS>BOND
    1     1     2    1
    2     1     3    1
    3     1     4    1
    4     4     5    1
    5     4     6    1
    6     4     7    1
    7     7     8    1
    8     1     9    1
    9     7     9    1
   10     9    10    1
   11     9    11    1
   12     7    12    1
   13    12    13    1
@<TRIPOS>SUBSTRUCTURE
       1 MOL1            1 RESIDUE      1      MOL     
@<SCITEGIC>MOL_PROPERTY
VConf Rank
SciTegic.value.IntegerValue
750

@<SCITEGIC>MOL_PROPERTY
Conf_Id
SciTegic.value.IntegerValue
44

@<SCITEGIC>MOL_PROPERTY
Delta U+W
SciTegic.value.DoubleValue
0.823

@<SCITEGIC>MOL_PROPERTY
U+W
SciTegic.value.DoubleValue
-2.308

@<SCITEGIC>MOL_PROPERTY
Grad RMS
SciTegic.value.DoubleValue
0.000000

@<SCITEGIC>MOL_PROPERTY
U
SciTegic.value.DoubleValue
0.039

@<SCITEGIC>MOL_PROPERTY
W
SciTegic.value.DoubleValue
-2.348

@<SCITEGIC>MOL_PROPERTY
W(PB)
SciTegic.value.DoubleValue
-3.918

@<SCITEGIC>MOL_PROPERTY
W(SA)
SciTegic.value.DoubleValue
1.571

@<SCITEGIC>MOL_PROPERTY
Valence
SciTegic.value.DoubleValue
7.320

@<SCITEGIC>MOL_PROPERTY
Coulomb
SciTegic.value.DoubleValue
-8.530

@<SCITEGIC>MOL_PROPERTY
VdW
SciTegic.value.DoubleValue
1.249

@<SCITEGIC>MOL_PROPERTY
VdW6
SciTegic.value.DoubleValue
-2.615

@<SCITEGIC>MOL_PROPERTY
VdW12
SciTegic.value.DoubleValue
3.864

@<SCITEGIC>MOL_PROPERTY
Bond
SciTegic.value.DoubleValue
0.056

@<SCITEGIC>MOL_PROPERTY
Angle
SciTegic.value.DoubleValue
0.694

@<SCITEGIC>MOL_PROPERTY
Pdih
SciTegic.value.DoubleValue
6.570

@<SCITEGIC>MOL_PROPERTY
Idih
SciTegic.value.DoubleValue
0.000

@<SCITEGIC>MOL_PROPERTY
Tether
SciTegic.value.DoubleValue
0.000

@<TRIPOS>MOLECULE
guest-s16_confgen4.mol2 : confsearch ligand conformer 751
          13          13           1
SMALL
USER_CHARGES
 
@<TRIPOS>ATOM
       1    C1      20.033890   20.301851   22.100385 C.3        1 MOL1        -0.1693
       2    H1      20.710650   20.462682   21.250847 H          1 MOL1         0.0829
       3    H2      19.813551   21.272027   22.561413 H          1 MOL1         0.0829
       4    C2      20.469631   19.160218   23.077171 C.3        1 MOL1        -0.1768
       5    H3      21.548308   19.011978   23.197350 H          1 MOL1         0.0829
       6    H4      20.006477   19.203498   24.070751 H          1 MOL1         0.0829
       7    C3      19.760948   18.198923   22.075909 C.3        1 MOL1         0.1211
       8    H5      20.385280   17.914550   21.217769 H          1 MOL1         0.0786
       9    C4      18.799482   19.392038   21.790857 C.3        1 MOL1        -0.1768
      10    H6      18.400101   19.451200   20.772444 H          1 MOL1         0.0829
      11    H7      17.969502   19.488525   22.501924 H          1 MOL1         0.0829
      12    O1      19.158613   17.064294   22.654144 O.3        1 MOL1        -0.5515
      13    H8      18.616293   16.636123   21.957177 H          1 MOL1         0.3773
@<TRIPOS>BOND
    1     1     2    1
    2     1     3    1
    3     1     4    1
    4     4     5    1
    5     4     6    1
    6     4     7    1
    7     7     8    1
    8     1     9    1
    9     7     9    1
   10     9    10    1
   11     9    11    1
   12     7    12    1
   13    12    13    1
@<TRIPOS>SUBSTRUCTURE
       1 MOL1            1 RESIDUE      1      MOL     
@<SCITEGIC>MOL_PROPERTY
VConf Rank
SciTegic.value.IntegerValue
751

@<SCITEGIC>MOL_PROPERTY
Conf_Id
SciTegic.value.IntegerValue
22

@<SCITEGIC>MOL_PROPERTY
Delta U+W
SciTegic.value.DoubleValue
0.000

@<SCITEGIC>MOL_PROPERTY
U+W
SciTegic.value.DoubleValue
-3.131

@<SCITEGIC>MOL_PROPERTY
Grad RMS
SciTegic.value.DoubleValue
0.000000

@<SCITEGIC>MOL_PROPERTY
U
SciTegic.value.DoubleValue
-0.154

@<SCITEGIC>MOL_PROPERTY
W
SciTegic.value.DoubleValue
-2.978

@<SCITEGIC>MOL_PROPERTY
W(PB)
SciTegic.value.DoubleValue
-4.579

@<SCITEGIC>MOL_PROPERTY
W(SA)
SciTegic.value.DoubleValue
1.601

@<SCITEGIC>MOL_PROPERTY
Valence
SciTegic.value.DoubleValue
6.333

@<SCITEGIC>MOL_PROPERTY
Coulomb
SciTegic.value.DoubleValue
-7.439

@<SCITEGIC>MOL_PROPERTY
VdW
SciTegic.value.DoubleValue
0.952

@<SCITEGIC>MOL_PROPERTY
VdW6
SciTegic.value.DoubleValue
-2.120

@<SCITEGIC>MOL_PROPERTY
VdW12
SciTegic.value.DoubleValue
3.072

@<SCITEGIC>MOL_PROPERTY
Bond
SciTegic.value.DoubleValue
0.065

@<SCITEGIC>MOL_PROPERTY
Angle
SciTegic.value.DoubleValue
0.931

@<SCITEGIC>MOL_PROPERTY
Pdih
SciTegic.value.DoubleValue
5.338

@<SCITEGIC>MOL_PROPERTY
Idih
SciTegic.value.DoubleValue
0.000

@<SCITEGIC>MOL_PROPERTY
Tether
SciTegic.value.DoubleValue
0.000

@<TRIPOS>MOLECULE
guest-s16_confgen4.mol2 : confsearch ligand conformer 752
          13          13           1
SMALL
USER_CHARGES
 
@<TRIPOS>ATOM
       1    C1      19.788944   20.219481   22.450976 C.3        1 MOL1        -0.1693
       2    H1      18.968664   20.829635   22.050429 H          1 MOL1         0.0829
       3    H2      20.549076   20.887751   22.872821 H          1 MOL1         0.0829
       4    C2      20.312297   19.108707   21.481639 C.3        1 MOL1        -0.1768
       5    H3      21.311596   18.724688   21.721895 H          1 MOL1         0.0829
       6    H4      20.272500   19.343890   20.412398 H          1 MOL1         0.0829
       7    C3      19.137239   18.245332   22.032110 C.3        1 MOL1         0.1211
       8    H5      18.173240   18.440202   21.542423 H          1 MOL1         0.0786
       9    C4      19.336138   19.031727   23.362849 C.3        1 MOL1        -0.1768
      10    H6      20.120075   18.628733   24.016014 H          1 MOL1         0.0829
      11    H7      18.431629   19.196688   23.958343 H          1 MOL1         0.0829
      12    O1      19.389627   16.861404   22.106902 O.3        1 MOL1        -0.5515
      13    H8      19.391073   16.516142   21.188210 H          1 MOL1         0.3773
@<TRIPOS>BOND
    1     1     2    1
    2     1     3    1
    3     1     4    1
    4     4     5    1
    5     4     6    1
    6     4     7    1
    7     7     8    1
    8     1     9    1
    9     7     9    1
   10     9    10    1
   11     9    11    1
   12     7    12    1
   13    12    13    1
@<TRIPOS>SUBSTRUCTURE
       1 MOL1            1 RESIDUE      1      MOL     
@<SCITEGIC>MOL_PROPERTY
VConf Rank
SciTegic.value.IntegerValue
752

@<SCITEGIC>MOL_PROPERTY
Conf_Id
SciTegic.value.IntegerValue
19

@<SCITEGIC>MOL_PROPERTY
Delta U+W
SciTegic.value.DoubleValue
-0.011

@<SCITEGIC>MOL_PROPERTY
U+W
SciTegic.value.DoubleValue
-3.142

@<SCITEGIC>MOL_PROPERTY
Grad RMS
SciTegic.value.DoubleValue
0.000000

@<SCITEGIC>MOL_PROPERTY
U
SciTegic.value.DoubleValue
-0.154

@<SCITEGIC>MOL_PROPERTY
W
SciTegic.value.DoubleValue
-2.989

@<SCITEGIC>MOL_PROPERTY
W(PB)
SciTegic.value.DoubleValue
-4.588

@<SCITEGIC>MOL_PROPERTY
W(SA)
SciTegic.value.DoubleValue
1.599

@<SCITEGIC>MOL_PROPERTY
Valence
SciTegic.value.DoubleValue
6.334

@<SCITEGIC>MOL_PROPERTY
Coulomb
SciTegic.value.DoubleValue
-7.439

@<SCITEGIC>MOL_PROPERTY
VdW
SciTegic.value.DoubleValue
0.951

@<SCITEGIC>MOL_PROPERTY
VdW6
SciTegic.value.DoubleValue
-2.120

@<SCITEGIC>MOL_PROPERTY
VdW12
SciTegic.value.DoubleValue
3.072

@<SCITEGIC>MOL_PROPERTY
Bond
SciTegic.value.DoubleValue
0.065

@<SCITEGIC>MOL_PROPERTY
Angle
SciTegic.value.DoubleValue
0.930

@<SCITEGIC>MOL_PROPERTY
Pdih
SciTegic.value.DoubleValue
5.339

@<SCITEGIC>MOL_PROPERTY
Idih
SciTegic.value.DoubleValue
0.000

@<SCITEGIC>MOL_PROPERTY
Tether
SciTegic.value.DoubleValue
0.000

@<TRIPOS>MOLECULE
guest-s16_confgen4.mol2 : confsearch ligand conformer 753
          13          13           1
SMALL
USER_CHARGES
 
@<TRIPOS>ATOM
       1    C1      19.316214   18.334368   23.228980 C.3        1 MOL1        -0.1693
       2    H1      19.220928   17.300596   23.581417 H          1 MOL1         0.0829
       3    H2      19.095758   19.011792   24.064267 H          1 MOL1         0.0829
       4    C2      18.568961   18.679683   21.898062 C.3        1 MOL1        -0.1768
       5    H3      18.486621   17.844122   21.192497 H          1 MOL1         0.0829
       6    H4      17.583107   19.145203   22.006578 H          1 MOL1         0.0829
       7    C3      19.750036   19.654944   21.599134 C.3        1 MOL1         0.1211
       8    H5      20.028582   19.724344   20.539697 H          1 MOL1         0.0786
       9    C4      20.625302   18.675905   22.442632 C.3        1 MOL1        -0.1768
      10    H6      21.430834   19.134310   23.026868 H          1 MOL1         0.0829
      11    H7      21.041837   17.838794   21.869292 H          1 MOL1         0.0829
      12    O1      19.605350   20.949894   22.147146 O.3        1 MOL1        -0.5515
      13    H8      20.468156   21.405741   22.047530 H          1 MOL1         0.3773
@<TRIPOS>BOND
    1     1     2    1
    2     1     3    1
    3     1     4    1
    4     4     5    1
    5     4     6    1
    6     4     7    1
    7     7     8    1
    8     1     9    1
    9     7     9    1
   10     9    10    1
   11     9    11    1
   12     7    12    1
   13    12    13    1
@<TRIPOS>SUBSTRUCTURE
       1 MOL1            1 RESIDUE      1      MOL     
@<SCITEGIC>MOL_PROPERTY
VConf Rank
SciTegic.value.IntegerValue
753

@<SCITEGIC>MOL_PROPERTY
Conf_Id
SciTegic.value.IntegerValue
20

@<SCITEGIC>MOL_PROPERTY
Delta U+W
SciTegic.value.DoubleValue
1.030

@<SCITEGIC>MOL_PROPERTY
U+W
SciTegic.value.DoubleValue
-2.101

@<SCITEGIC>MOL_PROPERTY
Grad RMS
SciTegic.value.DoubleValue
0.000000

@<SCITEGIC>MOL_PROPERTY
U
SciTegic.value.DoubleValue
0.841

@<SCITEGIC>MOL_PROPERTY
W
SciTegic.value.DoubleValue
-2.942

@<SCITEGIC>MOL_PROPERTY
W(PB)
SciTegic.value.DoubleValue
-4.530

@<SCITEGIC>MOL_PROPERTY
W(SA)
SciTegic.value.DoubleValue
1.587

@<SCITEGIC>MOL_PROPERTY
Valence
SciTegic.value.DoubleValue
6.736

@<SCITEGIC>MOL_PROPERTY
Coulomb
SciTegic.value.DoubleValue
-7.246

@<SCITEGIC>MOL_PROPERTY
VdW
SciTegic.value.DoubleValue
1.352

@<SCITEGIC>MOL_PROPERTY
VdW6
SciTegic.value.DoubleValue
-2.500

@<SCITEGIC>MOL_PROPERTY
VdW12
SciTegic.value.DoubleValue
3.851

@<SCITEGIC>MOL_PROPERTY
Bond
SciTegic.value.DoubleValue
0.063

@<SCITEGIC>MOL_PROPERTY
Angle
SciTegic.value.DoubleValue
0.687

@<SCITEGIC>MOL_PROPERTY
Pdih
SciTegic.value.DoubleValue
5.986

@<SCITEGIC>MOL_PROPERTY
Idih
SciTegic.value.DoubleValue
0.000

@<SCITEGIC>MOL_PROPERTY
Tether
SciTegic.value.DoubleValue
0.000

@<TRIPOS>MOLECULE
guest-s16_confgen4.mol2 : confsearch ligand conformer 754
          13          13           1
SMALL
USER_CHARGES
 
@<TRIPOS>ATOM
       1    C1      20.996375   19.235915   22.251144 C.3        1 MOL1        -0.1693
       2    H1      21.311817   20.094510   22.858581 H          1 MOL1         0.0829
       3    H2      21.884507   18.789878   21.787792 H          1 MOL1         0.0829
       4    C2      19.791108   19.518943   21.294806 C.3        1 MOL1        -0.1768
       5    H3      19.723501   20.535612   20.892182 H          1 MOL1         0.0829
       6    H4      19.685496   18.805362   20.468346 H          1 MOL1         0.0829
       7    C3      18.895601   19.221382   22.535242 C.3        1 MOL1         0.1211
       8    H5      18.766370   20.081448   23.206270 H          1 MOL1         0.0786
       9    C4      20.027106   18.243759   22.974677 C.3        1 MOL1        -0.1768
      10    H6      19.974243   17.245158   22.523690 H          1 MOL1         0.0829
      11    H7      20.167920   18.134244   24.055635 H          1 MOL1         0.0829
      12    O1      17.653627   18.621156   22.254093 O.3        1 MOL1        -0.5515
      13    H8      17.830933   17.865470   21.655577 H          1 MOL1         0.3773
@<TRIPOS>BOND
    1     1     2    1
    2     1     3    1
    3     1     4    1
    4     4     5    1
    5     4     6    1
    6     4     7    1
    7     7     8    1
    8     1     9    1
    9     7     9    1
   10     9    10    1
   11     9    11    1
   12     7    12    1
   13    12    13    1
@<TRIPOS>SUBSTRUCTURE
       1 MOL1            1 RESIDUE      1      MOL     
@<SCITEGIC>MOL_PROPERTY
VConf Rank
SciTegic.value.IntegerValue
754

@<SCITEGIC>MOL_PROPERTY
Conf_Id
SciTegic.value.IntegerValue
24

@<SCITEGIC>MOL_PROPERTY
Delta U+W
SciTegic.value.DoubleValue
0.356

@<SCITEGIC>MOL_PROPERTY
U+W
SciTegic.value.DoubleValue
-2.775

@<SCITEGIC>MOL_PROPERTY
Grad RMS
SciTegic.value.DoubleValue
0.000000

@<SCITEGIC>MOL_PROPERTY
U
SciTegic.value.DoubleValue
-0.184

@<SCITEGIC>MOL_PROPERTY
W
SciTegic.value.DoubleValue
-2.591

@<SCITEGIC>MOL_PROPERTY
W(PB)
SciTegic.value.DoubleValue
-4.184

@<SCITEGIC>MOL_PROPERTY
W(SA)
SciTegic.value.DoubleValue
1.593

@<SCITEGIC>MOL_PROPERTY
Valence
SciTegic.value.DoubleValue
6.840

@<SCITEGIC>MOL_PROPERTY
Coulomb
SciTegic.value.DoubleValue
-7.916

@<SCITEGIC>MOL_PROPERTY
VdW
SciTegic.value.DoubleValue
0.893

@<SCITEGIC>MOL_PROPERTY
VdW6
SciTegic.value.DoubleValue
-2.167

@<SCITEGIC>MOL_PROPERTY
VdW12
SciTegic.value.DoubleValue
3.060

@<SCITEGIC>MOL_PROPERTY
Bond
SciTegic.value.DoubleValue
0.059

@<SCITEGIC>MOL_PROPERTY
Angle
SciTegic.value.DoubleValue
0.918

@<SCITEGIC>MOL_PROPERTY
Pdih
SciTegic.value.DoubleValue
5.862

@<SCITEGIC>MOL_PROPERTY
Idih
SciTegic.value.DoubleValue
0.000

@<SCITEGIC>MOL_PROPERTY
Tether
SciTegic.value.DoubleValue
0.000

@<TRIPOS>MOLECULE
guest-s16_confgen4.mol2 : confsearch ligand conformer 755
          13          13           1
SMALL
USER_CHARGES
 
@<TRIPOS>ATOM
       1    C1      19.886861   19.273871   21.143139 C.3        1 MOL1        -0.1693
       2    H1      19.912216   18.947137   20.096729 H          1 MOL1         0.0829
       3    H2      20.162775   20.335329   21.181536 H          1 MOL1         0.0829
       4    C2      20.643333   18.359563   22.163889 C.3        1 MOL1        -0.1768
       5    H3      20.663248   17.297017   21.892568 H          1 MOL1         0.0829
       6    H4      21.660021   18.670116   22.429614 H          1 MOL1         0.0829
       7    C3      19.526654   18.734283   23.186926 C.3        1 MOL1         0.1211
       8    H5      19.240518   17.926818   23.872938 H          1 MOL1         0.0786
       9    C4      18.596112   18.899615   21.945657 C.3        1 MOL1        -0.1768
      10    H6      18.114080   17.969483   21.620827 H          1 MOL1         0.0829
      11    H7      17.830869   19.680237   22.021428 H          1 MOL1         0.0829
      12    O1      19.762713   19.922002   23.911721 O.3        1 MOL1        -0.5515
      13    H8      20.012458   20.602500   23.253037 H          1 MOL1         0.3773
@<TRIPOS>BOND
    1     1     2    1
    2     1     3    1
    3     1     4    1
    4     4     5    1
    5     4     6    1
    6     4     7    1
    7     7     8    1
    8     1     9    1
    9     7     9    1
   10     9    10    1
   11     9    11    1
   12     7    12    1
   13    12    13    1
@<TRIPOS>SUBSTRUCTURE
       1 MOL1            1 RESIDUE      1      MOL     
@<SCITEGIC>MOL_PROPERTY
VConf Rank
SciTegic.value.IntegerValue
755

@<SCITEGIC>MOL_PROPERTY
Conf_Id
SciTegic.value.IntegerValue
44

@<SCITEGIC>MOL_PROPERTY
Delta U+W
SciTegic.value.DoubleValue
0.823

@<SCITEGIC>MOL_PROPERTY
U+W
SciTegic.value.DoubleValue
-2.308

@<SCITEGIC>MOL_PROPERTY
Grad RMS
SciTegic.value.DoubleValue
0.000000

@<SCITEGIC>MOL_PROPERTY
U
SciTegic.value.DoubleValue
0.039

@<SCITEGIC>MOL_PROPERTY
W
SciTegic.value.DoubleValue
-2.348

@<SCITEGIC>MOL_PROPERTY
W(PB)
SciTegic.value.DoubleValue
-3.918

@<SCITEGIC>MOL_PROPERTY
W(SA)
SciTegic.value.DoubleValue
1.571

@<SCITEGIC>MOL_PROPERTY
Valence
SciTegic.value.DoubleValue
7.320

@<SCITEGIC>MOL_PROPERTY
Coulomb
SciTegic.value.DoubleValue
-8.530

@<SCITEGIC>MOL_PROPERTY
VdW
SciTegic.value.DoubleValue
1.249

@<SCITEGIC>MOL_PROPERTY
VdW6
SciTegic.value.DoubleValue
-2.615

@<SCITEGIC>MOL_PROPERTY
VdW12
SciTegic.value.DoubleValue
3.864

@<SCITEGIC>MOL_PROPERTY
Bond
SciTegic.value.DoubleValue
0.056

@<SCITEGIC>MOL_PROPERTY
Angle
SciTegic.value.DoubleValue
0.694

@<SCITEGIC>MOL_PROPERTY
Pdih
SciTegic.value.DoubleValue
6.570

@<SCITEGIC>MOL_PROPERTY
Idih
SciTegic.value.DoubleValue
0.000

@<SCITEGIC>MOL_PROPERTY
Tether
SciTegic.value.DoubleValue
0.000

@<TRIPOS>MOLECULE
guest-s16_confgen4.mol2 : confsearch ligand conformer 756
          13          13           1
SMALL
USER_CHARGES
 
@<TRIPOS>ATOM
       1    C1      19.432638   17.747751   22.154132 C.3        1 MOL1        -0.1693
       2    H1      18.853008   17.472481   21.263155 H          1 MOL1         0.0829
       3    H2      19.698801   16.832196   22.695661 H          1 MOL1         0.0829
       4    C2      18.807307   18.896421   23.012517 C.3        1 MOL1        -0.1768
       5    H3      17.713140   18.945534   23.031177 H          1 MOL1         0.0829
       6    H4      19.180894   18.956466   24.042281 H          1 MOL1         0.0829
       7    C3      19.511998   19.862255   22.012806 C.3        1 MOL1         0.1211
       8    H5      18.944166   20.033919   21.088057 H          1 MOL1         0.0786
       9    C4      20.600965   18.753995   21.889909 C.3        1 MOL1        -0.1768
      10    H6      21.094385   18.674820   20.915004 H          1 MOL1         0.0829
      11    H7      21.368715   18.780482   22.673268 H          1 MOL1         0.0829
      12    O1      19.952702   21.081958   22.562943 O.3        1 MOL1        -0.5515
      13    H8      20.514008   21.519627   21.887233 H          1 MOL1         0.3773
@<TRIPOS>BOND
    1     1     2    1
    2     1     3    1
    3     1     4    1
    4     4     5    1
    5     4     6    1
    6     4     7    1
    7     7     8    1
    8     1     9    1
    9     7     9    1
   10     9    10    1
   11     9    11    1
   12     7    12    1
   13    12    13    1
@<TRIPOS>SUBSTRUCTURE
       1 MOL1            1 RESIDUE      1      MOL     
@<SCITEGIC>MOL_PROPERTY
VConf Rank
SciTegic.value.IntegerValue
756

@<SCITEGIC>MOL_PROPERTY
Conf_Id
SciTegic.value.IntegerValue
22

@<SCITEGIC>MOL_PROPERTY
Delta U+W
SciTegic.value.DoubleValue
0.000

@<SCITEGIC>MOL_PROPERTY
U+W
SciTegic.value.DoubleValue
-3.131

@<SCITEGIC>MOL_PROPERTY
Grad RMS
SciTegic.value.DoubleValue
0.000000

@<SCITEGIC>MOL_PROPERTY
U
SciTegic.value.DoubleValue
-0.154

@<SCITEGIC>MOL_PROPERTY
W
SciTegic.value.DoubleValue
-2.978

@<SCITEGIC>MOL_PROPERTY
W(PB)
SciTegic.value.DoubleValue
-4.579

@<SCITEGIC>MOL_PROPERTY
W(SA)
SciTegic.value.DoubleValue
1.601

@<SCITEGIC>MOL_PROPERTY
Valence
SciTegic.value.DoubleValue
6.333

@<SCITEGIC>MOL_PROPERTY
Coulomb
SciTegic.value.DoubleValue
-7.439

@<SCITEGIC>MOL_PROPERTY
VdW
SciTegic.value.DoubleValue
0.952

@<SCITEGIC>MOL_PROPERTY
VdW6
SciTegic.value.DoubleValue
-2.120

@<SCITEGIC>MOL_PROPERTY
VdW12
SciTegic.value.DoubleValue
3.072

@<SCITEGIC>MOL_PROPERTY
Bond
SciTegic.value.DoubleValue
0.065

@<SCITEGIC>MOL_PROPERTY
Angle
SciTegic.value.DoubleValue
0.931

@<SCITEGIC>MOL_PROPERTY
Pdih
SciTegic.value.DoubleValue
5.338

@<SCITEGIC>MOL_PROPERTY
Idih
SciTegic.value.DoubleValue
0.000

@<SCITEGIC>MOL_PROPERTY
Tether
SciTegic.value.DoubleValue
0.000

@<TRIPOS>MOLECULE
guest-s16_confgen4.mol2 : confsearch ligand conformer 757
          13          13           1
SMALL
USER_CHARGES
 
@<TRIPOS>ATOM
       1    C1      18.823697   19.196390   21.236513 C.3        1 MOL1        -0.1693
       2    H1      18.414946   18.300166   20.751444 H          1 MOL1         0.0829
       3    H2      18.472087   20.080785   20.691945 H          1 MOL1         0.0829
       4    C2      20.358506   19.137624   21.533559 C.3        1 MOL1        -0.1768
       5    H3      20.829708   20.113590   21.704591 H          1 MOL1         0.0829
       6    H4      20.966762   18.572733   20.818650 H          1 MOL1         0.0829
       7    C3      19.954468   18.377120   22.832629 C.3        1 MOL1         0.1211
       8    H5      19.781496   17.302308   22.684572 H          1 MOL1         0.0786
       9    C4      18.653554   19.234294   22.791158 C.3        1 MOL1        -0.1768
      10    H6      18.751233   20.230475   23.240231 H          1 MOL1         0.0829
      11    H7      17.753856   18.754137   23.191102 H          1 MOL1         0.0829
      12    O1      20.787946   18.600964   23.946073 O.3        1 MOL1        -0.5515
      13    H8      21.633840   18.133797   23.774543 H          1 MOL1         0.3773
@<TRIPOS>BOND
    1     1     2    1
    2     1     3    1
    3     1     4    1
    4     4     5    1
    5     4     6    1
    6     4     7    1
    7     7     8    1
    8     1     9    1
    9     7     9    1
   10     9    10    1
   11     9    11    1
   12     7    12    1
   13    12    13    1
@<TRIPOS>SUBSTRUCTURE
       1 MOL1            1 RESIDUE      1      MOL     
@<SCITEGIC>MOL_PROPERTY
VConf Rank
SciTegic.value.IntegerValue
757

@<SCITEGIC>MOL_PROPERTY
Conf_Id
SciTegic.value.IntegerValue
19

@<SCITEGIC>MOL_PROPERTY
Delta U+W
SciTegic.value.DoubleValue
-0.011

@<SCITEGIC>MOL_PROPERTY
U+W
SciTegic.value.DoubleValue
-3.142

@<SCITEGIC>MOL_PROPERTY
Grad RMS
SciTegic.value.DoubleValue
0.000000

@<SCITEGIC>MOL_PROPERTY
U
SciTegic.value.DoubleValue
-0.154

@<SCITEGIC>MOL_PROPERTY
W
SciTegic.value.DoubleValue
-2.989

@<SCITEGIC>MOL_PROPERTY
W(PB)
SciTegic.value.DoubleValue
-4.588

@<SCITEGIC>MOL_PROPERTY
W(SA)
SciTegic.value.DoubleValue
1.599

@<SCITEGIC>MOL_PROPERTY
Valence
SciTegic.value.DoubleValue
6.334

@<SCITEGIC>MOL_PROPERTY
Coulomb
SciTegic.value.DoubleValue
-7.439

@<SCITEGIC>MOL_PROPERTY
VdW
SciTegic.value.DoubleValue
0.951

@<SCITEGIC>MOL_PROPERTY
VdW6
SciTegic.value.DoubleValue
-2.120

@<SCITEGIC>MOL_PROPERTY
VdW12
SciTegic.value.DoubleValue
3.072

@<SCITEGIC>MOL_PROPERTY
Bond
SciTegic.value.DoubleValue
0.065

@<SCITEGIC>MOL_PROPERTY
Angle
SciTegic.value.DoubleValue
0.930

@<SCITEGIC>MOL_PROPERTY
Pdih
SciTegic.value.DoubleValue
5.339

@<SCITEGIC>MOL_PROPERTY
Idih
SciTegic.value.DoubleValue
0.000

@<SCITEGIC>MOL_PROPERTY
Tether
SciTegic.value.DoubleValue
0.000

@<TRIPOS>MOLECULE
guest-s16_confgen4.mol2 : confsearch ligand conformer 758
          13          13           1
SMALL
USER_CHARGES
 
@<TRIPOS>ATOM
       1    C1      19.502085   17.918266   21.820864 C.3        1 MOL1        -0.1693
       2    H1      19.877579   16.888564   21.847222 H          1 MOL1         0.0829
       3    H2      18.621616   17.954239   21.166122 H          1 MOL1         0.0829
       4    C2      20.565365   19.031913   21.541232 C.3        1 MOL1        -0.1768
       5    H3      21.571858   18.803448   21.912099 H          1 MOL1         0.0829
       6    H4      20.643456   19.372802   20.502921 H          1 MOL1         0.0829
       7    C3      19.724669   19.940394   22.491663 C.3        1 MOL1         0.1211
       8    H5      20.316878   20.630160   23.106743 H          1 MOL1         0.0786
       9    C4      19.310233   18.616977   23.207838 C.3        1 MOL1        -0.1768
      10    H6      18.296140   18.592564   23.621807 H          1 MOL1         0.0829
      11    H7      20.012505   18.287278   23.983137 H          1 MOL1         0.0829
      12    O1      18.666203   20.637499   21.865692 O.3        1 MOL1        -0.5515
      13    H8      18.113101   21.025591   22.576760 H          1 MOL1         0.3773
@<TRIPOS>BOND
    1     1     2    1
    2     1     3    1
    3     1     4    1
    4     4     5    1
    5     4     6    1
    6     4     7    1
    7     7     8    1
    8     1     9    1
    9     7     9    1
   10     9    10    1
   11     9    11    1
   12     7    12    1
   13    12    13    1
@<TRIPOS>SUBSTRUCTURE
       1 MOL1            1 RESIDUE      1      MOL     
@<SCITEGIC>MOL_PROPERTY
VConf Rank
SciTegic.value.IntegerValue
758

@<SCITEGIC>MOL_PROPERTY
Conf_Id
SciTegic.value.IntegerValue
20

@<SCITEGIC>MOL_PROPERTY
Delta U+W
SciTegic.value.DoubleValue
1.030

@<SCITEGIC>MOL_PROPERTY
U+W
SciTegic.value.DoubleValue
-2.101

@<SCITEGIC>MOL_PROPERTY
Grad RMS
SciTegic.value.DoubleValue
0.000000

@<SCITEGIC>MOL_PROPERTY
U
SciTegic.value.DoubleValue
0.841

@<SCITEGIC>MOL_PROPERTY
W
SciTegic.value.DoubleValue
-2.942

@<SCITEGIC>MOL_PROPERTY
W(PB)
SciTegic.value.DoubleValue
-4.530

@<SCITEGIC>MOL_PROPERTY
W(SA)
SciTegic.value.DoubleValue
1.587

@<SCITEGIC>MOL_PROPERTY
Valence
SciTegic.value.DoubleValue
6.736

@<SCITEGIC>MOL_PROPERTY
Coulomb
SciTegic.value.DoubleValue
-7.246

@<SCITEGIC>MOL_PROPERTY
VdW
SciTegic.value.DoubleValue
1.352

@<SCITEGIC>MOL_PROPERTY
VdW6
SciTegic.value.DoubleValue
-2.500

@<SCITEGIC>MOL_PROPERTY
VdW12
SciTegic.value.DoubleValue
3.851

@<SCITEGIC>MOL_PROPERTY
Bond
SciTegic.value.DoubleValue
0.063

@<SCITEGIC>MOL_PROPERTY
Angle
SciTegic.value.DoubleValue
0.687

@<SCITEGIC>MOL_PROPERTY
Pdih
SciTegic.value.DoubleValue
5.986

@<SCITEGIC>MOL_PROPERTY
Idih
SciTegic.value.DoubleValue
0.000

@<SCITEGIC>MOL_PROPERTY
Tether
SciTegic.value.DoubleValue
0.000

@<TRIPOS>MOLECULE
guest-s16_confgen4.mol2 : confsearch ligand conformer 759
          13          13           1
SMALL
USER_CHARGES
 
@<TRIPOS>ATOM
       1    C1      19.439019   20.155545   21.891768 C.3        1 MOL1        -0.1693
       2    H1      18.375280   20.426998   21.870752 H          1 MOL1         0.0829
       3    H2      20.030512   21.036386   21.614859 H          1 MOL1         0.0829
       4    C2      19.790238   18.828391   21.141659 C.3        1 MOL1        -0.1768
       5    H3      19.176947   18.593366   20.264772 H          1 MOL1         0.0829
       6    H4      20.847797   18.722466   20.870115 H          1 MOL1         0.0829
       7    C3      19.379572   18.115558   22.465433 C.3        1 MOL1         0.1211
       8    H5      18.297551   17.955019   22.566195 H          1 MOL1         0.0786
       9    C4      19.895615   19.399338   23.182902 C.3        1 MOL1        -0.1768
      10    H6      20.976728   19.421027   23.367601 H          1 MOL1         0.0829
      11    H7      19.375390   19.668545   24.108745 H          1 MOL1         0.0829
      12    O1      20.085455   16.933604   22.759593 O.3        1 MOL1        -0.5515
      13    H8      21.038497   17.136594   22.653641 H          1 MOL1         0.3773
@<TRIPOS>BOND
    1     1     2    1
    2     1     3    1
    3     1     4    1
    4     4     5    1
    5     4     6    1
    6     4     7    1
    7     7     8    1
    8     1     9    1
    9     7     9    1
   10     9    10    1
   11     9    11    1
   12     7    12    1
   13    12    13    1
@<TRIPOS>SUBSTRUCTURE
       1 MOL1            1 RESIDUE      1      MOL     
@<SCITEGIC>MOL_PROPERTY
VConf Rank
SciTegic.value.IntegerValue
759

@<SCITEGIC>MOL_PROPERTY
Conf_Id
SciTegic.value.IntegerValue
24

@<SCITEGIC>MOL_PROPERTY
Delta U+W
SciTegic.value.DoubleValue
0.356

@<SCITEGIC>MOL_PROPERTY
U+W
SciTegic.value.DoubleValue
-2.775

@<SCITEGIC>MOL_PROPERTY
Grad RMS
SciTegic.value.DoubleValue
0.000000

@<SCITEGIC>MOL_PROPERTY
U
SciTegic.value.DoubleValue
-0.184

@<SCITEGIC>MOL_PROPERTY
W
SciTegic.value.DoubleValue
-2.591

@<SCITEGIC>MOL_PROPERTY
W(PB)
SciTegic.value.DoubleValue
-4.184

@<SCITEGIC>MOL_PROPERTY
W(SA)
SciTegic.value.DoubleValue
1.593

@<SCITEGIC>MOL_PROPERTY
Valence
SciTegic.value.DoubleValue
6.840

@<SCITEGIC>MOL_PROPERTY
Coulomb
SciTegic.value.DoubleValue
-7.916

@<SCITEGIC>MOL_PROPERTY
VdW
SciTegic.value.DoubleValue
0.893

@<SCITEGIC>MOL_PROPERTY
VdW6
SciTegic.value.DoubleValue
-2.167

@<SCITEGIC>MOL_PROPERTY
VdW12
SciTegic.value.DoubleValue
3.060

@<SCITEGIC>MOL_PROPERTY
Bond
SciTegic.value.DoubleValue
0.059

@<SCITEGIC>MOL_PROPERTY
Angle
SciTegic.value.DoubleValue
0.918

@<SCITEGIC>MOL_PROPERTY
Pdih
SciTegic.value.DoubleValue
5.862

@<SCITEGIC>MOL_PROPERTY
Idih
SciTegic.value.DoubleValue
0.000

@<SCITEGIC>MOL_PROPERTY
Tether
SciTegic.value.DoubleValue
0.000

@<TRIPOS>MOLECULE
guest-s16_confgen4.mol2 : confsearch ligand conformer 760
          13          13           1
SMALL
USER_CHARGES
 
@<TRIPOS>ATOM
       1    C1      20.783992   19.246486   22.198079 C.3        1 MOL1        -0.1693
       2    H1      21.529083   20.012790   22.443014 H          1 MOL1         0.0829
       3    H2      21.303821   18.385504   21.759009 H          1 MOL1         0.0829
       4    C2      19.533493   19.739705   21.396127 C.3        1 MOL1        -0.1768
       5    H3      19.246093   20.778691   21.598423 H          1 MOL1         0.0829
       6    H4      19.566689   19.592713   20.310770 H          1 MOL1         0.0829
       7    C3      18.714675   18.684455   22.202339 C.3        1 MOL1         0.1211
       8    H5      17.693530   18.992878   22.460455 H          1 MOL1         0.0786
       9    C4      19.767595   18.892474   23.334630 C.3        1 MOL1        -0.1768
      10    H6      19.537595   19.723732   24.012217 H          1 MOL1         0.0829
      11    H7      20.004558   18.008043   23.936574 H          1 MOL1         0.0829
      12    O1      18.699846   17.390700   21.638685 O.3        1 MOL1        -0.5515
      13    H8      19.630887   17.169801   21.429687 H          1 MOL1         0.3773
@<TRIPOS>BOND
    1     1     2    1
    2     1     3    1
    3     1     4    1
    4     4     5    1
    5     4     6    1
    6     4     7    1
    7     7     8    1
    8     1     9    1
    9     7     9    1
   10     9    10    1
   11     9    11    1
   12     7    12    1
   13    12    13    1
@<TRIPOS>SUBSTRUCTURE
       1 MOL1            1 RESIDUE      1      MOL     
@<SCITEGIC>MOL_PROPERTY
VConf Rank
SciTegic.value.IntegerValue
760

@<SCITEGIC>MOL_PROPERTY
Conf_Id
SciTegic.value.IntegerValue
44

@<SCITEGIC>MOL_PROPERTY
Delta U+W
SciTegic.value.DoubleValue
0.823

@<SCITEGIC>MOL_PROPERTY
U+W
SciTegic.value.DoubleValue
-2.308

@<SCITEGIC>MOL_PROPERTY
Grad RMS
SciTegic.value.DoubleValue
0.000000

@<SCITEGIC>MOL_PROPERTY
U
SciTegic.value.DoubleValue
0.039

@<SCITEGIC>MOL_PROPERTY
W
SciTegic.value.DoubleValue
-2.348

@<SCITEGIC>MOL_PROPERTY
W(PB)
SciTegic.value.DoubleValue
-3.918

@<SCITEGIC>MOL_PROPERTY
W(SA)
SciTegic.value.DoubleValue
1.571

@<SCITEGIC>MOL_PROPERTY
Valence
SciTegic.value.DoubleValue
7.320

@<SCITEGIC>MOL_PROPERTY
Coulomb
SciTegic.value.DoubleValue
-8.530

@<SCITEGIC>MOL_PROPERTY
VdW
SciTegic.value.DoubleValue
1.249

@<SCITEGIC>MOL_PROPERTY
VdW6
SciTegic.value.DoubleValue
-2.615

@<SCITEGIC>MOL_PROPERTY
VdW12
SciTegic.value.DoubleValue
3.864

@<SCITEGIC>MOL_PROPERTY
Bond
SciTegic.value.DoubleValue
0.056

@<SCITEGIC>MOL_PROPERTY
Angle
SciTegic.value.DoubleValue
0.694

@<SCITEGIC>MOL_PROPERTY
Pdih
SciTegic.value.DoubleValue
6.570

@<SCITEGIC>MOL_PROPERTY
Idih
SciTegic.value.DoubleValue
0.000

@<SCITEGIC>MOL_PROPERTY
Tether
SciTegic.value.DoubleValue
0.000

@<TRIPOS>MOLECULE
guest-s16_confgen4.mol2 : confsearch ligand conformer 761
          13          13           1
SMALL
USER_CHARGES
 
@<TRIPOS>ATOM
       1    C1      18.368505   19.257975   22.341194 C.3        1 MOL1        -0.1693
       2    H1      18.039720   20.172949   21.830991 H          1 MOL1         0.0829
       3    H2      17.487390   18.747945   22.748433 H          1 MOL1         0.0829
       4    C2      19.566412   19.453471   23.328162 C.3        1 MOL1        -0.1768
       5    H3      19.615898   20.418827   23.843524 H          1 MOL1         0.0829
       6    H4      19.688598   18.652092   24.067384 H          1 MOL1         0.0829
       7    C3      20.470706   19.311582   22.066825 C.3        1 MOL1         0.1211
       8    H5      20.586015   20.244094   21.497451 H          1 MOL1         0.0786
       9    C4      19.357714   18.368722   21.517773 C.3        1 MOL1        -0.1768
      10    H6      19.220262   18.373861   20.430918 H          1 MOL1         0.0829
      11    H7      19.431801   17.328769   21.859535 H          1 MOL1         0.0829
      12    O1      21.721596   18.702564   22.287997 O.3        1 MOL1        -0.5515
      13    H8      22.118111   18.525056   21.407957 H          1 MOL1         0.3773
@<TRIPOS>BOND
    1     1     2    1
    2     1     3    1
    3     1     4    1
    4     4     5    1
    5     4     6    1
    6     4     7    1
    7     7     8    1
    8     1     9    1
    9     7     9    1
   10     9    10    1
   11     9    11    1
   12     7    12    1
   13    12    13    1
@<TRIPOS>SUBSTRUCTURE
       1 MOL1            1 RESIDUE      1      MOL     
@<SCITEGIC>MOL_PROPERTY
VConf Rank
SciTegic.value.IntegerValue
761

@<SCITEGIC>MOL_PROPERTY
Conf_Id
SciTegic.value.IntegerValue
22

@<SCITEGIC>MOL_PROPERTY
Delta U+W
SciTegic.value.DoubleValue
0.000

@<SCITEGIC>MOL_PROPERTY
U+W
SciTegic.value.DoubleValue
-3.131

@<SCITEGIC>MOL_PROPERTY
Grad RMS
SciTegic.value.DoubleValue
0.000000

@<SCITEGIC>MOL_PROPERTY
U
SciTegic.value.DoubleValue
-0.154

@<SCITEGIC>MOL_PROPERTY
W
SciTegic.value.DoubleValue
-2.978

@<SCITEGIC>MOL_PROPERTY
W(PB)
SciTegic.value.DoubleValue
-4.579

@<SCITEGIC>MOL_PROPERTY
W(SA)
SciTegic.value.DoubleValue
1.601

@<SCITEGIC>MOL_PROPERTY
Valence
SciTegic.value.DoubleValue
6.333

@<SCITEGIC>MOL_PROPERTY
Coulomb
SciTegic.value.DoubleValue
-7.439

@<SCITEGIC>MOL_PROPERTY
VdW
SciTegic.value.DoubleValue
0.952

@<SCITEGIC>MOL_PROPERTY
VdW6
SciTegic.value.DoubleValue
-2.120

@<SCITEGIC>MOL_PROPERTY
VdW12
SciTegic.value.DoubleValue
3.072

@<SCITEGIC>MOL_PROPERTY
Bond
SciTegic.value.DoubleValue
0.065

@<SCITEGIC>MOL_PROPERTY
Angle
SciTegic.value.DoubleValue
0.931

@<SCITEGIC>MOL_PROPERTY
Pdih
SciTegic.value.DoubleValue
5.338

@<SCITEGIC>MOL_PROPERTY
Idih
SciTegic.value.DoubleValue
0.000

@<SCITEGIC>MOL_PROPERTY
Tether
SciTegic.value.DoubleValue
0.000

@<TRIPOS>MOLECULE
guest-s16_confgen4.mol2 : confsearch ligand conformer 762
          13          13           1
SMALL
USER_CHARGES
 
@<TRIPOS>ATOM
       1    C1      19.142997   18.013594   21.425705 C.3        1 MOL1        -0.1693
       2    H1      18.341254   18.391811   20.777828 H          1 MOL1         0.0829
       3    H2      19.274825   16.942559   21.231170 H          1 MOL1         0.0829
       4    C2      19.020649   18.428910   22.928992 C.3        1 MOL1        -0.1768
       5    H3      19.601712   17.809952   23.624010 H          1 MOL1         0.0829
       6    H4      18.002267   18.535456   23.318503 H          1 MOL1         0.0829
       7    C3      19.724376   19.750176   22.495150 C.3        1 MOL1         0.1211
       8    H5      19.042897   20.499162   22.068924 H          1 MOL1         0.0786
       9    C4      20.447195   18.877522   21.425172 C.3        1 MOL1        -0.1768
      10    H6      21.342275   18.359103   21.790766 H          1 MOL1         0.0829
      11    H7      20.692157   19.382967   20.484704 H          1 MOL1         0.0829
      12    O1      20.564176   20.332325   23.464886 O.3        1 MOL1        -0.5515
      13    H8      19.985321   20.710844   24.161200 H          1 MOL1         0.3773
@<TRIPOS>BOND
    1     1     2    1
    2     1     3    1
    3     1     4    1
    4     4     5    1
    5     4     6    1
    6     4     7    1
    7     7     8    1
    8     1     9    1
    9     7     9    1
   10     9    10    1
   11     9    11    1
   12     7    12    1
   13    12    13    1
@<TRIPOS>SUBSTRUCTURE
       1 MOL1            1 RESIDUE      1      MOL     
@<SCITEGIC>MOL_PROPERTY
VConf Rank
SciTegic.value.IntegerValue
762

@<SCITEGIC>MOL_PROPERTY
Conf_Id
SciTegic.value.IntegerValue
19

@<SCITEGIC>MOL_PROPERTY
Delta U+W
SciTegic.value.DoubleValue
-0.011

@<SCITEGIC>MOL_PROPERTY
U+W
SciTegic.value.DoubleValue
-3.142

@<SCITEGIC>MOL_PROPERTY
Grad RMS
SciTegic.value.DoubleValue
0.000000

@<SCITEGIC>MOL_PROPERTY
U
SciTegic.value.DoubleValue
-0.154

@<SCITEGIC>MOL_PROPERTY
W
SciTegic.value.DoubleValue
-2.989

@<SCITEGIC>MOL_PROPERTY
W(PB)
SciTegic.value.DoubleValue
-4.588

@<SCITEGIC>MOL_PROPERTY
W(SA)
SciTegic.value.DoubleValue
1.599

@<SCITEGIC>MOL_PROPERTY
Valence
SciTegic.value.DoubleValue
6.334

@<SCITEGIC>MOL_PROPERTY
Coulomb
SciTegic.value.DoubleValue
-7.439

@<SCITEGIC>MOL_PROPERTY
VdW
SciTegic.value.DoubleValue
0.951

@<SCITEGIC>MOL_PROPERTY
VdW6
SciTegic.value.DoubleValue
-2.120

@<SCITEGIC>MOL_PROPERTY
VdW12
SciTegic.value.DoubleValue
3.072

@<SCITEGIC>MOL_PROPERTY
Bond
SciTegic.value.DoubleValue
0.065

@<SCITEGIC>MOL_PROPERTY
Angle
SciTegic.value.DoubleValue
0.930

@<SCITEGIC>MOL_PROPERTY
Pdih
SciTegic.value.DoubleValue
5.339

@<SCITEGIC>MOL_PROPERTY
Idih
SciTegic.value.DoubleValue
0.000

@<SCITEGIC>MOL_PROPERTY
Tether
SciTegic.value.DoubleValue
0.000

@<TRIPOS>MOLECULE
guest-s16_confgen4.mol2 : confsearch ligand conformer 763
          13          13           1
SMALL
USER_CHARGES
 
@<TRIPOS>ATOM
       1    C1      19.079368   18.830267   23.358143 C.3        1 MOL1        -0.1693
       2    H1      18.314067   18.235239   23.870230 H          1 MOL1         0.0829
       3    H2      19.610603   19.435798   24.104018 H          1 MOL1         0.0829
       4    C2      18.603951   19.624254   22.096186 C.3        1 MOL1        -0.1768
       5    H3      17.787976   19.147723   21.539529 H          1 MOL1         0.0829
       6    H4      18.349439   20.677540   22.258067 H          1 MOL1         0.0829
       7    C3      20.023529   19.352505   21.507645 C.3        1 MOL1         0.1211
       8    H5      20.044328   19.185032   20.423056 H          1 MOL1         0.0786
       9    C4      20.010038   18.051668   22.370046 C.3        1 MOL1        -0.1768
      10    H6      20.977839   17.732522   22.772363 H          1 MOL1         0.0829
      11    H7      19.534733   17.193213   21.880031 H          1 MOL1         0.0829
      12    O1      21.008820   20.299111   21.869974 O.3        1 MOL1        -0.5515
      13    H8      21.876999   19.934823   21.594811 H          1 MOL1         0.3773
@<TRIPOS>BOND
    1     1     2    1
    2     1     3    1
    3     1     4    1
    4     4     5    1
    5     4     6    1
    6     4     7    1
    7     7     8    1
    8     1     9    1
    9     7     9    1
   10     9    10    1
   11     9    11    1
   12     7    12    1
   13    12    13    1
@<TRIPOS>SUBSTRUCTURE
       1 MOL1            1 RESIDUE      1      MOL     
@<SCITEGIC>MOL_PROPERTY
VConf Rank
SciTegic.value.IntegerValue
763

@<SCITEGIC>MOL_PROPERTY
Conf_Id
SciTegic.value.IntegerValue
20

@<SCITEGIC>MOL_PROPERTY
Delta U+W
SciTegic.value.DoubleValue
1.030

@<SCITEGIC>MOL_PROPERTY
U+W
SciTegic.value.DoubleValue
-2.101

@<SCITEGIC>MOL_PROPERTY
Grad RMS
SciTegic.value.DoubleValue
0.000000

@<SCITEGIC>MOL_PROPERTY
U
SciTegic.value.DoubleValue
0.841

@<SCITEGIC>MOL_PROPERTY
W
SciTegic.value.DoubleValue
-2.942

@<SCITEGIC>MOL_PROPERTY
W(PB)
SciTegic.value.DoubleValue
-4.530

@<SCITEGIC>MOL_PROPERTY
W(SA)
SciTegic.value.DoubleValue
1.587

@<SCITEGIC>MOL_PROPERTY
Valence
SciTegic.value.DoubleValue
6.736

@<SCITEGIC>MOL_PROPERTY
Coulomb
SciTegic.value.DoubleValue
-7.246

@<SCITEGIC>MOL_PROPERTY
VdW
SciTegic.value.DoubleValue
1.352

@<SCITEGIC>MOL_PROPERTY
VdW6
SciTegic.value.DoubleValue
-2.500

@<SCITEGIC>MOL_PROPERTY
VdW12
SciTegic.value.DoubleValue
3.851

@<SCITEGIC>MOL_PROPERTY
Bond
SciTegic.value.DoubleValue
0.063

@<SCITEGIC>MOL_PROPERTY
Angle
SciTegic.value.DoubleValue
0.687

@<SCITEGIC>MOL_PROPERTY
Pdih
SciTegic.value.DoubleValue
5.986

@<SCITEGIC>MOL_PROPERTY
Idih
SciTegic.value.DoubleValue
0.000

@<SCITEGIC>MOL_PROPERTY
Tether
SciTegic.value.DoubleValue
0.000

@<TRIPOS>MOLECULE
guest-s16_confgen4.mol2 : confsearch ligand conformer 764
          13          13           1
SMALL
USER_CHARGES
 
@<TRIPOS>ATOM
       1    C1      19.952149   19.428279   21.039544 C.3        1 MOL1        -0.1693
       2    H1      20.442229   20.407546   20.958753 H          1 MOL1         0.0829
       3    H2      19.737973   19.059709   20.029243 H          1 MOL1         0.0829
       4    C2      18.765297   19.372901   22.057223 C.3        1 MOL1        -0.1768
       5    H3      18.182238   20.293742   22.168519 H          1 MOL1         0.0829
       6    H4      18.073860   18.534343   21.908483 H          1 MOL1         0.0829
       7    C3      19.863349   19.132533   23.136881 C.3        1 MOL1         0.1211
       8    H5      20.337168   20.054164   23.501280 H          1 MOL1         0.0786
       9    C4      20.660699   18.419863   22.003086 C.3        1 MOL1        -0.1768
      10    H6      20.392907   17.368290   21.842245 H          1 MOL1         0.0829
      11    H7      21.751567   18.499025   22.066572 H          1 MOL1         0.0829
      12    O1      19.481500   18.311860   24.215076 O.3        1 MOL1        -0.5515
      13    H8      19.067666   17.510581   23.831132 H          1 MOL1         0.3773
@<TRIPOS>BOND
    1     1     2    1
    2     1     3    1
    3     1     4    1
    4     4     5    1
    5     4     6    1
    6     4     7    1
    7     7     8    1
    8     1     9    1
    9     7     9    1
   10     9    10    1
   11     9    11    1
   12     7    12    1
   13    12    13    1
@<TRIPOS>SUBSTRUCTURE
       1 MOL1            1 RESIDUE      1      MOL     
@<SCITEGIC>MOL_PROPERTY
VConf Rank
SciTegic.value.IntegerValue
764

@<SCITEGIC>MOL_PROPERTY
Conf_Id
SciTegic.value.IntegerValue
24

@<SCITEGIC>MOL_PROPERTY
Delta U+W
SciTegic.value.DoubleValue
0.356

@<SCITEGIC>MOL_PROPERTY
U+W
SciTegic.value.DoubleValue
-2.775

@<SCITEGIC>MOL_PROPERTY
Grad RMS
SciTegic.value.DoubleValue
0.000000

@<SCITEGIC>MOL_PROPERTY
U
SciTegic.value.DoubleValue
-0.184

@<SCITEGIC>MOL_PROPERTY
W
SciTegic.value.DoubleValue
-2.591

@<SCITEGIC>MOL_PROPERTY
W(PB)
SciTegic.value.DoubleValue
-4.184

@<SCITEGIC>MOL_PROPERTY
W(SA)
SciTegic.value.DoubleValue
1.593

@<SCITEGIC>MOL_PROPERTY
Valence
SciTegic.value.DoubleValue
6.840

@<SCITEGIC>MOL_PROPERTY
Coulomb
SciTegic.value.DoubleValue
-7.916

@<SCITEGIC>MOL_PROPERTY
VdW
SciTegic.value.DoubleValue
0.893

@<SCITEGIC>MOL_PROPERTY
VdW6
SciTegic.value.DoubleValue
-2.167

@<SCITEGIC>MOL_PROPERTY
VdW12
SciTegic.value.DoubleValue
3.060

@<SCITEGIC>MOL_PROPERTY
Bond
SciTegic.value.DoubleValue
0.059

@<SCITEGIC>MOL_PROPERTY
Angle
SciTegic.value.DoubleValue
0.918

@<SCITEGIC>MOL_PROPERTY
Pdih
SciTegic.value.DoubleValue
5.862

@<SCITEGIC>MOL_PROPERTY
Idih
SciTegic.value.DoubleValue
0.000

@<SCITEGIC>MOL_PROPERTY
Tether
SciTegic.value.DoubleValue
0.000

@<TRIPOS>MOLECULE
guest-s16_confgen4.mol2 : confsearch ligand conformer 765
          13          13           1
SMALL
USER_CHARGES
 
@<TRIPOS>ATOM
       1    C1      20.284142   18.217382   21.618073 C.3        1 MOL1        -0.1693
       2    H1      20.369360   17.167571   21.313100 H          1 MOL1         0.0829
       3    H2      21.112657   18.777760   21.166593 H          1 MOL1         0.0829
       4    C2      20.074855   18.470400   23.148537 C.3        1 MOL1        -0.1768
       5    H3      19.530716   17.673247   23.669570 H          1 MOL1         0.0829
       6    H4      20.974237   18.712705   23.725692 H          1 MOL1         0.0829
       7    C3      19.184403   19.682166   22.732951 C.3        1 MOL1         0.1211
       8    H5      18.318921   19.862375   23.383299 H          1 MOL1         0.0786
       9    C4      18.872693   18.869716   21.438055 C.3        1 MOL1        -0.1768
      10    H6      18.033803   18.170469   21.539702 H          1 MOL1         0.0829
      11    H7      18.725695   19.459589   20.526381 H          1 MOL1         0.0829
      12    O1      19.887242   20.887382   22.520346 O.3        1 MOL1        -0.5515
      13    H8      20.643133   20.667210   21.937710 H          1 MOL1         0.3773
@<TRIPOS>BOND
    1     1     2    1
    2     1     3    1
    3     1     4    1
    4     4     5    1
    5     4     6    1
    6     4     7    1
    7     7     8    1
    8     1     9    1
    9     7     9    1
   10     9    10    1
   11     9    11    1
   12     7    12    1
   13    12    13    1
@<TRIPOS>SUBSTRUCTURE
       1 MOL1            1 RESIDUE      1      MOL     
@<SCITEGIC>MOL_PROPERTY
VConf Rank
SciTegic.value.IntegerValue
765

@<SCITEGIC>MOL_PROPERTY
Conf_Id
SciTegic.value.IntegerValue
44

@<SCITEGIC>MOL_PROPERTY
Delta U+W
SciTegic.value.DoubleValue
0.823

@<SCITEGIC>MOL_PROPERTY
U+W
SciTegic.value.DoubleValue
-2.308

@<SCITEGIC>MOL_PROPERTY
Grad RMS
SciTegic.value.DoubleValue
0.000000

@<SCITEGIC>MOL_PROPERTY
U
SciTegic.value.DoubleValue
0.039

@<SCITEGIC>MOL_PROPERTY
W
SciTegic.value.DoubleValue
-2.348

@<SCITEGIC>MOL_PROPERTY
W(PB)
SciTegic.value.DoubleValue
-3.918

@<SCITEGIC>MOL_PROPERTY
W(SA)
SciTegic.value.DoubleValue
1.571

@<SCITEGIC>MOL_PROPERTY
Valence
SciTegic.value.DoubleValue
7.320

@<SCITEGIC>MOL_PROPERTY
Coulomb
SciTegic.value.DoubleValue
-8.530

@<SCITEGIC>MOL_PROPERTY
VdW
SciTegic.value.DoubleValue
1.249

@<SCITEGIC>MOL_PROPERTY
VdW6
SciTegic.value.DoubleValue
-2.615

@<SCITEGIC>MOL_PROPERTY
VdW12
SciTegic.value.DoubleValue
3.864

@<SCITEGIC>MOL_PROPERTY
Bond
SciTegic.value.DoubleValue
0.056

@<SCITEGIC>MOL_PROPERTY
Angle
SciTegic.value.DoubleValue
0.694

@<SCITEGIC>MOL_PROPERTY
Pdih
SciTegic.value.DoubleValue
6.570

@<SCITEGIC>MOL_PROPERTY
Idih
SciTegic.value.DoubleValue
0.000

@<SCITEGIC>MOL_PROPERTY
Tether
SciTegic.value.DoubleValue
0.000

@<TRIPOS>MOLECULE
guest-s16_confgen4.mol2 : confsearch ligand conformer 766
          13          13           1
SMALL
USER_CHARGES
 
@<TRIPOS>ATOM
       1    C1      20.473995   19.873173   21.615106 C.3        1 MOL1        -0.1693
       2    H1      20.447671   20.896267   22.012813 H          1 MOL1         0.0829
       3    H2      21.223467   19.827018   20.816045 H          1 MOL1         0.0829
       4    C2      19.072269   19.265776   21.278148 C.3        1 MOL1        -0.1768
       5    H3      18.310125   19.971694   20.930616 H          1 MOL1         0.0829
       6    H4      19.095267   18.407020   20.595803 H          1 MOL1         0.0829
       7    C3      19.007754   18.888369   22.788860 C.3        1 MOL1         0.1211
       8    H5      18.668910   19.708861   23.436193 H          1 MOL1         0.0786
       9    C4      20.557766   18.750522   22.701368 C.3        1 MOL1        -0.1768
      10    H6      21.112064   19.001406   23.612402 H          1 MOL1         0.0829
      11    H7      20.908805   17.779452   22.330440 H          1 MOL1         0.0829
      12    O1      18.312518   17.699057   23.083359 O.3        1 MOL1        -0.5515
      13    H8      18.482116   17.489292   24.026990 H          1 MOL1         0.3773
@<TRIPOS>BOND
    1     1     2    1
    2     1     3    1
    3     1     4    1
    4     4     5    1
    5     4     6    1
    6     4     7    1
    7     7     8    1
    8     1     9    1
    9     7     9    1
   10     9    10    1
   11     9    11    1
   12     7    12    1
   13    12    13    1
@<TRIPOS>SUBSTRUCTURE
       1 MOL1            1 RESIDUE      1      MOL     
@<SCITEGIC>MOL_PROPERTY
VConf Rank
SciTegic.value.IntegerValue
766

@<SCITEGIC>MOL_PROPERTY
Conf_Id
SciTegic.value.IntegerValue
22

@<SCITEGIC>MOL_PROPERTY
Delta U+W
SciTegic.value.DoubleValue
0.000

@<SCITEGIC>MOL_PROPERTY
U+W
SciTegic.value.DoubleValue
-3.131

@<SCITEGIC>MOL_PROPERTY
Grad RMS
SciTegic.value.DoubleValue
0.000000

@<SCITEGIC>MOL_PROPERTY
U
SciTegic.value.DoubleValue
-0.154

@<SCITEGIC>MOL_PROPERTY
W
SciTegic.value.DoubleValue
-2.978

@<SCITEGIC>MOL_PROPERTY
W(PB)
SciTegic.value.DoubleValue
-4.579

@<SCITEGIC>MOL_PROPERTY
W(SA)
SciTegic.value.DoubleValue
1.601

@<SCITEGIC>MOL_PROPERTY
Valence
SciTegic.value.DoubleValue
6.333

@<SCITEGIC>MOL_PROPERTY
Coulomb
SciTegic.value.DoubleValue
-7.439

@<SCITEGIC>MOL_PROPERTY
VdW
SciTegic.value.DoubleValue
0.952

@<SCITEGIC>MOL_PROPERTY
VdW6
SciTegic.value.DoubleValue
-2.120

@<SCITEGIC>MOL_PROPERTY
VdW12
SciTegic.value.DoubleValue
3.072

@<SCITEGIC>MOL_PROPERTY
Bond
SciTegic.value.DoubleValue
0.065

@<SCITEGIC>MOL_PROPERTY
Angle
SciTegic.value.DoubleValue
0.931

@<SCITEGIC>MOL_PROPERTY
Pdih
SciTegic.value.DoubleValue
5.338

@<SCITEGIC>MOL_PROPERTY
Idih
SciTegic.value.DoubleValue
0.000

@<SCITEGIC>MOL_PROPERTY
Tether
SciTegic.value.DoubleValue
0.000

@<TRIPOS>MOLECULE
guest-s16_confgen4.mol2 : confsearch ligand conformer 767
          13          13           1
SMALL
USER_CHARGES
 
@<TRIPOS>ATOM
       1    C1      20.338452   19.915787   21.737672 C.3        1 MOL1        -0.1693
       2    H1      20.112747   20.891111   22.188656 H          1 MOL1         0.0829
       3    H2      21.073406   20.061575   20.937093 H          1 MOL1         0.0829
       4    C2      19.082751   19.058335   21.369813 C.3        1 MOL1        -0.1768
       5    H3      19.271013   18.258982   20.642224 H          1 MOL1         0.0829
       6    H4      18.192410   19.615800   21.058850 H          1 MOL1         0.0829
       7    C3      19.111460   18.598569   22.858768 C.3        1 MOL1         0.1211
       8    H5      18.625922   19.299721   23.551371 H          1 MOL1         0.0786
       9    C4      20.656596   18.778357   22.763508 C.3        1 MOL1        -0.1768
      10    H6      21.189366   17.916190   22.343497 H          1 MOL1         0.0829
      11    H7      21.158074   19.086593   23.687343 H          1 MOL1         0.0829
      12    O1      18.671704   17.280565   23.091214 O.3        1 MOL1        -0.5515
      13    H8      17.698198   17.272795   22.967002 H          1 MOL1         0.3773
@<TRIPOS>BOND
    1     1     2    1
    2     1     3    1
    3     1     4    1
    4     4     5    1
    5     4     6    1
    6     4     7    1
    7     7     8    1
    8     1     9    1
    9     7     9    1
   10     9    10    1
   11     9    11    1
   12     7    12    1
   13    12    13    1
@<TRIPOS>SUBSTRUCTURE
       1 MOL1            1 RESIDUE      1      MOL     
@<SCITEGIC>MOL_PROPERTY
VConf Rank
SciTegic.value.IntegerValue
767

@<SCITEGIC>MOL_PROPERTY
Conf_Id
SciTegic.value.IntegerValue
19

@<SCITEGIC>MOL_PROPERTY
Delta U+W
SciTegic.value.DoubleValue
-0.011

@<SCITEGIC>MOL_PROPERTY
U+W
SciTegic.value.DoubleValue
-3.142

@<SCITEGIC>MOL_PROPERTY
Grad RMS
SciTegic.value.DoubleValue
0.000000

@<SCITEGIC>MOL_PROPERTY
U
SciTegic.value.DoubleValue
-0.154

@<SCITEGIC>MOL_PROPERTY
W
SciTegic.value.DoubleValue
-2.989

@<SCITEGIC>MOL_PROPERTY
W(PB)
SciTegic.value.DoubleValue
-4.588

@<SCITEGIC>MOL_PROPERTY
W(SA)
SciTegic.value.DoubleValue
1.599

@<SCITEGIC>MOL_PROPERTY
Valence
SciTegic.value.DoubleValue
6.334

@<SCITEGIC>MOL_PROPERTY
Coulomb
SciTegic.value.DoubleValue
-7.439

@<SCITEGIC>MOL_PROPERTY
VdW
SciTegic.value.DoubleValue
0.951

@<SCITEGIC>MOL_PROPERTY
VdW6
SciTegic.value.DoubleValue
-2.120

@<SCITEGIC>MOL_PROPERTY
VdW12
SciTegic.value.DoubleValue
3.072

@<SCITEGIC>MOL_PROPERTY
Bond
SciTegic.value.DoubleValue
0.065

@<SCITEGIC>MOL_PROPERTY
Angle
SciTegic.value.DoubleValue
0.930

@<SCITEGIC>MOL_PROPERTY
Pdih
SciTegic.value.DoubleValue
5.339

@<SCITEGIC>MOL_PROPERTY
Idih
SciTegic.value.DoubleValue
0.000

@<SCITEGIC>MOL_PROPERTY
Tether
SciTegic.value.DoubleValue
0.000

@<TRIPOS>MOLECULE
guest-s16_confgen4.mol2 : confsearch ligand conformer 768
          13          13           1
SMALL
USER_CHARGES
 
@<TRIPOS>ATOM
       1    C1      20.448594   18.826269   21.386065 C.3        1 MOL1        -0.1693
       2    H1      21.353600   19.184629   20.881566 H          1 MOL1         0.0829
       3    H2      20.182855   17.843835   20.974466 H          1 MOL1         0.0829
       4    C2      19.258867   19.839596   21.467859 C.3        1 MOL1        -0.1768
       5    H3      19.560903   20.892462   21.522747 H          1 MOL1         0.0829
       6    H4      18.485297   19.736539   20.698859 H          1 MOL1         0.0829
       7    C3      18.929982   19.195825   22.850907 C.3        1 MOL1         0.1211
       8    H5      18.550024   19.898698   23.603512 H          1 MOL1         0.0786
       9    C4      20.458446   18.895484   22.949335 C.3        1 MOL1        -0.1768
      10    H6      20.733409   17.971185   23.469352 H          1 MOL1         0.0829
      11    H7      21.052040   19.719590   23.363424 H          1 MOL1         0.0829
      12    O1      18.099369   18.053523   22.792815 O.3        1 MOL1        -0.5515
      13    H8      18.108300   17.642061   23.683193 H          1 MOL1         0.3773
@<TRIPOS>BOND
    1     1     2    1
    2     1     3    1
    3     1     4    1
    4     4     5    1
    5     4     6    1
    6     4     7    1
    7     7     8    1
    8     1     9    1
    9     7     9    1
   10     9    10    1
   11     9    11    1
   12     7    12    1
   13    12    13    1
@<TRIPOS>SUBSTRUCTURE
       1 MOL1            1 RESIDUE      1      MOL     
@<SCITEGIC>MOL_PROPERTY
VConf Rank
SciTegic.value.IntegerValue
768

@<SCITEGIC>MOL_PROPERTY
Conf_Id
SciTegic.value.IntegerValue
20

@<SCITEGIC>MOL_PROPERTY
Delta U+W
SciTegic.value.DoubleValue
1.030

@<SCITEGIC>MOL_PROPERTY
U+W
SciTegic.value.DoubleValue
-2.101

@<SCITEGIC>MOL_PROPERTY
Grad RMS
SciTegic.value.DoubleValue
0.000000

@<SCITEGIC>MOL_PROPERTY
U
SciTegic.value.DoubleValue
0.841

@<SCITEGIC>MOL_PROPERTY
W
SciTegic.value.DoubleValue
-2.942

@<SCITEGIC>MOL_PROPERTY
W(PB)
SciTegic.value.DoubleValue
-4.530

@<SCITEGIC>MOL_PROPERTY
W(SA)
SciTegic.value.DoubleValue
1.587

@<SCITEGIC>MOL_PROPERTY
Valence
SciTegic.value.DoubleValue
6.736

@<SCITEGIC>MOL_PROPERTY
Coulomb
SciTegic.value.DoubleValue
-7.246

@<SCITEGIC>MOL_PROPERTY
VdW
SciTegic.value.DoubleValue
1.352

@<SCITEGIC>MOL_PROPERTY
VdW6
SciTegic.value.DoubleValue
-2.500

@<SCITEGIC>MOL_PROPERTY
VdW12
SciTegic.value.DoubleValue
3.851

@<SCITEGIC>MOL_PROPERTY
Bond
SciTegic.value.DoubleValue
0.063

@<SCITEGIC>MOL_PROPERTY
Angle
SciTegic.value.DoubleValue
0.687

@<SCITEGIC>MOL_PROPERTY
Pdih
SciTegic.value.DoubleValue
5.986

@<SCITEGIC>MOL_PROPERTY
Idih
SciTegic.value.DoubleValue
0.000

@<SCITEGIC>MOL_PROPERTY
Tether
SciTegic.value.DoubleValue
0.000

@<TRIPOS>MOLECULE
guest-s16_confgen4.mol2 : confsearch ligand conformer 769
          13          13           1
SMALL
USER_CHARGES
 
@<TRIPOS>ATOM
       1    C1      19.578688   18.571327   21.000288 C.3        1 MOL1        -0.1693
       2    H1      20.463345   18.253914   20.432573 H          1 MOL1         0.0829
       3    H2      18.697361   18.481432   20.354065 H          1 MOL1         0.0829
       4    C2      19.740316   19.931078   21.756799 C.3        1 MOL1        -0.1768
       5    H3      20.386342   20.675294   21.278169 H          1 MOL1         0.0829
       6    H4      18.795938   20.413402   22.037692 H          1 MOL1         0.0829
       7    C3      20.403781   19.084201   22.884527 C.3        1 MOL1         0.1211
       8    H5      21.468443   18.874068   22.714140 H          1 MOL1         0.0786
       9    C4      19.453737   17.937297   22.424981 C.3        1 MOL1        -0.1768
      10    H6      18.445304   17.973985   22.855220 H          1 MOL1         0.0829
      11    H7      19.846669   16.920700   22.536459 H          1 MOL1         0.0829
      12    O1      20.194839   19.553489   24.195224 O.3        1 MOL1        -0.5515
      13    H8      19.233842   19.722651   24.287898 H          1 MOL1         0.3773
@<TRIPOS>BOND
    1     1     2    1
    2     1     3    1
    3     1     4    1
    4     4     5    1
    5     4     6    1
    6     4     7    1
    7     7     8    1
    8     1     9    1
    9     7     9    1
   10     9    10    1
   11     9    11    1
   12     7    12    1
   13    12    13    1
@<TRIPOS>SUBSTRUCTURE
       1 MOL1            1 RESIDUE      1      MOL     
@<SCITEGIC>MOL_PROPERTY
VConf Rank
SciTegic.value.IntegerValue
769

@<SCITEGIC>MOL_PROPERTY
Conf_Id
SciTegic.value.IntegerValue
24

@<SCITEGIC>MOL_PROPERTY
Delta U+W
SciTegic.value.DoubleValue
0.356

@<SCITEGIC>MOL_PROPERTY
U+W
SciTegic.value.DoubleValue
-2.775

@<SCITEGIC>MOL_PROPERTY
Grad RMS
SciTegic.value.DoubleValue
0.000000

@<SCITEGIC>MOL_PROPERTY
U
SciTegic.value.DoubleValue
-0.184

@<SCITEGIC>MOL_PROPERTY
W
SciTegic.value.DoubleValue
-2.591

@<SCITEGIC>MOL_PROPERTY
W(PB)
SciTegic.value.DoubleValue
-4.184

@<SCITEGIC>MOL_PROPERTY
W(SA)
SciTegic.value.DoubleValue
1.593

@<SCITEGIC>MOL_PROPERTY
Valence
SciTegic.value.DoubleValue
6.840

@<SCITEGIC>MOL_PROPERTY
Coulomb
SciTegic.value.DoubleValue
-7.916

@<SCITEGIC>MOL_PROPERTY
VdW
SciTegic.value.DoubleValue
0.893

@<SCITEGIC>MOL_PROPERTY
VdW6
SciTegic.value.DoubleValue
-2.167

@<SCITEGIC>MOL_PROPERTY
VdW12
SciTegic.value.DoubleValue
3.060

@<SCITEGIC>MOL_PROPERTY
Bond
SciTegic.value.DoubleValue
0.059

@<SCITEGIC>MOL_PROPERTY
Angle
SciTegic.value.DoubleValue
0.918

@<SCITEGIC>MOL_PROPERTY
Pdih
SciTegic.value.DoubleValue
5.862

@<SCITEGIC>MOL_PROPERTY
Idih
SciTegic.value.DoubleValue
0.000

@<SCITEGIC>MOL_PROPERTY
Tether
SciTegic.value.DoubleValue
0.000

@<TRIPOS>MOLECULE
guest-s16_confgen4.mol2 : confsearch ligand conformer 770
          13          13           1
SMALL
USER_CHARGES
 
@<TRIPOS>ATOM
       1    C1      19.768166   18.336657   21.282680 C.3        1 MOL1        -0.1693
       2    H1      20.422470   17.975747   20.480181 H          1 MOL1         0.0829
       3    H2      18.768060   17.910641   21.132371 H          1 MOL1         0.0829
       4    C2      19.794029   19.879651   21.544671 C.3        1 MOL1        -0.1768
       5    H3      20.754796   20.360805   21.324598 H          1 MOL1         0.0829
       6    H4      18.996049   20.463442   21.072310 H          1 MOL1         0.0829
       7    C3      19.585627   19.534514   23.051801 C.3        1 MOL1         0.1211
       8    H5      20.106917   20.198742   23.752904 H          1 MOL1         0.0786
       9    C4      20.330224   18.200128   22.737185 C.3        1 MOL1        -0.1768
      10    H6      21.422458   18.269487   22.809499 H          1 MOL1         0.0829
      11    H7      19.998958   17.322036   23.302805 H          1 MOL1         0.0829
      12    O1      18.238229   19.382101   23.442974 O.3        1 MOL1        -0.5515
      13    H8      17.825872   18.784022   22.786029 H          1 MOL1         0.3773
@<TRIPOS>BOND
    1     1     2    1
    2     1     3    1
    3     1     4    1
    4     4     5    1
    5     4     6    1
    6     4     7    1
    7     7     8    1
    8     1     9    1
    9     7     9    1
   10     9    10    1
   11     9    11    1
   12     7    12    1
   13    12    13    1
@<TRIPOS>SUBSTRUCTURE
       1 MOL1            1 RESIDUE      1      MOL     
@<SCITEGIC>MOL_PROPERTY
VConf Rank
SciTegic.value.IntegerValue
770

@<SCITEGIC>MOL_PROPERTY
Conf_Id
SciTegic.value.IntegerValue
44

@<SCITEGIC>MOL_PROPERTY
Delta U+W
SciTegic.value.DoubleValue
0.823

@<SCITEGIC>MOL_PROPERTY
U+W
SciTegic.value.DoubleValue
-2.308

@<SCITEGIC>MOL_PROPERTY
Grad RMS
SciTegic.value.DoubleValue
0.000000

@<SCITEGIC>MOL_PROPERTY
U
SciTegic.value.DoubleValue
0.039

@<SCITEGIC>MOL_PROPERTY
W
SciTegic.value.DoubleValue
-2.348

@<SCITEGIC>MOL_PROPERTY
W(PB)
SciTegic.value.DoubleValue
-3.918

@<SCITEGIC>MOL_PROPERTY
W(SA)
SciTegic.value.DoubleValue
1.571

@<SCITEGIC>MOL_PROPERTY
Valence
SciTegic.value.DoubleValue
7.320

@<SCITEGIC>MOL_PROPERTY
Coulomb
SciTegic.value.DoubleValue
-8.530

@<SCITEGIC>MOL_PROPERTY
VdW
SciTegic.value.DoubleValue
1.249

@<SCITEGIC>MOL_PROPERTY
VdW6
SciTegic.value.DoubleValue
-2.615

@<SCITEGIC>MOL_PROPERTY
VdW12
SciTegic.value.DoubleValue
3.864

@<SCITEGIC>MOL_PROPERTY
Bond
SciTegic.value.DoubleValue
0.056

@<SCITEGIC>MOL_PROPERTY
Angle
SciTegic.value.DoubleValue
0.694

@<SCITEGIC>MOL_PROPERTY
Pdih
SciTegic.value.DoubleValue
6.570

@<SCITEGIC>MOL_PROPERTY
Idih
SciTegic.value.DoubleValue
0.000

@<SCITEGIC>MOL_PROPERTY
Tether
SciTegic.value.DoubleValue
0.000

@<TRIPOS>MOLECULE
guest-s16_confgen4.mol2 : confsearch ligand conformer 771
          13          13           1
SMALL
USER_CHARGES
 
@<TRIPOS>ATOM
       1    C1      18.782752   19.396694   21.335070 C.3        1 MOL1        -0.1693
       2    H1      17.882755   19.863669   21.756410 H          1 MOL1         0.0829
       3    H2      18.703534   19.406841   20.241471 H          1 MOL1         0.0829
       4    C2      19.173959   18.027507   21.982828 C.3        1 MOL1        -0.1768
       5    H3      18.344621   17.404675   22.335303 H          1 MOL1         0.0829
       6    H4      19.847857   17.408427   21.377694 H          1 MOL1         0.0829
       7    C3      19.887799   18.884681   23.071191 C.3        1 MOL1         0.1211
       8    H5      19.216134   19.243777   23.863011 H          1 MOL1         0.0786
       9    C4      20.131500   19.919116   21.931126 C.3        1 MOL1        -0.1768
      10    H6      20.148567   20.971216   22.236031 H          1 MOL1         0.0829
      11    H7      21.014756   19.716207   21.312676 H          1 MOL1         0.0829
      12    O1      21.050036   18.310996   23.623129 O.3        1 MOL1        -0.5515
      13    H8      21.488458   19.004098   24.162202 H          1 MOL1         0.3773
@<TRIPOS>BOND
    1     1     2    1
    2     1     3    1
    3     1     4    1
    4     4     5    1
    5     4     6    1
    6     4     7    1
    7     7     8    1
    8     1     9    1
    9     7     9    1
   10     9    10    1
   11     9    11    1
   12     7    12    1
   13    12    13    1
@<TRIPOS>SUBSTRUCTURE
       1 MOL1            1 RESIDUE      1      MOL     
@<SCITEGIC>MOL_PROPERTY
VConf Rank
SciTegic.value.IntegerValue
771

@<SCITEGIC>MOL_PROPERTY
Conf_Id
SciTegic.value.IntegerValue
22

@<SCITEGIC>MOL_PROPERTY
Delta U+W
SciTegic.value.DoubleValue
0.000

@<SCITEGIC>MOL_PROPERTY
U+W
SciTegic.value.DoubleValue
-3.131

@<SCITEGIC>MOL_PROPERTY
Grad RMS
SciTegic.value.DoubleValue
0.000000

@<SCITEGIC>MOL_PROPERTY
U
SciTegic.value.DoubleValue
-0.154

@<SCITEGIC>MOL_PROPERTY
W
SciTegic.value.DoubleValue
-2.978

@<SCITEGIC>MOL_PROPERTY
W(PB)
SciTegic.value.DoubleValue
-4.579

@<SCITEGIC>MOL_PROPERTY
W(SA)
SciTegic.value.DoubleValue
1.601

@<SCITEGIC>MOL_PROPERTY
Valence
SciTegic.value.DoubleValue
6.333

@<SCITEGIC>MOL_PROPERTY
Coulomb
SciTegic.value.DoubleValue
-7.439

@<SCITEGIC>MOL_PROPERTY
VdW
SciTegic.value.DoubleValue
0.952

@<SCITEGIC>MOL_PROPERTY
VdW6
SciTegic.value.DoubleValue
-2.120

@<SCITEGIC>MOL_PROPERTY
VdW12
SciTegic.value.DoubleValue
3.072

@<SCITEGIC>MOL_PROPERTY
Bond
SciTegic.value.DoubleValue
0.065

@<SCITEGIC>MOL_PROPERTY
Angle
SciTegic.value.DoubleValue
0.931

@<SCITEGIC>MOL_PROPERTY
Pdih
SciTegic.value.DoubleValue
5.338

@<SCITEGIC>MOL_PROPERTY
Idih
SciTegic.value.DoubleValue
0.000

@<SCITEGIC>MOL_PROPERTY
Tether
SciTegic.value.DoubleValue
0.000

@<TRIPOS>MOLECULE
guest-s16_confgen4.mol2 : confsearch ligand conformer 772
          13          13           1
SMALL
USER_CHARGES
 
@<TRIPOS>ATOM
       1    C1      20.498485   18.802885   23.231269 C.3        1 MOL1        -0.1693
       2    H1      21.240135   18.010837   23.063336 H          1 MOL1         0.0829
       3    H2      20.671080   19.240222   24.221867 H          1 MOL1         0.0829
       4    C2      19.022799   18.397365   22.906875 C.3        1 MOL1        -0.1768
       5    H3      18.260001   19.037774   23.367104 H          1 MOL1         0.0829
       6    H4      18.759702   17.349463   23.088135 H          1 MOL1         0.0829
       7    C3      19.374038   18.765164   21.433596 C.3        1 MOL1         0.1211
       8    H5      19.882710   17.962155   20.882696 H          1 MOL1         0.0786
       9    C4      20.345059   19.816879   22.049922 C.3        1 MOL1        -0.1768
      10    H6      19.871740   20.769087   22.319837 H          1 MOL1         0.0829
      11    H7      21.251172   20.025450   21.470768 H          1 MOL1         0.0829
      12    O1      18.312396   19.297098   20.675630 O.3        1 MOL1        -0.5515
      13    H8      17.692782   18.560001   20.485975 H          1 MOL1         0.3773
@<TRIPOS>BOND
    1     1     2    1
    2     1     3    1
    3     1     4    1
    4     4     5    1
    5     4     6    1
    6     4     7    1
    7     7     8    1
    8     1     9    1
    9     7     9    1
   10     9    10    1
   11     9    11    1
   12     7    12    1
   13    12    13    1
@<TRIPOS>SUBSTRUCTURE
       1 MOL1            1 RESIDUE      1      MOL     
@<SCITEGIC>MOL_PROPERTY
VConf Rank
SciTegic.value.IntegerValue
772

@<SCITEGIC>MOL_PROPERTY
Conf_Id
SciTegic.value.IntegerValue
19

@<SCITEGIC>MOL_PROPERTY
Delta U+W
SciTegic.value.DoubleValue
-0.011

@<SCITEGIC>MOL_PROPERTY
U+W
SciTegic.value.DoubleValue
-3.142

@<SCITEGIC>MOL_PROPERTY
Grad RMS
SciTegic.value.DoubleValue
0.000000

@<SCITEGIC>MOL_PROPERTY
U
SciTegic.value.DoubleValue
-0.154

@<SCITEGIC>MOL_PROPERTY
W
SciTegic.value.DoubleValue
-2.989

@<SCITEGIC>MOL_PROPERTY
W(PB)
SciTegic.value.DoubleValue
-4.588

@<SCITEGIC>MOL_PROPERTY
W(SA)
SciTegic.value.DoubleValue
1.599

@<SCITEGIC>MOL_PROPERTY
Valence
SciTegic.value.DoubleValue
6.334

@<SCITEGIC>MOL_PROPERTY
Coulomb
SciTegic.value.DoubleValue
-7.439

@<SCITEGIC>MOL_PROPERTY
VdW
SciTegic.value.DoubleValue
0.951

@<SCITEGIC>MOL_PROPERTY
VdW6
SciTegic.value.DoubleValue
-2.120

@<SCITEGIC>MOL_PROPERTY
VdW12
SciTegic.value.DoubleValue
3.072

@<SCITEGIC>MOL_PROPERTY
Bond
SciTegic.value.DoubleValue
0.065

@<SCITEGIC>MOL_PROPERTY
Angle
SciTegic.value.DoubleValue
0.930

@<SCITEGIC>MOL_PROPERTY
Pdih
SciTegic.value.DoubleValue
5.339

@<SCITEGIC>MOL_PROPERTY
Idih
SciTegic.value.DoubleValue
0.000

@<SCITEGIC>MOL_PROPERTY
Tether
SciTegic.value.DoubleValue
0.000

@<TRIPOS>MOLECULE
guest-s16_confgen4.mol2 : confsearch ligand conformer 773
          13          13           1
SMALL
USER_CHARGES
 
@<TRIPOS>ATOM
       1    C1      19.254881   18.044419   22.877084 C.3        1 MOL1        -0.1693
       2    H1      18.394465   17.406271   23.110380 H          1 MOL1         0.0829
       3    H2      20.159277   17.579364   23.290605 H          1 MOL1         0.0829
       4    C2      19.095279   19.564795   23.211684 C.3        1 MOL1        -0.1768
       5    H3      18.068990   19.943038   23.131519 H          1 MOL1         0.0829
       6    H4      19.516324   19.893767   24.168184 H          1 MOL1         0.0829
       7    C3      19.977168   19.837014   21.953274 C.3        1 MOL1         0.1211
       8    H5      19.703944   20.738584   21.389951 H          1 MOL1         0.0786
       9    C4      19.384606   18.508230   21.388208 C.3        1 MOL1        -0.1768
      10    H6      20.054540   17.914304   20.756709 H          1 MOL1         0.0829
      11    H7      18.427950   18.629835   20.865718 H          1 MOL1         0.0829
      12    O1      21.370939   19.817146   22.188118 O.3        1 MOL1        -0.5515
      13    H8      21.813323   19.822928   21.312665 H          1 MOL1         0.3773
@<TRIPOS>BOND
    1     1     2    1
    2     1     3    1
    3     1     4    1
    4     4     5    1
    5     4     6    1
    6     4     7    1
    7     7     8    1
    8     1     9    1
    9     7     9    1
   10     9    10    1
   11     9    11    1
   12     7    12    1
   13    12    13    1
@<TRIPOS>SUBSTRUCTURE
       1 MOL1            1 RESIDUE      1      MOL     
@<SCITEGIC>MOL_PROPERTY
VConf Rank
SciTegic.value.IntegerValue
773

@<SCITEGIC>MOL_PROPERTY
Conf_Id
SciTegic.value.IntegerValue
20

@<SCITEGIC>MOL_PROPERTY
Delta U+W
SciTegic.value.DoubleValue
1.030

@<SCITEGIC>MOL_PROPERTY
U+W
SciTegic.value.DoubleValue
-2.101

@<SCITEGIC>MOL_PROPERTY
Grad RMS
SciTegic.value.DoubleValue
0.000000

@<SCITEGIC>MOL_PROPERTY
U
SciTegic.value.DoubleValue
0.841

@<SCITEGIC>MOL_PROPERTY
W
SciTegic.value.DoubleValue
-2.942

@<SCITEGIC>MOL_PROPERTY
W(PB)
SciTegic.value.DoubleValue
-4.530

@<SCITEGIC>MOL_PROPERTY
W(SA)
SciTegic.value.DoubleValue
1.587

@<SCITEGIC>MOL_PROPERTY
Valence
SciTegic.value.DoubleValue
6.736

@<SCITEGIC>MOL_PROPERTY
Coulomb
SciTegic.value.DoubleValue
-7.246

@<SCITEGIC>MOL_PROPERTY
VdW
SciTegic.value.DoubleValue
1.352

@<SCITEGIC>MOL_PROPERTY
VdW6
SciTegic.value.DoubleValue
-2.500

@<SCITEGIC>MOL_PROPERTY
VdW12
SciTegic.value.DoubleValue
3.851

@<SCITEGIC>MOL_PROPERTY
Bond
SciTegic.value.DoubleValue
0.063

@<SCITEGIC>MOL_PROPERTY
Angle
SciTegic.value.DoubleValue
0.687

@<SCITEGIC>MOL_PROPERTY
Pdih
SciTegic.value.DoubleValue
5.986

@<SCITEGIC>MOL_PROPERTY
Idih
SciTegic.value.DoubleValue
0.000

@<SCITEGIC>MOL_PROPERTY
Tether
SciTegic.value.DoubleValue
0.000

@<TRIPOS>MOLECULE
guest-s16_confgen4.mol2 : confsearch ligand conformer 774
          13          13           1
SMALL
USER_CHARGES
 
@<TRIPOS>ATOM
       1    C1      18.475530   18.953100   22.375327 C.3        1 MOL1        -0.1693
       2    H1      17.977689   17.988946   22.543352 H          1 MOL1         0.0829
       3    H2      17.717332   19.745198   22.387081 H          1 MOL1         0.0829
       4    C2      19.471817   18.973300   21.169359 C.3        1 MOL1        -0.1768
       5    H3      19.215898   18.328137   20.321678 H          1 MOL1         0.0829
       6    H4      19.710770   19.974514   20.790070 H          1 MOL1         0.0829
       7    C3      20.509320   18.389343   22.175210 C.3        1 MOL1         0.1211
       8    H5      20.440954   17.300287   22.301611 H          1 MOL1         0.0786
       9    C4      19.740420   19.199360   23.262325 C.3        1 MOL1        -0.1768
      10    H6      20.039409   20.251101   23.350840 H          1 MOL1         0.0829
      11    H7      19.721722   18.753842   24.263053 H          1 MOL1         0.0829
      12    O1      21.844648   18.780596   21.961581 O.3        1 MOL1        -0.5515
      13    H8      21.843094   19.755114   21.856549 H          1 MOL1         0.3773
@<TRIPOS>BOND
    1     1     2    1
    2     1     3    1
    3     1     4    1
    4     4     5    1
    5     4     6    1
    6     4     7    1
    7     7     8    1
    8     1     9    1
    9     7     9    1
   10     9    10    1
   11     9    11    1
   12     7    12    1
   13    12    13    1
@<TRIPOS>SUBSTRUCTURE
       1 MOL1            1 RESIDUE      1      MOL     
@<SCITEGIC>MOL_PROPERTY
VConf Rank
SciTegic.value.IntegerValue
774

@<SCITEGIC>MOL_PROPERTY
Conf_Id
SciTegic.value.IntegerValue
24

@<SCITEGIC>MOL_PROPERTY
Delta U+W
SciTegic.value.DoubleValue
0.356

@<SCITEGIC>MOL_PROPERTY
U+W
SciTegic.value.DoubleValue
-2.775

@<SCITEGIC>MOL_PROPERTY
Grad RMS
SciTegic.value.DoubleValue
0.000000

@<SCITEGIC>MOL_PROPERTY
U
SciTegic.value.DoubleValue
-0.184

@<SCITEGIC>MOL_PROPERTY
W
SciTegic.value.DoubleValue
-2.591

@<SCITEGIC>MOL_PROPERTY
W(PB)
SciTegic.value.DoubleValue
-4.184

@<SCITEGIC>MOL_PROPERTY
W(SA)
SciTegic.value.DoubleValue
1.593

@<SCITEGIC>MOL_PROPERTY
Valence
SciTegic.value.DoubleValue
6.840

@<SCITEGIC>MOL_PROPERTY
Coulomb
SciTegic.value.DoubleValue
-7.916

@<SCITEGIC>MOL_PROPERTY
VdW
SciTegic.value.DoubleValue
0.893

@<SCITEGIC>MOL_PROPERTY
VdW6
SciTegic.value.DoubleValue
-2.167

@<SCITEGIC>MOL_PROPERTY
VdW12
SciTegic.value.DoubleValue
3.060

@<SCITEGIC>MOL_PROPERTY
Bond
SciTegic.value.DoubleValue
0.059

@<SCITEGIC>MOL_PROPERTY
Angle
SciTegic.value.DoubleValue
0.918

@<SCITEGIC>MOL_PROPERTY
Pdih
SciTegic.value.DoubleValue
5.862

@<SCITEGIC>MOL_PROPERTY
Idih
SciTegic.value.DoubleValue
0.000

@<SCITEGIC>MOL_PROPERTY
Tether
SciTegic.value.DoubleValue
0.000

@<TRIPOS>MOLECULE
guest-s16_confgen4.mol2 : confsearch ligand conformer 775
          13          13           1
SMALL
USER_CHARGES
 
@<TRIPOS>ATOM
       1    C1      20.283868   19.827083   21.780734 C.3        1 MOL1        -0.1693
       2    H1      20.338499   20.913719   21.644312 H          1 MOL1         0.0829
       3    H2      21.164463   19.373775   21.308124 H          1 MOL1         0.0829
       4    C2      18.918713   19.158446   21.407352 C.3        1 MOL1        -0.1768
       5    H3      18.043131   19.802264   21.555231 H          1 MOL1         0.0829
       6    H4      18.856967   18.710685   20.409150 H          1 MOL1         0.0829
       7    C3      19.186686   18.168700   22.583186 C.3        1 MOL1         0.1211
       8    H5      18.291653   17.858800   23.137590 H          1 MOL1         0.0786
       9    C4      19.991376   19.334266   23.237345 C.3        1 MOL1        -0.1768
      10    H6      19.378796   20.021193   23.833911 H          1 MOL1         0.0829
      11    H7      20.863291   19.039543   23.831997 H          1 MOL1         0.0829
      12    O1      19.957384   17.037299   22.240133 O.3        1 MOL1        -0.5515
      13    H8      20.737031   17.372199   21.750943 H          1 MOL1         0.3773
@<TRIPOS>BOND
    1     1     2    1
    2     1     3    1
    3     1     4    1
    4     4     5    1
    5     4     6    1
    6     4     7    1
    7     7     8    1
    8     1     9    1
    9     7     9    1
   10     9    10    1
   11     9    11    1
   12     7    12    1
   13    12    13    1
@<TRIPOS>SUBSTRUCTURE
       1 MOL1            1 RESIDUE      1      MOL     
@<SCITEGIC>MOL_PROPERTY
VConf Rank
SciTegic.value.IntegerValue
775

@<SCITEGIC>MOL_PROPERTY
Conf_Id
SciTegic.value.IntegerValue
44

@<SCITEGIC>MOL_PROPERTY
Delta U+W
SciTegic.value.DoubleValue
0.823

@<SCITEGIC>MOL_PROPERTY
U+W
SciTegic.value.DoubleValue
-2.308

@<SCITEGIC>MOL_PROPERTY
Grad RMS
SciTegic.value.DoubleValue
0.000000

@<SCITEGIC>MOL_PROPERTY
U
SciTegic.value.DoubleValue
0.039

@<SCITEGIC>MOL_PROPERTY
W
SciTegic.value.DoubleValue
-2.348

@<SCITEGIC>MOL_PROPERTY
W(PB)
SciTegic.value.DoubleValue
-3.918

@<SCITEGIC>MOL_PROPERTY
W(SA)
SciTegic.value.DoubleValue
1.571

@<SCITEGIC>MOL_PROPERTY
Valence
SciTegic.value.DoubleValue
7.320

@<SCITEGIC>MOL_PROPERTY
Coulomb
SciTegic.value.DoubleValue
-8.530

@<SCITEGIC>MOL_PROPERTY
VdW
SciTegic.value.DoubleValue
1.249

@<SCITEGIC>MOL_PROPERTY
VdW6
SciTegic.value.DoubleValue
-2.615

@<SCITEGIC>MOL_PROPERTY
VdW12
SciTegic.value.DoubleValue
3.864

@<SCITEGIC>MOL_PROPERTY
Bond
SciTegic.value.DoubleValue
0.056

@<SCITEGIC>MOL_PROPERTY
Angle
SciTegic.value.DoubleValue
0.694

@<SCITEGIC>MOL_PROPERTY
Pdih
SciTegic.value.DoubleValue
6.570

@<SCITEGIC>MOL_PROPERTY
Idih
SciTegic.value.DoubleValue
0.000

@<SCITEGIC>MOL_PROPERTY
Tether
SciTegic.value.DoubleValue
0.000

@<TRIPOS>MOLECULE
guest-s16_confgen4.mol2 : confsearch ligand conformer 776
          13          13           1
SMALL
USER_CHARGES
 
@<TRIPOS>ATOM
       1    C1      19.149507   18.817314   21.055642 C.3        1 MOL1        -0.1693
       2    H1      19.888409   18.485031   20.314562 H          1 MOL1         0.0829
       3    H2      18.158202   18.816067   20.586973 H          1 MOL1         0.0829
       4    C2      19.540662   20.117866   21.832088 C.3        1 MOL1        -0.1768
       5    H3      20.131542   20.853872   21.276104 H          1 MOL1         0.0829
       6    H4      18.702727   20.632638   22.318359 H          1 MOL1         0.0829
       7    C3      20.347532   19.169835   22.769662 C.3        1 MOL1         0.1211
       8    H5      21.344827   18.912481   22.387257 H          1 MOL1         0.0786
       9    C4      19.252871   18.108506   22.446409 C.3        1 MOL1        -0.1768
      10    H6      19.587772   17.065521   22.432394 H          1 MOL1         0.0829
      11    H7      18.350276   18.181384   23.065928 H          1 MOL1         0.0829
      12    O1      20.417278   19.572440   24.117842 O.3        1 MOL1        -0.5515
      13    H8      20.801123   18.824952   24.624921 H          1 MOL1         0.3773
@<TRIPOS>BOND
    1     1     2    1
    2     1     3    1
    3     1     4    1
    4     4     5    1
    5     4     6    1
    6     4     7    1
    7     7     8    1
    8     1     9    1
    9     7     9    1
   10     9    10    1
   11     9    11    1
   12     7    12    1
   13    12    13    1
@<TRIPOS>SUBSTRUCTURE
       1 MOL1            1 RESIDUE      1      MOL     
@<SCITEGIC>MOL_PROPERTY
VConf Rank
SciTegic.value.IntegerValue
776

@<SCITEGIC>MOL_PROPERTY
Conf_Id
SciTegic.value.IntegerValue
22

@<SCITEGIC>MOL_PROPERTY
Delta U+W
SciTegic.value.DoubleValue
0.000

@<SCITEGIC>MOL_PROPERTY
U+W
SciTegic.value.DoubleValue
-3.131

@<SCITEGIC>MOL_PROPERTY
Grad RMS
SciTegic.value.DoubleValue
0.000000

@<SCITEGIC>MOL_PROPERTY
U
SciTegic.value.DoubleValue
-0.154

@<SCITEGIC>MOL_PROPERTY
W
SciTegic.value.DoubleValue
-2.978

@<SCITEGIC>MOL_PROPERTY
W(PB)
SciTegic.value.DoubleValue
-4.579

@<SCITEGIC>MOL_PROPERTY
W(SA)
SciTegic.value.DoubleValue
1.601

@<SCITEGIC>MOL_PROPERTY
Valence
SciTegic.value.DoubleValue
6.333

@<SCITEGIC>MOL_PROPERTY
Coulomb
SciTegic.value.DoubleValue
-7.439

@<SCITEGIC>MOL_PROPERTY
VdW
SciTegic.value.DoubleValue
0.952

@<SCITEGIC>MOL_PROPERTY
VdW6
SciTegic.value.DoubleValue
-2.120

@<SCITEGIC>MOL_PROPERTY
VdW12
SciTegic.value.DoubleValue
3.072

@<SCITEGIC>MOL_PROPERTY
Bond
SciTegic.value.DoubleValue
0.065

@<SCITEGIC>MOL_PROPERTY
Angle
SciTegic.value.DoubleValue
0.931

@<SCITEGIC>MOL_PROPERTY
Pdih
SciTegic.value.DoubleValue
5.338

@<SCITEGIC>MOL_PROPERTY
Idih
SciTegic.value.DoubleValue
0.000

@<SCITEGIC>MOL_PROPERTY
Tether
SciTegic.value.DoubleValue
0.000

@<TRIPOS>MOLECULE
guest-s16_confgen4.mol2 : confsearch ligand conformer 777
          13          13           1
SMALL
USER_CHARGES
 
@<TRIPOS>ATOM
       1    C1      20.530425   19.888181   22.301863 C.3        1 MOL1        -0.1693
       2    H1      20.761522   20.211202   23.325502 H          1 MOL1         0.0829
       3    H2      21.095966   20.513661   21.600952 H          1 MOL1         0.0829
       4    C2      19.005207   19.720899   21.996810 C.3        1 MOL1        -0.1768
       5    H3      18.748337   19.724010   20.930132 H          1 MOL1         0.0829
       6    H4      18.330216   20.403900   22.524133 H          1 MOL1         0.0829
       7    C3      19.160261   18.301357   22.621350 C.3        1 MOL1         0.1211
       8    H5      19.103740   18.288316   23.718481 H          1 MOL1         0.0786
       9    C4      20.616512   18.343796   22.067836 C.3        1 MOL1        -0.1768
      10    H6      20.712296   18.042586   21.017273 H          1 MOL1         0.0829
      11    H7      21.366335   17.806176   22.658336 H          1 MOL1         0.0829
      12    O1      18.333680   17.304929   22.065971 O.3        1 MOL1        -0.5515
      13    H8      17.417602   17.485368   22.368370 H          1 MOL1         0.3773
@<TRIPOS>BOND
    1     1     2    1
    2     1     3    1
    3     1     4    1
    4     4     5    1
    5     4     6    1
    6     4     7    1
    7     7     8    1
    8     1     9    1
    9     7     9    1
   10     9    10    1
   11     9    11    1
   12     7    12    1
   13    12    13    1
@<TRIPOS>SUBSTRUCTURE
       1 MOL1            1 RESIDUE      1      MOL     
@<SCITEGIC>MOL_PROPERTY
VConf Rank
SciTegic.value.IntegerValue
777

@<SCITEGIC>MOL_PROPERTY
Conf_Id
SciTegic.value.IntegerValue
19

@<SCITEGIC>MOL_PROPERTY
Delta U+W
SciTegic.value.DoubleValue
-0.011

@<SCITEGIC>MOL_PROPERTY
U+W
SciTegic.value.DoubleValue
-3.142

@<SCITEGIC>MOL_PROPERTY
Grad RMS
SciTegic.value.DoubleValue
0.000000

@<SCITEGIC>MOL_PROPERTY
U
SciTegic.value.DoubleValue
-0.154

@<SCITEGIC>MOL_PROPERTY
W
SciTegic.value.DoubleValue
-2.989

@<SCITEGIC>MOL_PROPERTY
W(PB)
SciTegic.value.DoubleValue
-4.588

@<SCITEGIC>MOL_PROPERTY
W(SA)
SciTegic.value.DoubleValue
1.599

@<SCITEGIC>MOL_PROPERTY
Valence
SciTegic.value.DoubleValue
6.334

@<SCITEGIC>MOL_PROPERTY
Coulomb
SciTegic.value.DoubleValue
-7.439

@<SCITEGIC>MOL_PROPERTY
VdW
SciTegic.value.DoubleValue
0.951

@<SCITEGIC>MOL_PROPERTY
VdW6
SciTegic.value.DoubleValue
-2.120

@<SCITEGIC>MOL_PROPERTY
VdW12
SciTegic.value.DoubleValue
3.072

@<SCITEGIC>MOL_PROPERTY
Bond
SciTegic.value.DoubleValue
0.065

@<SCITEGIC>MOL_PROPERTY
Angle
SciTegic.value.DoubleValue
0.930

@<SCITEGIC>MOL_PROPERTY
Pdih
SciTegic.value.DoubleValue
5.339

@<SCITEGIC>MOL_PROPERTY
Idih
SciTegic.value.DoubleValue
0.000

@<SCITEGIC>MOL_PROPERTY
Tether
SciTegic.value.DoubleValue
0.000

@<TRIPOS>MOLECULE
guest-s16_confgen4.mol2 : confsearch ligand conformer 778
          13          13           1
SMALL
USER_CHARGES
 
@<TRIPOS>ATOM
       1    C1      20.476595   19.669352   22.933077 C.3        1 MOL1        -0.1693
       2    H1      21.273419   20.421224   22.891385 H          1 MOL1         0.0829
       3    H2      20.322096   19.379236   23.980536 H          1 MOL1         0.0829
       4    C2      20.610975   18.467889   21.939397 C.3        1 MOL1        -0.1768
       5    H3      21.112916   18.712135   20.995382 H          1 MOL1         0.0829
       6    H4      21.056733   17.553834   22.347070 H          1 MOL1         0.0829
       7    C3      19.052608   18.484186   21.857829 C.3        1 MOL1         0.1211
       8    H5      18.643946   18.235175   20.870002 H          1 MOL1         0.0786
       9    C4      19.164295   20.012760   22.152924 C.3        1 MOL1        -0.1768
      10    H6      18.352458   20.447540   22.746421 H          1 MOL1         0.0829
      11    H7      19.315694   20.632258   21.260582 H          1 MOL1         0.0829
      12    O1      18.396786   17.729368   22.856975 O.3        1 MOL1        -0.5515
      13    H8      17.443168   17.954736   22.812518 H          1 MOL1         0.3773
@<TRIPOS>BOND
    1     1     2    1
    2     1     3    1
    3     1     4    1
    4     4     5    1
    5     4     6    1
    6     4     7    1
    7     7     8    1
    8     1     9    1
    9     7     9    1
   10     9    10    1
   11     9    11    1
   12     7    12    1
   13    12    13    1
@<TRIPOS>SUBSTRUCTURE
       1 MOL1            1 RESIDUE      1      MOL     
@<SCITEGIC>MOL_PROPERTY
VConf Rank
SciTegic.value.IntegerValue
778

@<SCITEGIC>MOL_PROPERTY
Conf_Id
SciTegic.value.IntegerValue
20

@<SCITEGIC>MOL_PROPERTY
Delta U+W
SciTegic.value.DoubleValue
1.030

@<SCITEGIC>MOL_PROPERTY
U+W
SciTegic.value.DoubleValue
-2.101

@<SCITEGIC>MOL_PROPERTY
Grad RMS
SciTegic.value.DoubleValue
0.000000

@<SCITEGIC>MOL_PROPERTY
U
SciTegic.value.DoubleValue
0.841

@<SCITEGIC>MOL_PROPERTY
W
SciTegic.value.DoubleValue
-2.942

@<SCITEGIC>MOL_PROPERTY
W(PB)
SciTegic.value.DoubleValue
-4.530

@<SCITEGIC>MOL_PROPERTY
W(SA)
SciTegic.value.DoubleValue
1.587

@<SCITEGIC>MOL_PROPERTY
Valence
SciTegic.value.DoubleValue
6.736

@<SCITEGIC>MOL_PROPERTY
Coulomb
SciTegic.value.DoubleValue
-7.246

@<SCITEGIC>MOL_PROPERTY
VdW
SciTegic.value.DoubleValue
1.352

@<SCITEGIC>MOL_PROPERTY
VdW6
SciTegic.value.DoubleValue
-2.500

@<SCITEGIC>MOL_PROPERTY
VdW12
SciTegic.value.DoubleValue
3.851

@<SCITEGIC>MOL_PROPERTY
Bond
SciTegic.value.DoubleValue
0.063

@<SCITEGIC>MOL_PROPERTY
Angle
SciTegic.value.DoubleValue
0.687

@<SCITEGIC>MOL_PROPERTY
Pdih
SciTegic.value.DoubleValue
5.986

@<SCITEGIC>MOL_PROPERTY
Idih
SciTegic.value.DoubleValue
0.000

@<SCITEGIC>MOL_PROPERTY
Tether
SciTegic.value.DoubleValue
0.000

@<TRIPOS>MOLECULE
guest-s16_confgen4.mol2 : confsearch ligand conformer 779
          13          13           1
SMALL
USER_CHARGES
 
@<TRIPOS>ATOM
       1    C1      19.252569   20.132626   22.124456 C.3        1 MOL1        -0.1693
       2    H1      19.641690   20.905994   22.799850 H          1 MOL1         0.0829
       3    H2      18.479002   20.579982   21.488934 H          1 MOL1         0.0829
       4    C2      18.873690   18.784937   22.822697 C.3        1 MOL1        -0.1768
       5    H3      18.498117   18.862551   23.848959 H          1 MOL1         0.0829
       6    H4      18.192946   18.146539   22.246135 H          1 MOL1         0.0829
       7    C3      20.384171   18.428220   22.680018 C.3        1 MOL1         0.1211
       8    H5      21.015791   18.843563   23.477038 H          1 MOL1         0.0786
       9    C4      20.349705   19.296699   21.386299 C.3        1 MOL1        -0.1768
      10    H6      19.998868   18.772687   20.488683 H          1 MOL1         0.0829
      11    H7      21.277677   19.826275   21.144001 H          1 MOL1         0.0829
      12    O1      20.666972   17.063113   22.484255 O.3        1 MOL1        -0.5515
      13    H8      20.077404   16.749653   21.766710 H          1 MOL1         0.3773
@<TRIPOS>BOND
    1     1     2    1
    2     1     3    1
    3     1     4    1
    4     4     5    1
    5     4     6    1
    6     4     7    1
    7     7     8    1
    8     1     9    1
    9     7     9    1
   10     9    10    1
   11     9    11    1
   12     7    12    1
   13    12    13    1
@<TRIPOS>SUBSTRUCTURE
       1 MOL1            1 RESIDUE      1      MOL     
@<SCITEGIC>MOL_PROPERTY
VConf Rank
SciTegic.value.IntegerValue
779

@<SCITEGIC>MOL_PROPERTY
Conf_Id
SciTegic.value.IntegerValue
24

@<SCITEGIC>MOL_PROPERTY
Delta U+W
SciTegic.value.DoubleValue
0.356

@<SCITEGIC>MOL_PROPERTY
U+W
SciTegic.value.DoubleValue
-2.775

@<SCITEGIC>MOL_PROPERTY
Grad RMS
SciTegic.value.DoubleValue
0.000000

@<SCITEGIC>MOL_PROPERTY
U
SciTegic.value.DoubleValue
-0.184

@<SCITEGIC>MOL_PROPERTY
W
SciTegic.value.DoubleValue
-2.591

@<SCITEGIC>MOL_PROPERTY
W(PB)
SciTegic.value.DoubleValue
-4.184

@<SCITEGIC>MOL_PROPERTY
W(SA)
SciTegic.value.DoubleValue
1.593

@<SCITEGIC>MOL_PROPERTY
Valence
SciTegic.value.DoubleValue
6.840

@<SCITEGIC>MOL_PROPERTY
Coulomb
SciTegic.value.DoubleValue
-7.916

@<SCITEGIC>MOL_PROPERTY
VdW
SciTegic.value.DoubleValue
0.893

@<SCITEGIC>MOL_PROPERTY
VdW6
SciTegic.value.DoubleValue
-2.167

@<SCITEGIC>MOL_PROPERTY
VdW12
SciTegic.value.DoubleValue
3.060

@<SCITEGIC>MOL_PROPERTY
Bond
SciTegic.value.DoubleValue
0.059

@<SCITEGIC>MOL_PROPERTY
Angle
SciTegic.value.DoubleValue
0.918

@<SCITEGIC>MOL_PROPERTY
Pdih
SciTegic.value.DoubleValue
5.862

@<SCITEGIC>MOL_PROPERTY
Idih
SciTegic.value.DoubleValue
0.000

@<SCITEGIC>MOL_PROPERTY
Tether
SciTegic.value.DoubleValue
0.000

@<TRIPOS>MOLECULE
guest-s16_confgen4.mol2 : confsearch ligand conformer 780
          13          13           1
SMALL
USER_CHARGES
 
@<TRIPOS>ATOM
       1    C1      19.550102   18.044193   22.831548 C.3        1 MOL1        -0.1693
       2    H1      19.837632   16.996372   22.979100 H          1 MOL1         0.0829
       3    H2      18.820167   18.315436   23.604800 H          1 MOL1         0.0829
       4    C2      19.143848   18.443372   21.373552 C.3        1 MOL1        -0.1768
       5    H3      19.650608   17.869107   20.588422 H          1 MOL1         0.0829
       6    H4      18.069668   18.455784   21.157468 H          1 MOL1         0.0829
       7    C3      19.795832   19.829486   21.669517 C.3        1 MOL1         0.1211
       8    H5      20.307662   20.289796   20.814747 H          1 MOL1         0.0786
       9    C4      20.728887   19.058626   22.653986 C.3        1 MOL1        -0.1768
      10    H6      21.624274   18.635211   22.182800 H          1 MOL1         0.0829
      11    H7      21.034349   19.606562   23.552410 H          1 MOL1         0.0829
      12    O1      18.937649   20.768516   22.280641 O.3        1 MOL1        -0.5515
      13    H8      18.511179   20.305510   23.031016 H          1 MOL1         0.3773
@<TRIPOS>BOND
    1     1     2    1
    2     1     3    1
    3     1     4    1
    4     4     5    1
    5     4     6    1
    6     4     7    1
    7     7     8    1
    8     1     9    1
    9     7     9    1
   10     9    10    1
   11     9    11    1
   12     7    12    1
   13    12    13    1
@<TRIPOS>SUBSTRUCTURE
       1 MOL1            1 RESIDUE      1      MOL     
@<SCITEGIC>MOL_PROPERTY
VConf Rank
SciTegic.value.IntegerValue
780

@<SCITEGIC>MOL_PROPERTY
Conf_Id
SciTegic.value.IntegerValue
44

@<SCITEGIC>MOL_PROPERTY
Delta U+W
SciTegic.value.DoubleValue
0.823

@<SCITEGIC>MOL_PROPERTY
U+W
SciTegic.value.DoubleValue
-2.308

@<SCITEGIC>MOL_PROPERTY
Grad RMS
SciTegic.value.DoubleValue
0.000000

@<SCITEGIC>MOL_PROPERTY
U
SciTegic.value.DoubleValue
0.039

@<SCITEGIC>MOL_PROPERTY
W
SciTegic.value.DoubleValue
-2.348

@<SCITEGIC>MOL_PROPERTY
W(PB)
SciTegic.value.DoubleValue
-3.918

@<SCITEGIC>MOL_PROPERTY
W(SA)
SciTegic.value.DoubleValue
1.571

@<SCITEGIC>MOL_PROPERTY
Valence
SciTegic.value.DoubleValue
7.320

@<SCITEGIC>MOL_PROPERTY
Coulomb
SciTegic.value.DoubleValue
-8.530

@<SCITEGIC>MOL_PROPERTY
VdW
SciTegic.value.DoubleValue
1.249

@<SCITEGIC>MOL_PROPERTY
VdW6
SciTegic.value.DoubleValue
-2.615

@<SCITEGIC>MOL_PROPERTY
VdW12
SciTegic.value.DoubleValue
3.864

@<SCITEGIC>MOL_PROPERTY
Bond
SciTegic.value.DoubleValue
0.056

@<SCITEGIC>MOL_PROPERTY
Angle
SciTegic.value.DoubleValue
0.694

@<SCITEGIC>MOL_PROPERTY
Pdih
SciTegic.value.DoubleValue
6.570

@<SCITEGIC>MOL_PROPERTY
Idih
SciTegic.value.DoubleValue
0.000

@<SCITEGIC>MOL_PROPERTY
Tether
SciTegic.value.DoubleValue
0.000

@<TRIPOS>MOLECULE
guest-s16_confgen4.mol2 : confsearch ligand conformer 781
          13          13           1
SMALL
USER_CHARGES
 
@<TRIPOS>ATOM
       1    C1      18.625508   19.831927   22.064498 C.3        1 MOL1        -0.1693
       2    H1      18.589122   20.281106   21.063249 H          1 MOL1         0.0829
       3    H2      17.731243   20.139758   22.619357 H          1 MOL1         0.0829
       4    C2      19.989910   20.004696   22.810061 C.3        1 MOL1        -0.1768
       5    H3      20.542135   20.927256   22.600557 H          1 MOL1         0.0829
       6    H4      19.941477   19.861389   23.896663 H          1 MOL1         0.0829
       7    C3      20.446269   18.745862   22.012615 C.3        1 MOL1         0.1211
       8    H5      20.796766   18.968986   20.995546 H          1 MOL1         0.0786
       9    C4      18.953795   18.302495   22.084308 C.3        1 MOL1        -0.1768
      10    H6      18.586983   17.719470   21.232425 H          1 MOL1         0.0829
      11    H7      18.675697   17.786238   23.011634 H          1 MOL1         0.0829
      12    O1      21.357401   17.906036   22.682746 O.3        1 MOL1        -0.5515
      13    H8      21.436423   17.082689   22.154485 H          1 MOL1         0.3773
@<TRIPOS>BOND
    1     1     2    1
    2     1     3    1
    3     1     4    1
    4     4     5    1
    5     4     6    1
    6     4     7    1
    7     7     8    1
    8     1     9    1
    9     7     9    1
   10     9    10    1
   11     9    11    1
   12     7    12    1
   13    12    13    1
@<TRIPOS>SUBSTRUCTURE
       1 MOL1            1 RESIDUE      1      MOL     
@<SCITEGIC>MOL_PROPERTY
VConf Rank
SciTegic.value.IntegerValue
781

@<SCITEGIC>MOL_PROPERTY
Conf_Id
SciTegic.value.IntegerValue
22

@<SCITEGIC>MOL_PROPERTY
Delta U+W
SciTegic.value.DoubleValue
0.000

@<SCITEGIC>MOL_PROPERTY
U+W
SciTegic.value.DoubleValue
-3.131

@<SCITEGIC>MOL_PROPERTY
Grad RMS
SciTegic.value.DoubleValue
0.000000

@<SCITEGIC>MOL_PROPERTY
U
SciTegic.value.DoubleValue
-0.154

@<SCITEGIC>MOL_PROPERTY
W
SciTegic.value.DoubleValue
-2.978

@<SCITEGIC>MOL_PROPERTY
W(PB)
SciTegic.value.DoubleValue
-4.579

@<SCITEGIC>MOL_PROPERTY
W(SA)
SciTegic.value.DoubleValue
1.601

@<SCITEGIC>MOL_PROPERTY
Valence
SciTegic.value.DoubleValue
6.333

@<SCITEGIC>MOL_PROPERTY
Coulomb
SciTegic.value.DoubleValue
-7.439

@<SCITEGIC>MOL_PROPERTY
VdW
SciTegic.value.DoubleValue
0.952

@<SCITEGIC>MOL_PROPERTY
VdW6
SciTegic.value.DoubleValue
-2.120

@<SCITEGIC>MOL_PROPERTY
VdW12
SciTegic.value.DoubleValue
3.072

@<SCITEGIC>MOL_PROPERTY
Bond
SciTegic.value.DoubleValue
0.065

@<SCITEGIC>MOL_PROPERTY
Angle
SciTegic.value.DoubleValue
0.931

@<SCITEGIC>MOL_PROPERTY
Pdih
SciTegic.value.DoubleValue
5.338

@<SCITEGIC>MOL_PROPERTY
Idih
SciTegic.value.DoubleValue
0.000

@<SCITEGIC>MOL_PROPERTY
Tether
SciTegic.value.DoubleValue
0.000

@<TRIPOS>MOLECULE
guest-s16_confgen4.mol2 : confsearch ligand conformer 782
          13          13           1
SMALL
USER_CHARGES
 
@<TRIPOS>ATOM
       1    C1      19.080282   20.086147   21.940625 C.3        1 MOL1        -0.1693
       2    H1      19.647122   20.653842   21.190958 H          1 MOL1         0.0829
       3    H2      18.224042   20.690105   22.263775 H          1 MOL1         0.0829
       4    C2      19.948408   19.459263   23.081109 C.3        1 MOL1        -0.1768
       5    H3      19.389012   19.183776   23.983870 H          1 MOL1         0.0829
       6    H4      20.838202   20.025879   23.376722 H          1 MOL1         0.0829
       7    C3      20.189985   18.284753   22.085438 C.3        1 MOL1         0.1211
       8    H5      20.994074   18.472777   21.360766 H          1 MOL1         0.0786
       9    C4      18.765673   18.606765   21.540932 C.3        1 MOL1        -0.1768
      10    H6      17.947647   18.142053   22.105256 H          1 MOL1         0.0829
      11    H7      18.609709   18.416886   20.473420 H          1 MOL1         0.0829
      12    O1      20.335897   17.014173   22.676103 O.3        1 MOL1        -0.5515
      13    H8      21.212046   16.997962   23.118036 H          1 MOL1         0.3773
@<TRIPOS>BOND
    1     1     2    1
    2     1     3    1
    3     1     4    1
    4     4     5    1
    5     4     6    1
    6     4     7    1
    7     7     8    1
    8     1     9    1
    9     7     9    1
   10     9    10    1
   11     9    11    1
   12     7    12    1
   13    12    13    1
@<TRIPOS>SUBSTRUCTURE
       1 MOL1            1 RESIDUE      1      MOL     
@<SCITEGIC>MOL_PROPERTY
VConf Rank
SciTegic.value.IntegerValue
782

@<SCITEGIC>MOL_PROPERTY
Conf_Id
SciTegic.value.IntegerValue
19

@<SCITEGIC>MOL_PROPERTY
Delta U+W
SciTegic.value.DoubleValue
-0.011

@<SCITEGIC>MOL_PROPERTY
U+W
SciTegic.value.DoubleValue
-3.142

@<SCITEGIC>MOL_PROPERTY
Grad RMS
SciTegic.value.DoubleValue
0.000000

@<SCITEGIC>MOL_PROPERTY
U
SciTegic.value.DoubleValue
-0.154

@<SCITEGIC>MOL_PROPERTY
W
SciTegic.value.DoubleValue
-2.989

@<SCITEGIC>MOL_PROPERTY
W(PB)
SciTegic.value.DoubleValue
-4.588

@<SCITEGIC>MOL_PROPERTY
W(SA)
SciTegic.value.DoubleValue
1.599

@<SCITEGIC>MOL_PROPERTY
Valence
SciTegic.value.DoubleValue
6.334

@<SCITEGIC>MOL_PROPERTY
Coulomb
SciTegic.value.DoubleValue
-7.439

@<SCITEGIC>MOL_PROPERTY
VdW
SciTegic.value.DoubleValue
0.951

@<SCITEGIC>MOL_PROPERTY
VdW6
SciTegic.value.DoubleValue
-2.120

@<SCITEGIC>MOL_PROPERTY
VdW12
SciTegic.value.DoubleValue
3.072

@<SCITEGIC>MOL_PROPERTY
Bond
SciTegic.value.DoubleValue
0.065

@<SCITEGIC>MOL_PROPERTY
Angle
SciTegic.value.DoubleValue
0.930

@<SCITEGIC>MOL_PROPERTY
Pdih
SciTegic.value.DoubleValue
5.339

@<SCITEGIC>MOL_PROPERTY
Idih
SciTegic.value.DoubleValue
0.000

@<SCITEGIC>MOL_PROPERTY
Tether
SciTegic.value.DoubleValue
0.000

@<TRIPOS>MOLECULE
guest-s16_confgen4.mol2 : confsearch ligand conformer 783
          13          13           1
SMALL
USER_CHARGES
 
@<TRIPOS>ATOM
       1    C1      20.406334   19.977687   22.535534 C.3        1 MOL1        -0.1693
       2    H1      20.557474   21.062689   22.491912 H          1 MOL1         0.0829
       3    H2      21.254645   19.526100   23.066236 H          1 MOL1         0.0829
       4    C2      20.039057   19.278822   21.184361 C.3        1 MOL1        -0.1768
       5    H3      19.466571   19.904776   20.489230 H          1 MOL1         0.0829
       6    H4      20.870622   18.819335   20.638684 H          1 MOL1         0.0829
       7    C3      19.165768   18.304640   22.035105 C.3        1 MOL1         0.1211
       8    H5      18.237175   17.979704   21.548337 H          1 MOL1         0.0786
       9    C4      19.000815   19.497476   23.028094 C.3        1 MOL1        -0.1768
      10    H6      18.928239   19.232498   24.088693 H          1 MOL1         0.0829
      11    H7      18.176427   20.177115   22.780205 H          1 MOL1         0.0829
      12    O1      19.856652   17.186196   22.554631 O.3        1 MOL1        -0.5515
      13    H8      19.261908   16.752659   23.203077 H          1 MOL1         0.3773
@<TRIPOS>BOND
    1     1     2    1
    2     1     3    1
    3     1     4    1
    4     4     5    1
    5     4     6    1
    6     4     7    1
    7     7     8    1
    8     1     9    1
    9     7     9    1
   10     9    10    1
   11     9    11    1
   12     7    12    1
   13    12    13    1
@<TRIPOS>SUBSTRUCTURE
       1 MOL1            1 RESIDUE      1      MOL     
@<SCITEGIC>MOL_PROPERTY
VConf Rank
SciTegic.value.IntegerValue
783

@<SCITEGIC>MOL_PROPERTY
Conf_Id
SciTegic.value.IntegerValue
20

@<SCITEGIC>MOL_PROPERTY
Delta U+W
SciTegic.value.DoubleValue
1.030

@<SCITEGIC>MOL_PROPERTY
U+W
SciTegic.value.DoubleValue
-2.101

@<SCITEGIC>MOL_PROPERTY
Grad RMS
SciTegic.value.DoubleValue
0.000000

@<SCITEGIC>MOL_PROPERTY
U
SciTegic.value.DoubleValue
0.841

@<SCITEGIC>MOL_PROPERTY
W
SciTegic.value.DoubleValue
-2.942

@<SCITEGIC>MOL_PROPERTY
W(PB)
SciTegic.value.DoubleValue
-4.530

@<SCITEGIC>MOL_PROPERTY
W(SA)
SciTegic.value.DoubleValue
1.587

@<SCITEGIC>MOL_PROPERTY
Valence
SciTegic.value.DoubleValue
6.736

@<SCITEGIC>MOL_PROPERTY
Coulomb
SciTegic.value.DoubleValue
-7.246

@<SCITEGIC>MOL_PROPERTY
VdW
SciTegic.value.DoubleValue
1.352

@<SCITEGIC>MOL_PROPERTY
VdW6
SciTegic.value.DoubleValue
-2.500

@<SCITEGIC>MOL_PROPERTY
VdW12
SciTegic.value.DoubleValue
3.851

@<SCITEGIC>MOL_PROPERTY
Bond
SciTegic.value.DoubleValue
0.063

@<SCITEGIC>MOL_PROPERTY
Angle
SciTegic.value.DoubleValue
0.687

@<SCITEGIC>MOL_PROPERTY
Pdih
SciTegic.value.DoubleValue
5.986

@<SCITEGIC>MOL_PROPERTY
Idih
SciTegic.value.DoubleValue
0.000

@<SCITEGIC>MOL_PROPERTY
Tether
SciTegic.value.DoubleValue
0.000

@<TRIPOS>MOLECULE
guest-s16_confgen4.mol2 : confsearch ligand conformer 784
          13          13           1
SMALL
USER_CHARGES
 
@<TRIPOS>ATOM
       1    C1      19.250530   19.741852   21.332003 C.3        1 MOL1        -0.1693
       2    H1      18.968170   19.316645   20.359819 H          1 MOL1         0.0829
       3    H2      19.026865   20.815309   21.322725 H          1 MOL1         0.0829
       4    C2      20.678161   19.341636   21.831054 C.3        1 MOL1        -0.1768
       5    H3      21.435070   19.188044   21.054014 H          1 MOL1         0.0829
       6    H4      21.094599   20.000935   22.602606 H          1 MOL1         0.0829
       7    C3      19.992990   18.050867   22.372914 C.3        1 MOL1         0.1211
       8    H5      19.866876   17.264119   21.616729 H          1 MOL1         0.0786
       9    C4      18.729918   18.942107   22.571651 C.3        1 MOL1        -0.1768
      10    H6      18.710899   19.512107   23.508735 H          1 MOL1         0.0829
      11    H7      17.766232   18.435670   22.448674 H          1 MOL1         0.0829
      12    O1      20.549978   17.520314   23.551937 O.3        1 MOL1        -0.5515
      13    H8      20.638315   18.263233   24.185173 H          1 MOL1         0.3773
@<TRIPOS>BOND
    1     1     2    1
    2     1     3    1
    3     1     4    1
    4     4     5    1
    5     4     6    1
    6     4     7    1
    7     7     8    1
    8     1     9    1
    9     7     9    1
   10     9    10    1
   11     9    11    1
   12     7    12    1
   13    12    13    1
@<TRIPOS>SUBSTRUCTURE
       1 MOL1            1 RESIDUE      1      MOL     
@<SCITEGIC>MOL_PROPERTY
VConf Rank
SciTegic.value.IntegerValue
784

@<SCITEGIC>MOL_PROPERTY
Conf_Id
SciTegic.value.IntegerValue
24

@<SCITEGIC>MOL_PROPERTY
Delta U+W
SciTegic.value.DoubleValue
0.356

@<SCITEGIC>MOL_PROPERTY
U+W
SciTegic.value.DoubleValue
-2.775

@<SCITEGIC>MOL_PROPERTY
Grad RMS
SciTegic.value.DoubleValue
0.000000

@<SCITEGIC>MOL_PROPERTY
U
SciTegic.value.DoubleValue
-0.184

@<SCITEGIC>MOL_PROPERTY
W
SciTegic.value.DoubleValue
-2.591

@<SCITEGIC>MOL_PROPERTY
W(PB)
SciTegic.value.DoubleValue
-4.184

@<SCITEGIC>MOL_PROPERTY
W(SA)
SciTegic.value.DoubleValue
1.593

@<SCITEGIC>MOL_PROPERTY
Valence
SciTegic.value.DoubleValue
6.840

@<SCITEGIC>MOL_PROPERTY
Coulomb
SciTegic.value.DoubleValue
-7.916

@<SCITEGIC>MOL_PROPERTY
VdW
SciTegic.value.DoubleValue
0.893

@<SCITEGIC>MOL_PROPERTY
VdW6
SciTegic.value.DoubleValue
-2.167

@<SCITEGIC>MOL_PROPERTY
VdW12
SciTegic.value.DoubleValue
3.060

@<SCITEGIC>MOL_PROPERTY
Bond
SciTegic.value.DoubleValue
0.059

@<SCITEGIC>MOL_PROPERTY
Angle
SciTegic.value.DoubleValue
0.918

@<SCITEGIC>MOL_PROPERTY
Pdih
SciTegic.value.DoubleValue
5.862

@<SCITEGIC>MOL_PROPERTY
Idih
SciTegic.value.DoubleValue
0.000

@<SCITEGIC>MOL_PROPERTY
Tether
SciTegic.value.DoubleValue
0.000

@<TRIPOS>MOLECULE
guest-s16_confgen4.mol2 : confsearch ligand conformer 785
          13          13           1
SMALL
USER_CHARGES
 
@<TRIPOS>ATOM
       1    C1      18.948555   19.313296   21.438480 C.3        1 MOL1        -0.1693
       2    H1      18.549322   20.167560   20.878820 H          1 MOL1         0.0829
       3    H2      18.405716   18.411460   21.128134 H          1 MOL1         0.0829
       4    C2      19.072261   19.507263   22.986773 C.3        1 MOL1        -0.1768
       5    H3      19.262429   20.540940   23.300399 H          1 MOL1         0.0829
       6    H4      18.251325   19.105510   23.591229 H          1 MOL1         0.0829
       7    C3      20.353946   18.621688   22.902900 C.3        1 MOL1         0.1211
       8    H5      21.158401   18.909074   23.591920 H          1 MOL1         0.0786
       9    C4      20.507394   19.171879   21.451095 C.3        1 MOL1        -0.1768
      10    H6      21.049434   20.123326   21.388194 H          1 MOL1         0.0829
      11    H7      20.935617   18.478205   20.718873 H          1 MOL1         0.0829
      12    O1      20.119759   17.232538   22.987434 O.3        1 MOL1        -0.5515
      13    H8      19.397698   17.035233   22.355760 H          1 MOL1         0.3773
@<TRIPOS>BOND
    1     1     2    1
    2     1     3    1
    3     1     4    1
    4     4     5    1
    5     4     6    1
    6     4     7    1
    7     7     8    1
    8     1     9    1
    9     7     9    1
   10     9    10    1
   11     9    11    1
   12     7    12    1
   13    12    13    1
@<TRIPOS>SUBSTRUCTURE
       1 MOL1            1 RESIDUE      1      MOL     
@<SCITEGIC>MOL_PROPERTY
VConf Rank
SciTegic.value.IntegerValue
785

@<SCITEGIC>MOL_PROPERTY
Conf_Id
SciTegic.value.IntegerValue
44

@<SCITEGIC>MOL_PROPERTY
Delta U+W
SciTegic.value.DoubleValue
0.823

@<SCITEGIC>MOL_PROPERTY
U+W
SciTegic.value.DoubleValue
-2.308

@<SCITEGIC>MOL_PROPERTY
Grad RMS
SciTegic.value.DoubleValue
0.000000

@<SCITEGIC>MOL_PROPERTY
U
SciTegic.value.DoubleValue
0.039

@<SCITEGIC>MOL_PROPERTY
W
SciTegic.value.DoubleValue
-2.348

@<SCITEGIC>MOL_PROPERTY
W(PB)
SciTegic.value.DoubleValue
-3.918

@<SCITEGIC>MOL_PROPERTY
W(SA)
SciTegic.value.DoubleValue
1.571

@<SCITEGIC>MOL_PROPERTY
Valence
SciTegic.value.DoubleValue
7.320

@<SCITEGIC>MOL_PROPERTY
Coulomb
SciTegic.value.DoubleValue
-8.530

@<SCITEGIC>MOL_PROPERTY
VdW
SciTegic.value.DoubleValue
1.249

@<SCITEGIC>MOL_PROPERTY
VdW6
SciTegic.value.DoubleValue
-2.615

@<SCITEGIC>MOL_PROPERTY
VdW12
SciTegic.value.DoubleValue
3.864

@<SCITEGIC>MOL_PROPERTY
Bond
SciTegic.value.DoubleValue
0.056

@<SCITEGIC>MOL_PROPERTY
Angle
SciTegic.value.DoubleValue
0.694

@<SCITEGIC>MOL_PROPERTY
Pdih
SciTegic.value.DoubleValue
6.570

@<SCITEGIC>MOL_PROPERTY
Idih
SciTegic.value.DoubleValue
0.000

@<SCITEGIC>MOL_PROPERTY
Tether
SciTegic.value.DoubleValue
0.000

@<TRIPOS>MOLECULE
guest-s16_confgen4.mol2 : confsearch ligand conformer 786
          13          13           1
SMALL
USER_CHARGES
 
@<TRIPOS>ATOM
       1    C1      20.220375   18.662325   23.384270 C.3        1 MOL1        -0.1693
       2    H1      20.736523   17.695595   23.316374 H          1 MOL1         0.0829
       3    H2      20.362846   19.065461   24.393983 H          1 MOL1         0.0829
       4    C2      18.751176   18.658905   22.846916 C.3        1 MOL1        -0.1768
       5    H3      18.191357   17.726133   22.975373 H          1 MOL1         0.0829
       6    H4      18.131456   19.493576   23.197425 H          1 MOL1         0.0829
       7    C3      19.392892   18.876253   21.443418 C.3        1 MOL1         0.1211
       8    H5      19.734679   17.948520   20.964297 H          1 MOL1         0.0786
       9    C4      20.514731   19.645890   22.203897 C.3        1 MOL1        -0.1768
      10    H6      21.516826   19.586519   21.765202 H          1 MOL1         0.0829
      11    H7      20.283378   20.697371   22.415224 H          1 MOL1         0.0829
      12    O1      18.631638   19.651362   20.546621 O.3        1 MOL1        -0.5515
      13    H8      19.204849   19.849996   19.775144 H          1 MOL1         0.3773
@<TRIPOS>BOND
    1     1     2    1
    2     1     3    1
    3     1     4    1
    4     4     5    1
    5     4     6    1
    6     4     7    1
    7     7     8    1
    8     1     9    1
    9     7     9    1
   10     9    10    1
   11     9    11    1
   12     7    12    1
   13    12    13    1
@<TRIPOS>SUBSTRUCTURE
       1 MOL1            1 RESIDUE      1      MOL     
@<SCITEGIC>MOL_PROPERTY
VConf Rank
SciTegic.value.IntegerValue
786

@<SCITEGIC>MOL_PROPERTY
Conf_Id
SciTegic.value.IntegerValue
22

@<SCITEGIC>MOL_PROPERTY
Delta U+W
SciTegic.value.DoubleValue
0.000

@<SCITEGIC>MOL_PROPERTY
U+W
SciTegic.value.DoubleValue
-3.131

@<SCITEGIC>MOL_PROPERTY
Grad RMS
SciTegic.value.DoubleValue
0.000000

@<SCITEGIC>MOL_PROPERTY
U
SciTegic.value.DoubleValue
-0.154

@<SCITEGIC>MOL_PROPERTY
W
SciTegic.value.DoubleValue
-2.978

@<SCITEGIC>MOL_PROPERTY
W(PB)
SciTegic.value.DoubleValue
-4.579

@<SCITEGIC>MOL_PROPERTY
W(SA)
SciTegic.value.DoubleValue
1.601

@<SCITEGIC>MOL_PROPERTY
Valence
SciTegic.value.DoubleValue
6.333

@<SCITEGIC>MOL_PROPERTY
Coulomb
SciTegic.value.DoubleValue
-7.439

@<SCITEGIC>MOL_PROPERTY
VdW
SciTegic.value.DoubleValue
0.952

@<SCITEGIC>MOL_PROPERTY
VdW6
SciTegic.value.DoubleValue
-2.120

@<SCITEGIC>MOL_PROPERTY
VdW12
SciTegic.value.DoubleValue
3.072

@<SCITEGIC>MOL_PROPERTY
Bond
SciTegic.value.DoubleValue
0.065

@<SCITEGIC>MOL_PROPERTY
Angle
SciTegic.value.DoubleValue
0.931

@<SCITEGIC>MOL_PROPERTY
Pdih
SciTegic.value.DoubleValue
5.338

@<SCITEGIC>MOL_PROPERTY
Idih
SciTegic.value.DoubleValue
0.000

@<SCITEGIC>MOL_PROPERTY
Tether
SciTegic.value.DoubleValue
0.000

@<TRIPOS>MOLECULE
guest-s16_confgen4.mol2 : confsearch ligand conformer 787
          13          13           1
SMALL
USER_CHARGES
 
@<TRIPOS>ATOM
       1    C1      19.030104   19.844632   22.979255 C.3        1 MOL1        -0.1693
       2    H1      17.977384   19.615922   23.191524 H          1 MOL1         0.0829
       3    H2      19.269425   20.824471   23.409346 H          1 MOL1         0.0829
       4    C2      19.460994   19.623435   21.491728 C.3        1 MOL1        -0.1768
       5    H3      20.381639   20.143700   21.199269 H          1 MOL1         0.0829
       6    H4      18.692878   19.812871   20.733913 H          1 MOL1         0.0829
       7    C3      19.661293   18.132365   21.898896 C.3        1 MOL1         0.1211
       8    H5      18.737143   17.538380   21.885099 H          1 MOL1         0.0786
       9    C4      20.030280   18.687434   23.307651 C.3        1 MOL1        -0.1768
      10    H6      21.076560   19.000097   23.413128 H          1 MOL1         0.0829
      11    H7      19.766759   18.046578   24.156074 H          1 MOL1         0.0829
      12    O1      20.699413   17.458126   21.226394 O.3        1 MOL1        -0.5515
      13    H8      20.398228   17.306371   20.304732 H          1 MOL1         0.3773
@<TRIPOS>BOND
    1     1     2    1
    2     1     3    1
    3     1     4    1
    4     4     5    1
    5     4     6    1
    6     4     7    1
    7     7     8    1
    8     1     9    1
    9     7     9    1
   10     9    10    1
   11     9    11    1
   12     7    12    1
   13    12    13    1
@<TRIPOS>SUBSTRUCTURE
       1 MOL1            1 RESIDUE      1      MOL     
@<SCITEGIC>MOL_PROPERTY
VConf Rank
SciTegic.value.IntegerValue
787

@<SCITEGIC>MOL_PROPERTY
Conf_Id
SciTegic.value.IntegerValue
19

@<SCITEGIC>MOL_PROPERTY
Delta U+W
SciTegic.value.DoubleValue
-0.011

@<SCITEGIC>MOL_PROPERTY
U+W
SciTegic.value.DoubleValue
-3.142

@<SCITEGIC>MOL_PROPERTY
Grad RMS
SciTegic.value.DoubleValue
0.000000

@<SCITEGIC>MOL_PROPERTY
U
SciTegic.value.DoubleValue
-0.154

@<SCITEGIC>MOL_PROPERTY
W
SciTegic.value.DoubleValue
-2.989

@<SCITEGIC>MOL_PROPERTY
W(PB)
SciTegic.value.DoubleValue
-4.588

@<SCITEGIC>MOL_PROPERTY
W(SA)
SciTegic.value.DoubleValue
1.599

@<SCITEGIC>MOL_PROPERTY
Valence
SciTegic.value.DoubleValue
6.334

@<SCITEGIC>MOL_PROPERTY
Coulomb
SciTegic.value.DoubleValue
-7.439

@<SCITEGIC>MOL_PROPERTY
VdW
SciTegic.value.DoubleValue
0.951

@<SCITEGIC>MOL_PROPERTY
VdW6
SciTegic.value.DoubleValue
-2.120

@<SCITEGIC>MOL_PROPERTY
VdW12
SciTegic.value.DoubleValue
3.072

@<SCITEGIC>MOL_PROPERTY
Bond
SciTegic.value.DoubleValue
0.065

@<SCITEGIC>MOL_PROPERTY
Angle
SciTegic.value.DoubleValue
0.930

@<SCITEGIC>MOL_PROPERTY
Pdih
SciTegic.value.DoubleValue
5.339

@<SCITEGIC>MOL_PROPERTY
Idih
SciTegic.value.DoubleValue
0.000

@<SCITEGIC>MOL_PROPERTY
Tether
SciTegic.value.DoubleValue
0.000

@<TRIPOS>MOLECULE
guest-s16_confgen4.mol2 : confsearch ligand conformer 788
          13          13           1
SMALL
USER_CHARGES
 
@<TRIPOS>ATOM
       1    C1      18.411712   19.007351   22.439204 C.3        1 MOL1        -0.1693
       2    H1      17.603443   18.894957   23.171355 H          1 MOL1         0.0829
       3    H2      17.968874   19.217043   21.456793 H          1 MOL1         0.0829
       4    C2      19.498261   17.881134   22.434840 C.3        1 MOL1        -0.1768
       5    H3      19.677701   17.418218   23.412733 H          1 MOL1         0.0829
       6    H4      19.366230   17.088021   21.690574 H          1 MOL1         0.0829
       7    C3      20.519905   18.999609   22.059756 C.3        1 MOL1         0.1211
       8    H5      21.518174   18.872556   22.498081 H          1 MOL1         0.0786
       9    C4      19.579433   19.966966   22.844503 C.3        1 MOL1        -0.1768
      10    H6      19.515207   20.990843   22.459924 H          1 MOL1         0.0829
      11    H7      19.778174   20.010026   23.922289 H          1 MOL1         0.0829
      12    O1      20.629488   19.265262   20.675717 O.3        1 MOL1        -0.5515
      13    H8      21.155084   20.087709   20.578329 H          1 MOL1         0.3773
@<TRIPOS>BOND
    1     1     2    1
    2     1     3    1
    3     1     4    1
    4     4     5    1
    5     4     6    1
    6     4     7    1
    7     7     8    1
    8     1     9    1
    9     7     9    1
   10     9    10    1
   11     9    11    1
   12     7    12    1
   13    12    13    1
@<TRIPOS>SUBSTRUCTURE
       1 MOL1            1 RESIDUE      1      MOL     
@<SCITEGIC>MOL_PROPERTY
VConf Rank
SciTegic.value.IntegerValue
788

@<SCITEGIC>MOL_PROPERTY
Conf_Id
SciTegic.value.IntegerValue
20

@<SCITEGIC>MOL_PROPERTY
Delta U+W
SciTegic.value.DoubleValue
1.030

@<SCITEGIC>MOL_PROPERTY
U+W
SciTegic.value.DoubleValue
-2.101

@<SCITEGIC>MOL_PROPERTY
Grad RMS
SciTegic.value.DoubleValue
0.000000

@<SCITEGIC>MOL_PROPERTY
U
SciTegic.value.DoubleValue
0.841

@<SCITEGIC>MOL_PROPERTY
W
SciTegic.value.DoubleValue
-2.942

@<SCITEGIC>MOL_PROPERTY
W(PB)
SciTegic.value.DoubleValue
-4.530

@<SCITEGIC>MOL_PROPERTY
W(SA)
SciTegic.value.DoubleValue
1.587

@<SCITEGIC>MOL_PROPERTY
Valence
SciTegic.value.DoubleValue
6.736

@<SCITEGIC>MOL_PROPERTY
Coulomb
SciTegic.value.DoubleValue
-7.246

@<SCITEGIC>MOL_PROPERTY
VdW
SciTegic.value.DoubleValue
1.352

@<SCITEGIC>MOL_PROPERTY
VdW6
SciTegic.value.DoubleValue
-2.500

@<SCITEGIC>MOL_PROPERTY
VdW12
SciTegic.value.DoubleValue
3.851

@<SCITEGIC>MOL_PROPERTY
Bond
SciTegic.value.DoubleValue
0.063

@<SCITEGIC>MOL_PROPERTY
Angle
SciTegic.value.DoubleValue
0.687

@<SCITEGIC>MOL_PROPERTY
Pdih
SciTegic.value.DoubleValue
5.986

@<SCITEGIC>MOL_PROPERTY
Idih
SciTegic.value.DoubleValue
0.000

@<SCITEGIC>MOL_PROPERTY
Tether
SciTegic.value.DoubleValue
0.000

@<TRIPOS>MOLECULE
guest-s16_confgen4.mol2 : confsearch ligand conformer 789
          13          13           1
SMALL
USER_CHARGES
 
@<TRIPOS>ATOM
       1    C1      19.976467   19.927360   23.012938 C.3        1 MOL1        -0.1693
       2    H1      19.171986   20.654971   23.183412 H          1 MOL1         0.0829
       3    H2      20.848400   20.223838   23.608132 H          1 MOL1         0.0829
       4    C2      20.251388   19.596810   21.508773 C.3        1 MOL1        -0.1768
       5    H3      20.084425   20.413128   20.797409 H          1 MOL1         0.0829
       6    H4      21.234574   19.152586   21.310282 H          1 MOL1         0.0829
       7    C3      19.085764   18.571598   21.648119 C.3        1 MOL1         0.1211
       8    H5      18.087761   19.015015   21.529518 H          1 MOL1         0.0786
       9    C4      19.539961   18.429836   23.132289 C.3        1 MOL1        -0.1768
      10    H6      20.364134   17.724780   23.296674 H          1 MOL1         0.0829
      11    H7      18.744700   18.215538   23.854735 H          1 MOL1         0.0829
      12    O1      19.207336   17.408054   20.865045 O.3        1 MOL1        -0.5515
      13    H8      20.111707   17.059323   21.010709 H          1 MOL1         0.3773
@<TRIPOS>BOND
    1     1     2    1
    2     1     3    1
    3     1     4    1
    4     4     5    1
    5     4     6    1
    6     4     7    1
    7     7     8    1
    8     1     9    1
    9     7     9    1
   10     9    10    1
   11     9    11    1
   12     7    12    1
   13    12    13    1
@<TRIPOS>SUBSTRUCTURE
       1 MOL1            1 RESIDUE      1      MOL     
@<SCITEGIC>MOL_PROPERTY
VConf Rank
SciTegic.value.IntegerValue
789

@<SCITEGIC>MOL_PROPERTY
Conf_Id
SciTegic.value.IntegerValue
24

@<SCITEGIC>MOL_PROPERTY
Delta U+W
SciTegic.value.DoubleValue
0.356

@<SCITEGIC>MOL_PROPERTY
U+W
SciTegic.value.DoubleValue
-2.775

@<SCITEGIC>MOL_PROPERTY
Grad RMS
SciTegic.value.DoubleValue
0.000000

@<SCITEGIC>MOL_PROPERTY
U
SciTegic.value.DoubleValue
-0.184

@<SCITEGIC>MOL_PROPERTY
W
SciTegic.value.DoubleValue
-2.591

@<SCITEGIC>MOL_PROPERTY
W(PB)
SciTegic.value.DoubleValue
-4.184

@<SCITEGIC>MOL_PROPERTY
W(SA)
SciTegic.value.DoubleValue
1.593

@<SCITEGIC>MOL_PROPERTY
Valence
SciTegic.value.DoubleValue
6.840

@<SCITEGIC>MOL_PROPERTY
Coulomb
SciTegic.value.DoubleValue
-7.916

@<SCITEGIC>MOL_PROPERTY
VdW
SciTegic.value.DoubleValue
0.893

@<SCITEGIC>MOL_PROPERTY
VdW6
SciTegic.value.DoubleValue
-2.167

@<SCITEGIC>MOL_PROPERTY
VdW12
SciTegic.value.DoubleValue
3.060

@<SCITEGIC>MOL_PROPERTY
Bond
SciTegic.value.DoubleValue
0.059

@<SCITEGIC>MOL_PROPERTY
Angle
SciTegic.value.DoubleValue
0.918

@<SCITEGIC>MOL_PROPERTY
Pdih
SciTegic.value.DoubleValue
5.862

@<SCITEGIC>MOL_PROPERTY
Idih
SciTegic.value.DoubleValue
0.000

@<SCITEGIC>MOL_PROPERTY
Tether
SciTegic.value.DoubleValue
0.000

@<TRIPOS>MOLECULE
guest-s16_confgen4.mol2 : confsearch ligand conformer 790
          13          13           1
SMALL
USER_CHARGES
 
@<TRIPOS>ATOM
       1    C1      20.210246   18.209744   22.857133 C.3        1 MOL1        -0.1693
       2    H1      21.024812   17.478841   22.925232 H          1 MOL1         0.0829
       3    H2      19.664217   18.209806   23.809051 H          1 MOL1         0.0829
       4    C2      19.308936   18.112783   21.581055 C.3        1 MOL1        -0.1768
       5    H3      19.826200   17.741909   20.687799 H          1 MOL1         0.0829
       6    H4      18.369430   17.560236   21.693876 H          1 MOL1         0.0829
       7    C3      19.198516   19.667330   21.653050 C.3        1 MOL1         0.1211
       8    H5      19.166968   20.172551   20.679272 H          1 MOL1         0.0786
       9    C4      20.605979   19.627603   22.324960 C.3        1 MOL1        -0.1768
      10    H6      21.441260   19.628139   21.614100 H          1 MOL1         0.0829
      11    H7      20.795440   20.393576   23.085287 H          1 MOL1         0.0829
      12    O1      18.161474   20.149071   22.480212 O.3        1 MOL1        -0.5515
      13    H8      18.238379   19.666382   23.328982 H          1 MOL1         0.3773
@<TRIPOS>BOND
    1     1     2    1
    2     1     3    1
    3     1     4    1
    4     4     5    1
    5     4     6    1
    6     4     7    1
    7     7     8    1
    8     1     9    1
    9     7     9    1
   10     9    10    1
   11     9    11    1
   12     7    12    1
   13    12    13    1
@<TRIPOS>SUBSTRUCTURE
       1 MOL1            1 RESIDUE      1      MOL     
@<SCITEGIC>MOL_PROPERTY
VConf Rank
SciTegic.value.IntegerValue
790

@<SCITEGIC>MOL_PROPERTY
Conf_Id
SciTegic.value.IntegerValue
44

@<SCITEGIC>MOL_PROPERTY
Delta U+W
SciTegic.value.DoubleValue
0.823

@<SCITEGIC>MOL_PROPERTY
U+W
SciTegic.value.DoubleValue
-2.308

@<SCITEGIC>MOL_PROPERTY
Grad RMS
SciTegic.value.DoubleValue
0.000000

@<SCITEGIC>MOL_PROPERTY
U
SciTegic.value.DoubleValue
0.039

@<SCITEGIC>MOL_PROPERTY
W
SciTegic.value.DoubleValue
-2.348

@<SCITEGIC>MOL_PROPERTY
W(PB)
SciTegic.value.DoubleValue
-3.918

@<SCITEGIC>MOL_PROPERTY
W(SA)
SciTegic.value.DoubleValue
1.571

@<SCITEGIC>MOL_PROPERTY
Valence
SciTegic.value.DoubleValue
7.320

@<SCITEGIC>MOL_PROPERTY
Coulomb
SciTegic.value.DoubleValue
-8.530

@<SCITEGIC>MOL_PROPERTY
VdW
SciTegic.value.DoubleValue
1.249

@<SCITEGIC>MOL_PROPERTY
VdW6
SciTegic.value.DoubleValue
-2.615

@<SCITEGIC>MOL_PROPERTY
VdW12
SciTegic.value.DoubleValue
3.864

@<SCITEGIC>MOL_PROPERTY
Bond
SciTegic.value.DoubleValue
0.056

@<SCITEGIC>MOL_PROPERTY
Angle
SciTegic.value.DoubleValue
0.694

@<SCITEGIC>MOL_PROPERTY
Pdih
SciTegic.value.DoubleValue
6.570

@<SCITEGIC>MOL_PROPERTY
Idih
SciTegic.value.DoubleValue
0.000

@<SCITEGIC>MOL_PROPERTY
Tether
SciTegic.value.DoubleValue
0.000

@<TRIPOS>MOLECULE
guest-s16_confgen4.mol2 : confsearch ligand conformer 791
          13          13           1
SMALL
USER_CHARGES
 
@<TRIPOS>ATOM
       1    C1      18.493574   19.111020   21.648792 C.3        1 MOL1        -0.1693
       2    H1      18.196651   20.134643   21.384937 H          1 MOL1         0.0829
       3    H2      17.727727   18.418074   21.280497 H          1 MOL1         0.0829
       4    C2      18.933408   18.920502   23.137938 C.3        1 MOL1        -0.1768
       5    H3      18.430350   19.554900   23.875794 H          1 MOL1         0.0829
       6    H4      18.915043   17.882844   23.493628 H          1 MOL1         0.0829
       7    C3      20.332323   19.414700   22.660810 C.3        1 MOL1         0.1211
       8    H5      20.422552   20.508560   22.611918 H          1 MOL1         0.0786
       9    C4      19.974341   18.748009   21.298252 C.3        1 MOL1        -0.1768
      10    H6      20.390752   19.229427   20.406618 H          1 MOL1         0.0829
      11    H7      20.182768   17.671957   21.248605 H          1 MOL1         0.0829
      12    O1      21.432686   18.851696   23.336660 O.3        1 MOL1        -0.5515
      13    H8      22.240554   19.111575   22.843693 H          1 MOL1         0.3773
@<TRIPOS>BOND
    1     1     2    1
    2     1     3    1
    3     1     4    1
    4     4     5    1
    5     4     6    1
    6     4     7    1
    7     7     8    1
    8     1     9    1
    9     7     9    1
   10     9    10    1
   11     9    11    1
   12     7    12    1
   13    12    13    1
@<TRIPOS>SUBSTRUCTURE
       1 MOL1            1 RESIDUE      1      MOL     
@<SCITEGIC>MOL_PROPERTY
VConf Rank
SciTegic.value.IntegerValue
791

@<SCITEGIC>MOL_PROPERTY
Conf_Id
SciTegic.value.IntegerValue
22

@<SCITEGIC>MOL_PROPERTY
Delta U+W
SciTegic.value.DoubleValue
0.000

@<SCITEGIC>MOL_PROPERTY
U+W
SciTegic.value.DoubleValue
-3.131

@<SCITEGIC>MOL_PROPERTY
Grad RMS
SciTegic.value.DoubleValue
0.000000

@<SCITEGIC>MOL_PROPERTY
U
SciTegic.value.DoubleValue
-0.154

@<SCITEGIC>MOL_PROPERTY
W
SciTegic.value.DoubleValue
-2.978

@<SCITEGIC>MOL_PROPERTY
W(PB)
SciTegic.value.DoubleValue
-4.579

@<SCITEGIC>MOL_PROPERTY
W(SA)
SciTegic.value.DoubleValue
1.601

@<SCITEGIC>MOL_PROPERTY
Valence
SciTegic.value.DoubleValue
6.333

@<SCITEGIC>MOL_PROPERTY
Coulomb
SciTegic.value.DoubleValue
-7.439

@<SCITEGIC>MOL_PROPERTY
VdW
SciTegic.value.DoubleValue
0.952

@<SCITEGIC>MOL_PROPERTY
VdW6
SciTegic.value.DoubleValue
-2.120

@<SCITEGIC>MOL_PROPERTY
VdW12
SciTegic.value.DoubleValue
3.072

@<SCITEGIC>MOL_PROPERTY
Bond
SciTegic.value.DoubleValue
0.065

@<SCITEGIC>MOL_PROPERTY
Angle
SciTegic.value.DoubleValue
0.931

@<SCITEGIC>MOL_PROPERTY
Pdih
SciTegic.value.DoubleValue
5.338

@<SCITEGIC>MOL_PROPERTY
Idih
SciTegic.value.DoubleValue
0.000

@<SCITEGIC>MOL_PROPERTY
Tether
SciTegic.value.DoubleValue
0.000

@<TRIPOS>MOLECULE
guest-s16_confgen4.mol2 : confsearch ligand conformer 792
          13          13           1
SMALL
USER_CHARGES
 
@<TRIPOS>ATOM
       1    C1      19.577359   17.779346   21.594439 C.3        1 MOL1        -0.1693
       2    H1      19.257072   16.935654   22.219888 H          1 MOL1         0.0829
       3    H2      19.816368   17.402207   20.592951 H          1 MOL1         0.0829
       4    C2      20.648267   18.711621   22.251210 C.3        1 MOL1        -0.1768
       5    H3      21.204486   19.339587   21.544051 H          1 MOL1         0.0829
       6    H4      21.360403   18.226288   22.927587 H          1 MOL1         0.0829
       7    C3      19.437836   19.419113   22.932023 C.3        1 MOL1         0.1211
       8    H5      19.084163   18.918753   23.843953 H          1 MOL1         0.0786
       9    C4      18.638980   19.029731   21.651767 C.3        1 MOL1        -0.1768
      10    H6      18.753424   19.729263   20.814424 H          1 MOL1         0.0829
      11    H7      17.572446   18.827714   21.798928 H          1 MOL1         0.0829
      12    O1      19.591947   20.802610   23.148203 O.3        1 MOL1        -0.5515
      13    H8      20.239349   20.912493   23.877586 H          1 MOL1         0.3773
@<TRIPOS>BOND
    1     1     2    1
    2     1     3    1
    3     1     4    1
    4     4     5    1
    5     4     6    1
    6     4     7    1
    7     7     8    1
    8     1     9    1
    9     7     9    1
   10     9    10    1
   11     9    11    1
   12     7    12    1
   13    12    13    1
@<TRIPOS>SUBSTRUCTURE
       1 MOL1            1 RESIDUE      1      MOL     
@<SCITEGIC>MOL_PROPERTY
VConf Rank
SciTegic.value.IntegerValue
792

@<SCITEGIC>MOL_PROPERTY
Conf_Id
SciTegic.value.IntegerValue
19

@<SCITEGIC>MOL_PROPERTY
Delta U+W
SciTegic.value.DoubleValue
-0.011

@<SCITEGIC>MOL_PROPERTY
U+W
SciTegic.value.DoubleValue
-3.142

@<SCITEGIC>MOL_PROPERTY
Grad RMS
SciTegic.value.DoubleValue
0.000000

@<SCITEGIC>MOL_PROPERTY
U
SciTegic.value.DoubleValue
-0.154

@<SCITEGIC>MOL_PROPERTY
W
SciTegic.value.DoubleValue
-2.989

@<SCITEGIC>MOL_PROPERTY
W(PB)
SciTegic.value.DoubleValue
-4.588

@<SCITEGIC>MOL_PROPERTY
W(SA)
SciTegic.value.DoubleValue
1.599

@<SCITEGIC>MOL_PROPERTY
Valence
SciTegic.value.DoubleValue
6.334

@<SCITEGIC>MOL_PROPERTY
Coulomb
SciTegic.value.DoubleValue
-7.439

@<SCITEGIC>MOL_PROPERTY
VdW
SciTegic.value.DoubleValue
0.951

@<SCITEGIC>MOL_PROPERTY
VdW6
SciTegic.value.DoubleValue
-2.120

@<SCITEGIC>MOL_PROPERTY
VdW12
SciTegic.value.DoubleValue
3.072

@<SCITEGIC>MOL_PROPERTY
Bond
SciTegic.value.DoubleValue
0.065

@<SCITEGIC>MOL_PROPERTY
Angle
SciTegic.value.DoubleValue
0.930

@<SCITEGIC>MOL_PROPERTY
Pdih
SciTegic.value.DoubleValue
5.339

@<SCITEGIC>MOL_PROPERTY
Idih
SciTegic.value.DoubleValue
0.000

@<SCITEGIC>MOL_PROPERTY
Tether
SciTegic.value.DoubleValue
0.000

@<TRIPOS>MOLECULE
guest-s16_confgen4.mol2 : confsearch ligand conformer 793
          13          13           1
SMALL
USER_CHARGES
 
@<TRIPOS>ATOM
       1    C1      19.644747   19.427948   23.453966 C.3        1 MOL1        -0.1693
       2    H1      19.684755   19.104753   24.500829 H          1 MOL1         0.0829
       3    H2      19.686011   20.524562   23.423263 H          1 MOL1         0.0829
       4    C2      18.509904   18.795997   22.581188 C.3        1 MOL1        -0.1768
       5    H3      18.225154   17.777843   22.872811 H          1 MOL1         0.0829
       6    H4      17.599894   19.395476   22.467608 H          1 MOL1         0.0829
       7    C3      19.518145   18.862092   21.391856 C.3        1 MOL1         0.1211
       8    H5      19.447378   18.024884   20.685536 H          1 MOL1         0.0786
       9    C4      20.632782   18.712188   22.474080 C.3        1 MOL1        -0.1768
      10    H6      21.572610   19.237386   22.271001 H          1 MOL1         0.0829
      11    H7      20.863097   17.673409   22.740289 H          1 MOL1         0.0829
      12    O1      19.529218   20.088444   20.688946 O.3        1 MOL1        -0.5515
      13    H8      20.307993   20.074713   20.092728 H          1 MOL1         0.3773
@<TRIPOS>BOND
    1     1     2    1
    2     1     3    1
    3     1     4    1
    4     4     5    1
    5     4     6    1
    6     4     7    1
    7     7     8    1
    8     1     9    1
    9     7     9    1
   10     9    10    1
   11     9    11    1
   12     7    12    1
   13    12    13    1
@<TRIPOS>SUBSTRUCTURE
       1 MOL1            1 RESIDUE      1      MOL     
@<SCITEGIC>MOL_PROPERTY
VConf Rank
SciTegic.value.IntegerValue
793

@<SCITEGIC>MOL_PROPERTY
Conf_Id
SciTegic.value.IntegerValue
20

@<SCITEGIC>MOL_PROPERTY
Delta U+W
SciTegic.value.DoubleValue
1.030

@<SCITEGIC>MOL_PROPERTY
U+W
SciTegic.value.DoubleValue
-2.101

@<SCITEGIC>MOL_PROPERTY
Grad RMS
SciTegic.value.DoubleValue
0.000000

@<SCITEGIC>MOL_PROPERTY
U
SciTegic.value.DoubleValue
0.841

@<SCITEGIC>MOL_PROPERTY
W
SciTegic.value.DoubleValue
-2.942

@<SCITEGIC>MOL_PROPERTY
W(PB)
SciTegic.value.DoubleValue
-4.530

@<SCITEGIC>MOL_PROPERTY
W(SA)
SciTegic.value.DoubleValue
1.587

@<SCITEGIC>MOL_PROPERTY
Valence
SciTegic.value.DoubleValue
6.736

@<SCITEGIC>MOL_PROPERTY
Coulomb
SciTegic.value.DoubleValue
-7.246

@<SCITEGIC>MOL_PROPERTY
VdW
SciTegic.value.DoubleValue
1.352

@<SCITEGIC>MOL_PROPERTY
VdW6
SciTegic.value.DoubleValue
-2.500

@<SCITEGIC>MOL_PROPERTY
VdW12
SciTegic.value.DoubleValue
3.851

@<SCITEGIC>MOL_PROPERTY
Bond
SciTegic.value.DoubleValue
0.063

@<SCITEGIC>MOL_PROPERTY
Angle
SciTegic.value.DoubleValue
0.687

@<SCITEGIC>MOL_PROPERTY
Pdih
SciTegic.value.DoubleValue
5.986

@<SCITEGIC>MOL_PROPERTY
Idih
SciTegic.value.DoubleValue
0.000

@<SCITEGIC>MOL_PROPERTY
Tether
SciTegic.value.DoubleValue
0.000

@<TRIPOS>MOLECULE
guest-s16_confgen4.mol2 : confsearch ligand conformer 794
          13          13           1
SMALL
USER_CHARGES
 
@<TRIPOS>ATOM
       1    C1      19.872865   19.522988   21.070949 C.3        1 MOL1        -0.1693
       2    H1      20.245293   18.919984   20.232289 H          1 MOL1         0.0829
       3    H2      19.682565   20.541587   20.712252 H          1 MOL1         0.0829
       4    C2      20.711704   19.402993   22.385981 C.3        1 MOL1        -0.1768
       5    H3      21.787254   19.238027   22.258429 H          1 MOL1         0.0829
       6    H4      20.563586   20.222932   23.099528 H          1 MOL1         0.0829
       7    C3      19.860236   18.128259   22.667428 C.3        1 MOL1         0.1211
       8    H5      20.231956   17.225714   22.163514 H          1 MOL1         0.0786
       9    C4      18.720657   18.857725   21.893870 C.3        1 MOL1        -0.1768
      10    H6      18.127515   19.555790   22.497423 H          1 MOL1         0.0829
      11    H7      18.037809   18.211204   21.331711 H          1 MOL1         0.0829
      12    O1      19.596797   17.864949   24.025031 O.3        1 MOL1        -0.5515
      13    H8      19.270366   18.700685   24.419629 H          1 MOL1         0.3773
@<TRIPOS>BOND
    1     1     2    1
    2     1     3    1
    3     1     4    1
    4     4     5    1
    5     4     6    1
    6     4     7    1
    7     7     8    1
    8     1     9    1
    9     7     9    1
   10     9    10    1
   11     9    11    1
   12     7    12    1
   13    12    13    1
@<TRIPOS>SUBSTRUCTURE
       1 MOL1            1 RESIDUE      1      MOL     
@<SCITEGIC>MOL_PROPERTY
VConf Rank
SciTegic.value.IntegerValue
794

@<SCITEGIC>MOL_PROPERTY
Conf_Id
SciTegic.value.IntegerValue
24

@<SCITEGIC>MOL_PROPERTY
Delta U+W
SciTegic.value.DoubleValue
0.356

@<SCITEGIC>MOL_PROPERTY
U+W
SciTegic.value.DoubleValue
-2.775

@<SCITEGIC>MOL_PROPERTY
Grad RMS
SciTegic.value.DoubleValue
0.000000

@<SCITEGIC>MOL_PROPERTY
U
SciTegic.value.DoubleValue
-0.184

@<SCITEGIC>MOL_PROPERTY
W
SciTegic.value.DoubleValue
-2.591

@<SCITEGIC>MOL_PROPERTY
W(PB)
SciTegic.value.DoubleValue
-4.184

@<SCITEGIC>MOL_PROPERTY
W(SA)
SciTegic.value.DoubleValue
1.593

@<SCITEGIC>MOL_PROPERTY
Valence
SciTegic.value.DoubleValue
6.840

@<SCITEGIC>MOL_PROPERTY
Coulomb
SciTegic.value.DoubleValue
-7.916

@<SCITEGIC>MOL_PROPERTY
VdW
SciTegic.value.DoubleValue
0.893

@<SCITEGIC>MOL_PROPERTY
VdW6
SciTegic.value.DoubleValue
-2.167

@<SCITEGIC>MOL_PROPERTY
VdW12
SciTegic.value.DoubleValue
3.060

@<SCITEGIC>MOL_PROPERTY
Bond
SciTegic.value.DoubleValue
0.059

@<SCITEGIC>MOL_PROPERTY
Angle
SciTegic.value.DoubleValue
0.918

@<SCITEGIC>MOL_PROPERTY
Pdih
SciTegic.value.DoubleValue
5.862

@<SCITEGIC>MOL_PROPERTY
Idih
SciTegic.value.DoubleValue
0.000

@<SCITEGIC>MOL_PROPERTY
Tether
SciTegic.value.DoubleValue
0.000

@<TRIPOS>MOLECULE
guest-s16_confgen4.mol2 : confsearch ligand conformer 795
          13          13           1
SMALL
USER_CHARGES
 
@<TRIPOS>ATOM
       1    C1      20.081174   18.995585   23.265112 C.3        1 MOL1        -0.1693
       2    H1      20.968086   18.943613   23.907809 H          1 MOL1         0.0829
       3    H2      19.197954   19.126040   23.903234 H          1 MOL1         0.0829
       4    C2      19.952408   17.870448   22.184545 C.3        1 MOL1        -0.1768
       5    H3      20.910478   17.485936   21.814047 H          1 MOL1         0.0829
       6    H4      19.313732   17.019516   22.446685 H          1 MOL1         0.0829
       7    C3      19.303566   18.952833   21.267245 C.3        1 MOL1         0.1211
       8    H5      19.550261   18.861765   20.201724 H          1 MOL1         0.0786
       9    C4      20.170530   19.983712   22.054428 C.3        1 MOL1        -0.1768
      10    H6      21.182080   20.117342   21.652029 H          1 MOL1         0.0829
      11    H7      19.721712   20.972197   22.203313 H          1 MOL1         0.0829
      12    O1      17.909952   19.106586   21.428265 O.3        1 MOL1        -0.5515
      13    H8      17.749924   19.182400   22.391570 H          1 MOL1         0.3773
@<TRIPOS>BOND
    1     1     2    1
    2     1     3    1
    3     1     4    1
    4     4     5    1
    5     4     6    1
    6     4     7    1
    7     7     8    1
    8     1     9    1
    9     7     9    1
   10     9    10    1
   11     9    11    1
   12     7    12    1
   13    12    13    1
@<TRIPOS>SUBSTRUCTURE
       1 MOL1            1 RESIDUE      1      MOL     
@<SCITEGIC>MOL_PROPERTY
VConf Rank
SciTegic.value.IntegerValue
795

@<SCITEGIC>MOL_PROPERTY
Conf_Id
SciTegic.value.IntegerValue
44

@<SCITEGIC>MOL_PROPERTY
Delta U+W
SciTegic.value.DoubleValue
0.823

@<SCITEGIC>MOL_PROPERTY
U+W
SciTegic.value.DoubleValue
-2.308

@<SCITEGIC>MOL_PROPERTY
Grad RMS
SciTegic.value.DoubleValue
0.000000

@<SCITEGIC>MOL_PROPERTY
U
SciTegic.value.DoubleValue
0.039

@<SCITEGIC>MOL_PROPERTY
W
SciTegic.value.DoubleValue
-2.348

@<SCITEGIC>MOL_PROPERTY
W(PB)
SciTegic.value.DoubleValue
-3.918

@<SCITEGIC>MOL_PROPERTY
W(SA)
SciTegic.value.DoubleValue
1.571

@<SCITEGIC>MOL_PROPERTY
Valence
SciTegic.value.DoubleValue
7.320

@<SCITEGIC>MOL_PROPERTY
Coulomb
SciTegic.value.DoubleValue
-8.530

@<SCITEGIC>MOL_PROPERTY
VdW
SciTegic.value.DoubleValue
1.249

@<SCITEGIC>MOL_PROPERTY
VdW6
SciTegic.value.DoubleValue
-2.615

@<SCITEGIC>MOL_PROPERTY
VdW12
SciTegic.value.DoubleValue
3.864

@<SCITEGIC>MOL_PROPERTY
Bond
SciTegic.value.DoubleValue
0.056

@<SCITEGIC>MOL_PROPERTY
Angle
SciTegic.value.DoubleValue
0.694

@<SCITEGIC>MOL_PROPERTY
Pdih
SciTegic.value.DoubleValue
6.570

@<SCITEGIC>MOL_PROPERTY
Idih
SciTegic.value.DoubleValue
0.000

@<SCITEGIC>MOL_PROPERTY
Tether
SciTegic.value.DoubleValue
0.000

@<TRIPOS>MOLECULE
guest-s16_confgen4.mol2 : confsearch ligand conformer 796
          13          13           1
SMALL
USER_CHARGES
 
@<TRIPOS>ATOM
       1    C1      19.627388   20.322063   21.926581 C.3        1 MOL1        -0.1693
       2    H1      19.202645   20.957682   22.714723 H          1 MOL1         0.0829
       3    H2      19.950925   20.961774   21.096863 H          1 MOL1         0.0829
       4    C2      18.750469   19.085792   21.539340 C.3        1 MOL1        -0.1768
       5    H3      17.665799   19.220082   21.612936 H          1 MOL1         0.0829
       6    H4      18.985829   18.642611   20.563747 H          1 MOL1         0.0829
       7    C3      19.429352   18.378034   22.750557 C.3        1 MOL1         0.1211
       8    H5      18.958328   18.604825   23.716872 H          1 MOL1         0.0786
       9    C4      20.668188   19.266625   22.426695 C.3        1 MOL1        -0.1768
      10    H6      21.281212   19.563029   23.284901 H          1 MOL1         0.0829
      11    H7      21.325251   18.865201   21.645081 H          1 MOL1         0.0829
      12    O1      19.627553   16.991037   22.603927 O.3        1 MOL1        -0.5515
      13    H8      20.199788   16.699152   23.345920 H          1 MOL1         0.3773
@<TRIPOS>BOND
    1     1     2    1
    2     1     3    1
    3     1     4    1
    4     4     5    1
    5     4     6    1
    6     4     7    1
    7     7     8    1
    8     1     9    1
    9     7     9    1
   10     9    10    1
   11     9    11    1
   12     7    12    1
   13    12    13    1
@<TRIPOS>SUBSTRUCTURE
       1 MOL1            1 RESIDUE      1      MOL     
@<SCITEGIC>MOL_PROPERTY
VConf Rank
SciTegic.value.IntegerValue
796

@<SCITEGIC>MOL_PROPERTY
Conf_Id
SciTegic.value.IntegerValue
22

@<SCITEGIC>MOL_PROPERTY
Delta U+W
SciTegic.value.DoubleValue
0.000

@<SCITEGIC>MOL_PROPERTY
U+W
SciTegic.value.DoubleValue
-3.131

@<SCITEGIC>MOL_PROPERTY
Grad RMS
SciTegic.value.DoubleValue
0.000000

@<SCITEGIC>MOL_PROPERTY
U
SciTegic.value.DoubleValue
-0.154

@<SCITEGIC>MOL_PROPERTY
W
SciTegic.value.DoubleValue
-2.978

@<SCITEGIC>MOL_PROPERTY
W(PB)
SciTegic.value.DoubleValue
-4.579

@<SCITEGIC>MOL_PROPERTY
W(SA)
SciTegic.value.DoubleValue
1.601

@<SCITEGIC>MOL_PROPERTY
Valence
SciTegic.value.DoubleValue
6.333

@<SCITEGIC>MOL_PROPERTY
Coulomb
SciTegic.value.DoubleValue
-7.439

@<SCITEGIC>MOL_PROPERTY
VdW
SciTegic.value.DoubleValue
0.952

@<SCITEGIC>MOL_PROPERTY
VdW6
SciTegic.value.DoubleValue
-2.120

@<SCITEGIC>MOL_PROPERTY
VdW12
SciTegic.value.DoubleValue
3.072

@<SCITEGIC>MOL_PROPERTY
Bond
SciTegic.value.DoubleValue
0.065

@<SCITEGIC>MOL_PROPERTY
Angle
SciTegic.value.DoubleValue
0.931

@<SCITEGIC>MOL_PROPERTY
Pdih
SciTegic.value.DoubleValue
5.338

@<SCITEGIC>MOL_PROPERTY
Idih
SciTegic.value.DoubleValue
0.000

@<SCITEGIC>MOL_PROPERTY
Tether
SciTegic.value.DoubleValue
0.000

@<TRIPOS>MOLECULE
guest-s16_confgen4.mol2 : confsearch ligand conformer 797
          13          13           1
SMALL
USER_CHARGES
 
@<TRIPOS>ATOM
       1    C1      19.724664   17.629010   22.020583 C.3        1 MOL1        -0.1693
       2    H1      18.761243   17.104819   22.071861 H          1 MOL1         0.0829
       3    H2      20.515877   16.891277   21.841502 H          1 MOL1         0.0829
       4    C2      19.981072   18.642782   23.184134 C.3        1 MOL1        -0.1768
       5    H3      21.033458   18.917099   23.329139 H          1 MOL1         0.0829
       6    H4      19.547615   18.381425   24.155721 H          1 MOL1         0.0829
       7    C3      19.161790   19.651142   22.323216 C.3        1 MOL1         0.1211
       8    H5      18.073428   19.553056   22.436838 H          1 MOL1         0.0786
       9    C4      19.736138   18.887817   21.091833 C.3        1 MOL1        -0.1768
      10    H6      20.733934   19.218107   20.777357 H          1 MOL1         0.0829
      11    H7      19.085311   18.845486   20.211722 H          1 MOL1         0.0829
      12    O1      19.556933   20.998753   22.434368 O.3        1 MOL1        -0.5515
      13    H8      19.270635   21.313608   23.318735 H          1 MOL1         0.3773
@<TRIPOS>BOND
    1     1     2    1
    2     1     3    1
    3     1     4    1
    4     4     5    1
    5     4     6    1
    6     4     7    1
    7     7     8    1
    8     1     9    1
    9     7     9    1
   10     9    10    1
   11     9    11    1
   12     7    12    1
   13    12    13    1
@<TRIPOS>SUBSTRUCTURE
       1 MOL1            1 RESIDUE      1      MOL     
@<SCITEGIC>MOL_PROPERTY
VConf Rank
SciTegic.value.IntegerValue
797

@<SCITEGIC>MOL_PROPERTY
Conf_Id
SciTegic.value.IntegerValue
19

@<SCITEGIC>MOL_PROPERTY
Delta U+W
SciTegic.value.DoubleValue
-0.011

@<SCITEGIC>MOL_PROPERTY
U+W
SciTegic.value.DoubleValue
-3.142

@<SCITEGIC>MOL_PROPERTY
Grad RMS
SciTegic.value.DoubleValue
0.000000

@<SCITEGIC>MOL_PROPERTY
U
SciTegic.value.DoubleValue
-0.154

@<SCITEGIC>MOL_PROPERTY
W
SciTegic.value.DoubleValue
-2.989

@<SCITEGIC>MOL_PROPERTY
W(PB)
SciTegic.value.DoubleValue
-4.588

@<SCITEGIC>MOL_PROPERTY
W(SA)
SciTegic.value.DoubleValue
1.599

@<SCITEGIC>MOL_PROPERTY
Valence
SciTegic.value.DoubleValue
6.334

@<SCITEGIC>MOL_PROPERTY
Coulomb
SciTegic.value.DoubleValue
-7.439

@<SCITEGIC>MOL_PROPERTY
VdW
SciTegic.value.DoubleValue
0.951

@<SCITEGIC>MOL_PROPERTY
VdW6
SciTegic.value.DoubleValue
-2.120

@<SCITEGIC>MOL_PROPERTY
VdW12
SciTegic.value.DoubleValue
3.072

@<SCITEGIC>MOL_PROPERTY
Bond
SciTegic.value.DoubleValue
0.065

@<SCITEGIC>MOL_PROPERTY
Angle
SciTegic.value.DoubleValue
0.930

@<SCITEGIC>MOL_PROPERTY
Pdih
SciTegic.value.DoubleValue
5.339

@<SCITEGIC>MOL_PROPERTY
Idih
SciTegic.value.DoubleValue
0.000

@<SCITEGIC>MOL_PROPERTY
Tether
SciTegic.value.DoubleValue
0.000

@<TRIPOS>MOLECULE
guest-s16_confgen4.mol2 : confsearch ligand conformer 798
          13          13           1
SMALL
USER_CHARGES
 
@<TRIPOS>ATOM
       1    C1      18.476878   18.633450   22.354794 C.3        1 MOL1        -0.1693
       2    H1      17.844086   17.738201   22.363677 H          1 MOL1         0.0829
       3    H2      17.844909   19.511926   22.539459 H          1 MOL1         0.0829
       4    C2      19.449215   18.777248   21.137068 C.3        1 MOL1        -0.1768
       5    H3      19.805276   17.825627   20.724268 H          1 MOL1         0.0829
       6    H4      19.097816   19.407347   20.312515 H          1 MOL1         0.0829
       7    C3      20.442827   19.454353   22.131900 C.3        1 MOL1         0.1211
       8    H5      21.501003   19.231393   21.943842 H          1 MOL1         0.0786
       9    C4      19.773029   18.569246   23.229192 C.3        1 MOL1        -0.1768
      10    H6      19.701506   19.014781   24.227559 H          1 MOL1         0.0829
      11    H7      20.207375   17.566582   23.323965 H          1 MOL1         0.0829
      12    O1      20.263602   20.846846   22.296177 O.3        1 MOL1        -0.5515
      13    H8      20.814165   21.122696   23.059684 H          1 MOL1         0.3773
@<TRIPOS>BOND
    1     1     2    1
    2     1     3    1
    3     1     4    1
    4     4     5    1
    5     4     6    1
    6     4     7    1
    7     7     8    1
    8     1     9    1
    9     7     9    1
   10     9    10    1
   11     9    11    1
   12     7    12    1
   13    12    13    1
@<TRIPOS>SUBSTRUCTURE
       1 MOL1            1 RESIDUE      1      MOL     
@<SCITEGIC>MOL_PROPERTY
VConf Rank
SciTegic.value.IntegerValue
798

@<SCITEGIC>MOL_PROPERTY
Conf_Id
SciTegic.value.IntegerValue
20

@<SCITEGIC>MOL_PROPERTY
Delta U+W
SciTegic.value.DoubleValue
1.030

@<SCITEGIC>MOL_PROPERTY
U+W
SciTegic.value.DoubleValue
-2.101

@<SCITEGIC>MOL_PROPERTY
Grad RMS
SciTegic.value.DoubleValue
0.000000

@<SCITEGIC>MOL_PROPERTY
U
SciTegic.value.DoubleValue
0.841

@<SCITEGIC>MOL_PROPERTY
W
SciTegic.value.DoubleValue
-2.942

@<SCITEGIC>MOL_PROPERTY
W(PB)
SciTegic.value.DoubleValue
-4.530

@<SCITEGIC>MOL_PROPERTY
W(SA)
SciTegic.value.DoubleValue
1.587

@<SCITEGIC>MOL_PROPERTY
Valence
SciTegic.value.DoubleValue
6.736

@<SCITEGIC>MOL_PROPERTY
Coulomb
SciTegic.value.DoubleValue
-7.246

@<SCITEGIC>MOL_PROPERTY
VdW
SciTegic.value.DoubleValue
1.352

@<SCITEGIC>MOL_PROPERTY
VdW6
SciTegic.value.DoubleValue
-2.500

@<SCITEGIC>MOL_PROPERTY
VdW12
SciTegic.value.DoubleValue
3.851

@<SCITEGIC>MOL_PROPERTY
Bond
SciTegic.value.DoubleValue
0.063

@<SCITEGIC>MOL_PROPERTY
Angle
SciTegic.value.DoubleValue
0.687

@<SCITEGIC>MOL_PROPERTY
Pdih
SciTegic.value.DoubleValue
5.986

@<SCITEGIC>MOL_PROPERTY
Idih
SciTegic.value.DoubleValue
0.000

@<SCITEGIC>MOL_PROPERTY
Tether
SciTegic.value.DoubleValue
0.000

@<TRIPOS>MOLECULE
guest-s16_confgen4.mol2 : confsearch ligand conformer 799
          13          13           1
SMALL
USER_CHARGES
 
@<TRIPOS>ATOM
       1    C1      18.620123   18.384878   22.436340 C.3        1 MOL1        -0.1693
       2    H1      17.746887   18.729033   21.866528 H          1 MOL1         0.0829
       3    H2      18.303165   17.580154   23.110417 H          1 MOL1         0.0829
       4    C2      19.471069   19.527491   23.082625 C.3        1 MOL1        -0.1768
       5    H3      18.918949   20.418410   23.401560 H          1 MOL1         0.0829
       6    H4      20.122322   19.204230   23.904063 H          1 MOL1         0.0829
       7    C3      20.169826   19.625826   21.692940 C.3        1 MOL1         0.1211
       8    H5      19.621216   20.235470   20.962149 H          1 MOL1         0.0786
       9    C4      19.892423   18.096847   21.572831 C.3        1 MOL1        -0.1768
      10    H6      20.637853   17.453819   22.056812 H          1 MOL1         0.0829
      11    H7      19.712426   17.724290   20.558389 H          1 MOL1         0.0829
      12    O1      21.528512   19.992994   21.724200 O.3        1 MOL1        -0.5515
      13    H8      21.963832   19.419397   22.389182 H          1 MOL1         0.3773
@<TRIPOS>BOND
    1     1     2    1
    2     1     3    1
    3     1     4    1
    4     4     5    1
    5     4     6    1
    6     4     7    1
    7     7     8    1
    8     1     9    1
    9     7     9    1
   10     9    10    1
   11     9    11    1
   12     7    12    1
   13    12    13    1
@<TRIPOS>SUBSTRUCTURE
       1 MOL1            1 RESIDUE      1      MOL     
@<SCITEGIC>MOL_PROPERTY
VConf Rank
SciTegic.value.IntegerValue
799

@<SCITEGIC>MOL_PROPERTY
Conf_Id
SciTegic.value.IntegerValue
24

@<SCITEGIC>MOL_PROPERTY
Delta U+W
SciTegic.value.DoubleValue
0.356

@<SCITEGIC>MOL_PROPERTY
U+W
SciTegic.value.DoubleValue
-2.775

@<SCITEGIC>MOL_PROPERTY
Grad RMS
SciTegic.value.DoubleValue
0.000000

@<SCITEGIC>MOL_PROPERTY
U
SciTegic.value.DoubleValue
-0.184

@<SCITEGIC>MOL_PROPERTY
W
SciTegic.value.DoubleValue
-2.591

@<SCITEGIC>MOL_PROPERTY
W(PB)
SciTegic.value.DoubleValue
-4.184

@<SCITEGIC>MOL_PROPERTY
W(SA)
SciTegic.value.DoubleValue
1.593

@<SCITEGIC>MOL_PROPERTY
Valence
SciTegic.value.DoubleValue
6.840

@<SCITEGIC>MOL_PROPERTY
Coulomb
SciTegic.value.DoubleValue
-7.916

@<SCITEGIC>MOL_PROPERTY
VdW
SciTegic.value.DoubleValue
0.893

@<SCITEGIC>MOL_PROPERTY
VdW6
SciTegic.value.DoubleValue
-2.167

@<SCITEGIC>MOL_PROPERTY
VdW12
SciTegic.value.DoubleValue
3.060

@<SCITEGIC>MOL_PROPERTY
Bond
SciTegic.value.DoubleValue
0.059

@<SCITEGIC>MOL_PROPERTY
Angle
SciTegic.value.DoubleValue
0.918

@<SCITEGIC>MOL_PROPERTY
Pdih
SciTegic.value.DoubleValue
5.862

@<SCITEGIC>MOL_PROPERTY
Idih
SciTegic.value.DoubleValue
0.000

@<SCITEGIC>MOL_PROPERTY
Tether
SciTegic.value.DoubleValue
0.000

@<TRIPOS>MOLECULE
guest-s16_confgen4.mol2 : confsearch ligand conformer 800
          13          13           1
SMALL
USER_CHARGES
 
@<TRIPOS>ATOM
       1    C1      20.235214   18.458047   23.051569 C.3        1 MOL1        -0.1693
       2    H1      20.151621   18.030938   24.058030 H          1 MOL1         0.0829
       3    H2      21.272938   18.345990   22.712647 H          1 MOL1         0.0829
       4    C2      19.632265   19.890308   22.863905 C.3        1 MOL1        -0.1768
       5    H3      18.776789   20.110793   23.513953 H          1 MOL1         0.0829
       6    H4      20.340172   20.724465   22.925213 H          1 MOL1         0.0829
       7    C3      19.237358   19.435592   21.424713 C.3        1 MOL1         0.1211
       8    H5      18.284910   19.839941   21.058882 H          1 MOL1         0.0786
       9    C4      19.152168   17.996096   22.020187 C.3        1 MOL1        -0.1768
      10    H6      18.178981   17.752147   22.463369 H          1 MOL1         0.0829
      11    H7      19.442192   17.181501   21.347112 H          1 MOL1         0.0829
      12    O1      20.243099   19.614422   20.450942 O.3        1 MOL1        -0.5515
      13    H8      21.064149   19.237731   20.829485 H          1 MOL1         0.3773
@<TRIPOS>BOND
    1     1     2    1
    2     1     3    1
    3     1     4    1
    4     4     5    1
    5     4     6    1
    6     4     7    1
    7     7     8    1
    8     1     9    1
    9     7     9    1
   10     9    10    1
   11     9    11    1
   12     7    12    1
   13    12    13    1
@<TRIPOS>SUBSTRUCTURE
       1 MOL1            1 RESIDUE      1      MOL     
@<SCITEGIC>MOL_PROPERTY
VConf Rank
SciTegic.value.IntegerValue
800

@<SCITEGIC>MOL_PROPERTY
Conf_Id
SciTegic.value.IntegerValue
44

@<SCITEGIC>MOL_PROPERTY
Delta U+W
SciTegic.value.DoubleValue
0.823

@<SCITEGIC>MOL_PROPERTY
U+W
SciTegic.value.DoubleValue
-2.308

@<SCITEGIC>MOL_PROPERTY
Grad RMS
SciTegic.value.DoubleValue
0.000000

@<SCITEGIC>MOL_PROPERTY
U
SciTegic.value.DoubleValue
0.039

@<SCITEGIC>MOL_PROPERTY
W
SciTegic.value.DoubleValue
-2.348

@<SCITEGIC>MOL_PROPERTY
W(PB)
SciTegic.value.DoubleValue
-3.918

@<SCITEGIC>MOL_PROPERTY
W(SA)
SciTegic.value.DoubleValue
1.571

@<SCITEGIC>MOL_PROPERTY
Valence
SciTegic.value.DoubleValue
7.320

@<SCITEGIC>MOL_PROPERTY
Coulomb
SciTegic.value.DoubleValue
-8.530

@<SCITEGIC>MOL_PROPERTY
VdW
SciTegic.value.DoubleValue
1.249

@<SCITEGIC>MOL_PROPERTY
VdW6
SciTegic.value.DoubleValue
-2.615

@<SCITEGIC>MOL_PROPERTY
VdW12
SciTegic.value.DoubleValue
3.864

@<SCITEGIC>MOL_PROPERTY
Bond
SciTegic.value.DoubleValue
0.056

@<SCITEGIC>MOL_PROPERTY
Angle
SciTegic.value.DoubleValue
0.694

@<SCITEGIC>MOL_PROPERTY
Pdih
SciTegic.value.DoubleValue
6.570

@<SCITEGIC>MOL_PROPERTY
Idih
SciTegic.value.DoubleValue
0.000

@<SCITEGIC>MOL_PROPERTY
Tether
SciTegic.value.DoubleValue
0.000

@<TRIPOS>MOLECULE
guest-s16_confgen4.mol2 : confsearch ligand conformer 801
          13          13           1
SMALL
USER_CHARGES
 
@<TRIPOS>ATOM
       1    C1      18.776941   19.383238   23.161035 C.3        1 MOL1        -0.1693
       2    H1      19.220050   19.612965   24.139026 H          1 MOL1         0.0829
       3    H2      17.695858   19.557964   23.216410 H          1 MOL1         0.0829
       4    C2      19.221082   18.014873   22.546524 C.3        1 MOL1        -0.1768
       5    H3      19.429028   17.209366   23.259180 H          1 MOL1         0.0829
       6    H4      18.561374   17.628423   21.759740 H          1 MOL1         0.0829
       7    C3      20.465155   18.792908   22.021365 C.3        1 MOL1         0.1211
       8    H5      21.268358   18.896715   22.763760 H          1 MOL1         0.0786
       9    C4      19.515182   20.025884   21.940652 C.3        1 MOL1        -0.1768
      10    H6      19.981700   21.001077   22.118225 H          1 MOL1         0.0829
      11    H7      18.918198   20.081966   21.021817 H          1 MOL1         0.0829
      12    O1      20.978603   18.345837   20.788059 O.3        1 MOL1        -0.5515
      13    H8      21.641199   19.006689   20.492348 H          1 MOL1         0.3773
@<TRIPOS>BOND
    1     1     2    1
    2     1     3    1
    3     1     4    1
    4     4     5    1
    5     4     6    1
    6     4     7    1
    7     7     8    1
    8     1     9    1
    9     7     9    1
   10     9    10    1
   11     9    11    1
   12     7    12    1
   13    12    13    1
@<TRIPOS>SUBSTRUCTURE
       1 MOL1            1 RESIDUE      1      MOL     
@<SCITEGIC>MOL_PROPERTY
VConf Rank
SciTegic.value.IntegerValue
801

@<SCITEGIC>MOL_PROPERTY
Conf_Id
SciTegic.value.IntegerValue
22

@<SCITEGIC>MOL_PROPERTY
Delta U+W
SciTegic.value.DoubleValue
0.000

@<SCITEGIC>MOL_PROPERTY
U+W
SciTegic.value.DoubleValue
-3.131

@<SCITEGIC>MOL_PROPERTY
Grad RMS
SciTegic.value.DoubleValue
0.000000

@<SCITEGIC>MOL_PROPERTY
U
SciTegic.value.DoubleValue
-0.154

@<SCITEGIC>MOL_PROPERTY
W
SciTegic.value.DoubleValue
-2.978

@<SCITEGIC>MOL_PROPERTY
W(PB)
SciTegic.value.DoubleValue
-4.579

@<SCITEGIC>MOL_PROPERTY
W(SA)
SciTegic.value.DoubleValue
1.601

@<SCITEGIC>MOL_PROPERTY
Valence
SciTegic.value.DoubleValue
6.333

@<SCITEGIC>MOL_PROPERTY
Coulomb
SciTegic.value.DoubleValue
-7.439

@<SCITEGIC>MOL_PROPERTY
VdW
SciTegic.value.DoubleValue
0.952

@<SCITEGIC>MOL_PROPERTY
VdW6
SciTegic.value.DoubleValue
-2.120

@<SCITEGIC>MOL_PROPERTY
VdW12
SciTegic.value.DoubleValue
3.072

@<SCITEGIC>MOL_PROPERTY
Bond
SciTegic.value.DoubleValue
0.065

@<SCITEGIC>MOL_PROPERTY
Angle
SciTegic.value.DoubleValue
0.931

@<SCITEGIC>MOL_PROPERTY
Pdih
SciTegic.value.DoubleValue
5.338

@<SCITEGIC>MOL_PROPERTY
Idih
SciTegic.value.DoubleValue
0.000

@<SCITEGIC>MOL_PROPERTY
Tether
SciTegic.value.DoubleValue
0.000

@<TRIPOS>MOLECULE
guest-s16_confgen4.mol2 : confsearch ligand conformer 802
          13          13           1
SMALL
USER_CHARGES
 
@<TRIPOS>ATOM
       1    C1      19.432498   17.679075   21.860669 C.3        1 MOL1        -0.1693
       2    H1      19.289563   16.981116   22.696139 H          1 MOL1         0.0829
       3    H2      19.419807   17.110623   20.923099 H          1 MOL1         0.0829
       4    C2      20.620337   18.681063   22.040636 C.3        1 MOL1        -0.1768
       5    H3      20.974364   19.143604   21.110843 H          1 MOL1         0.0829
       6    H4      21.485000   18.308335   22.600640 H          1 MOL1         0.0829
       7    C3      19.607935   19.546732   22.849866 C.3        1 MOL1         0.1211
       8    H5      19.499289   19.241184   23.899580 H          1 MOL1         0.0786
       9    C4      18.520923   18.949614   21.906098 C.3        1 MOL1        -0.1768
      10    H6      18.413738   19.473100   20.947944 H          1 MOL1         0.0829
      11    H7      17.527465   18.816569   22.348027 H          1 MOL1         0.0829
      12    O1      19.792075   20.939872   22.750854 O.3        1 MOL1        -0.5515
      13    H8      20.599104   21.163494   23.262616 H          1 MOL1         0.3773
@<TRIPOS>BOND
    1     1     2    1
    2     1     3    1
    3     1     4    1
    4     4     5    1
    5     4     6    1
    6     4     7    1
    7     7     8    1
    8     1     9    1
    9     7     9    1
   10     9    10    1
   11     9    11    1
   12     7    12    1
   13    12    13    1
@<TRIPOS>SUBSTRUCTURE
       1 MOL1            1 RESIDUE      1      MOL     
@<SCITEGIC>MOL_PROPERTY
VConf Rank
SciTegic.value.IntegerValue
802

@<SCITEGIC>MOL_PROPERTY
Conf_Id
SciTegic.value.IntegerValue
19

@<SCITEGIC>MOL_PROPERTY
Delta U+W
SciTegic.value.DoubleValue
-0.011

@<SCITEGIC>MOL_PROPERTY
U+W
SciTegic.value.DoubleValue
-3.142

@<SCITEGIC>MOL_PROPERTY
Grad RMS
SciTegic.value.DoubleValue
0.000000

@<SCITEGIC>MOL_PROPERTY
U
SciTegic.value.DoubleValue
-0.154

@<SCITEGIC>MOL_PROPERTY
W
SciTegic.value.DoubleValue
-2.989

@<SCITEGIC>MOL_PROPERTY
W(PB)
SciTegic.value.DoubleValue
-4.588

@<SCITEGIC>MOL_PROPERTY
W(SA)
SciTegic.value.DoubleValue
1.599

@<SCITEGIC>MOL_PROPERTY
Valence
SciTegic.value.DoubleValue
6.334

@<SCITEGIC>MOL_PROPERTY
Coulomb
SciTegic.value.DoubleValue
-7.439

@<SCITEGIC>MOL_PROPERTY
VdW
SciTegic.value.DoubleValue
0.951

@<SCITEGIC>MOL_PROPERTY
VdW6
SciTegic.value.DoubleValue
-2.120

@<SCITEGIC>MOL_PROPERTY
VdW12
SciTegic.value.DoubleValue
3.072

@<SCITEGIC>MOL_PROPERTY
Bond
SciTegic.value.DoubleValue
0.065

@<SCITEGIC>MOL_PROPERTY
Angle
SciTegic.value.DoubleValue
0.930

@<SCITEGIC>MOL_PROPERTY
Pdih
SciTegic.value.DoubleValue
5.339

@<SCITEGIC>MOL_PROPERTY
Idih
SciTegic.value.DoubleValue
0.000

@<SCITEGIC>MOL_PROPERTY
Tether
SciTegic.value.DoubleValue
0.000

@<TRIPOS>MOLECULE
guest-s16_confgen4.mol2 : confsearch ligand conformer 803
          13          13           1
SMALL
USER_CHARGES
 
@<TRIPOS>ATOM
       1    C1      19.682955   19.353252   21.086428 C.3        1 MOL1        -0.1693
       2    H1      19.857170   20.163560   20.368774 H          1 MOL1         0.0829
       3    H2      19.553209   18.414826   20.531693 H          1 MOL1         0.0829
       4    C2      18.590913   19.620578   22.174983 C.3        1 MOL1        -0.1768
       5    H3      18.490121   20.672108   22.469756 H          1 MOL1         0.0829
       6    H4      17.593662   19.218307   21.965076 H          1 MOL1         0.0829
       7    C3      19.476807   18.768964   23.136947 C.3        1 MOL1         0.1211
       8    H5      19.477705   19.110544   24.180084 H          1 MOL1         0.0786
       9    C4      20.685717   19.267204   22.284663 C.3        1 MOL1        -0.1768
      10    H6      21.514344   18.560057   22.167738 H          1 MOL1         0.0829
      11    H7      21.093269   20.233538   22.605714 H          1 MOL1         0.0829
      12    O1      19.242671   17.375929   23.084247 O.3        1 MOL1        -0.5515
      13    H8      19.963144   16.940830   23.587995 H          1 MOL1         0.3773
@<TRIPOS>BOND
    1     1     2    1
    2     1     3    1
    3     1     4    1
    4     4     5    1
    5     4     6    1
    6     4     7    1
    7     7     8    1
    8     1     9    1
    9     7     9    1
   10     9    10    1
   11     9    11    1
   12     7    12    1
   13    12    13    1
@<TRIPOS>SUBSTRUCTURE
       1 MOL1            1 RESIDUE      1      MOL     
@<SCITEGIC>MOL_PROPERTY
VConf Rank
SciTegic.value.IntegerValue
803

@<SCITEGIC>MOL_PROPERTY
Conf_Id
SciTegic.value.IntegerValue
20

@<SCITEGIC>MOL_PROPERTY
Delta U+W
SciTegic.value.DoubleValue
1.030

@<SCITEGIC>MOL_PROPERTY
U+W
SciTegic.value.DoubleValue
-2.101

@<SCITEGIC>MOL_PROPERTY
Grad RMS
SciTegic.value.DoubleValue
0.000000

@<SCITEGIC>MOL_PROPERTY
U
SciTegic.value.DoubleValue
0.841

@<SCITEGIC>MOL_PROPERTY
W
SciTegic.value.DoubleValue
-2.942

@<SCITEGIC>MOL_PROPERTY
W(PB)
SciTegic.value.DoubleValue
-4.530

@<SCITEGIC>MOL_PROPERTY
W(SA)
SciTegic.value.DoubleValue
1.587

@<SCITEGIC>MOL_PROPERTY
Valence
SciTegic.value.DoubleValue
6.736

@<SCITEGIC>MOL_PROPERTY
Coulomb
SciTegic.value.DoubleValue
-7.246

@<SCITEGIC>MOL_PROPERTY
VdW
SciTegic.value.DoubleValue
1.352

@<SCITEGIC>MOL_PROPERTY
VdW6
SciTegic.value.DoubleValue
-2.500

@<SCITEGIC>MOL_PROPERTY
VdW12
SciTegic.value.DoubleValue
3.851

@<SCITEGIC>MOL_PROPERTY
Bond
SciTegic.value.DoubleValue
0.063

@<SCITEGIC>MOL_PROPERTY
Angle
SciTegic.value.DoubleValue
0.687

@<SCITEGIC>MOL_PROPERTY
Pdih
SciTegic.value.DoubleValue
5.986

@<SCITEGIC>MOL_PROPERTY
Idih
SciTegic.value.DoubleValue
0.000

@<SCITEGIC>MOL_PROPERTY
Tether
SciTegic.value.DoubleValue
0.000

@<TRIPOS>MOLECULE
guest-s16_confgen4.mol2 : confsearch ligand conformer 804
          13          13           1
SMALL
USER_CHARGES
 
@<TRIPOS>ATOM
       1    C1      19.161768   20.083313   22.058625 C.3        1 MOL1        -0.1693
       2    H1      18.532594   20.453515   22.878844 H          1 MOL1         0.0829
       3    H2      19.141594   20.816684   21.243652 H          1 MOL1         0.0829
       4    C2      18.897353   18.596128   21.651534 C.3        1 MOL1        -0.1768
       5    H3      17.866088   18.242580   21.760105 H          1 MOL1         0.0829
       6    H4      19.259342   18.324023   20.652379 H          1 MOL1         0.0829
       7    C3      19.863646   18.233209   22.819320 C.3        1 MOL1         0.1211
       8    H5      19.380261   18.212290   23.805522 H          1 MOL1         0.0786
       9    C4      20.577207   19.580546   22.495793 C.3        1 MOL1        -0.1768
      10    H6      21.314664   19.528472   21.685340 H          1 MOL1         0.0829
      11    H7      21.029509   20.096387   23.349972 H          1 MOL1         0.0829
      12    O1      20.640439   17.075598   22.623502 O.3        1 MOL1        -0.5515
      13    H8      21.044139   17.150092   21.733447 H          1 MOL1         0.3773
@<TRIPOS>BOND
    1     1     2    1
    2     1     3    1
    3     1     4    1
    4     4     5    1
    5     4     6    1
    6     4     7    1
    7     7     8    1
    8     1     9    1
    9     7     9    1
   10     9    10    1
   11     9    11    1
   12     7    12    1
   13    12    13    1
@<TRIPOS>SUBSTRUCTURE
       1 MOL1            1 RESIDUE      1      MOL     
@<SCITEGIC>MOL_PROPERTY
VConf Rank
SciTegic.value.IntegerValue
804

@<SCITEGIC>MOL_PROPERTY
Conf_Id
SciTegic.value.IntegerValue
24

@<SCITEGIC>MOL_PROPERTY
Delta U+W
SciTegic.value.DoubleValue
0.356

@<SCITEGIC>MOL_PROPERTY
U+W
SciTegic.value.DoubleValue
-2.775

@<SCITEGIC>MOL_PROPERTY
Grad RMS
SciTegic.value.DoubleValue
0.000000

@<SCITEGIC>MOL_PROPERTY
U
SciTegic.value.DoubleValue
-0.184

@<SCITEGIC>MOL_PROPERTY
W
SciTegic.value.DoubleValue
-2.591

@<SCITEGIC>MOL_PROPERTY
W(PB)
SciTegic.value.DoubleValue
-4.184

@<SCITEGIC>MOL_PROPERTY
W(SA)
SciTegic.value.DoubleValue
1.593

@<SCITEGIC>MOL_PROPERTY
Valence
SciTegic.value.DoubleValue
6.840

@<SCITEGIC>MOL_PROPERTY
Coulomb
SciTegic.value.DoubleValue
-7.916

@<SCITEGIC>MOL_PROPERTY
VdW
SciTegic.value.DoubleValue
0.893

@<SCITEGIC>MOL_PROPERTY
VdW6
SciTegic.value.DoubleValue
-2.167

@<SCITEGIC>MOL_PROPERTY
VdW12
SciTegic.value.DoubleValue
3.060

@<SCITEGIC>MOL_PROPERTY
Bond
SciTegic.value.DoubleValue
0.059

@<SCITEGIC>MOL_PROPERTY
Angle
SciTegic.value.DoubleValue
0.918

@<SCITEGIC>MOL_PROPERTY
Pdih
SciTegic.value.DoubleValue
5.862

@<SCITEGIC>MOL_PROPERTY
Idih
SciTegic.value.DoubleValue
0.000

@<SCITEGIC>MOL_PROPERTY
Tether
SciTegic.value.DoubleValue
0.000

@<TRIPOS>MOLECULE
guest-s16_confgen4.mol2 : confsearch ligand conformer 805
          13          13           1
SMALL
USER_CHARGES
 
@<TRIPOS>ATOM
       1    C1      20.586395   18.367774   21.885444 C.3        1 MOL1        -0.1693
       2    H1      21.395590   18.266056   21.152485 H          1 MOL1         0.0829
       3    H2      20.670139   17.547935   22.610116 H          1 MOL1         0.0829
       4    C2      19.152202   18.581576   21.295940 C.3        1 MOL1        -0.1768
       5    H3      19.130896   19.113402   20.336918 H          1 MOL1         0.0829
       6    H4      18.526039   17.686310   21.211521 H          1 MOL1         0.0829
       7    C3      18.878622   19.490680   22.533953 C.3        1 MOL1         0.1211
       8    H5      18.237695   20.359121   22.335181 H          1 MOL1         0.0786
       9    C4      20.409832   19.789167   22.516793 C.3        1 MOL1        -0.1768
      10    H6      20.696880   20.617076   21.857106 H          1 MOL1         0.0829
      11    H7      20.878331   19.945006   23.495021 H          1 MOL1         0.0829
      12    O1      18.422049   18.806665   23.680858 O.3        1 MOL1        -0.5515
      13    H8      19.027189   18.047203   23.808673 H          1 MOL1         0.3773
@<TRIPOS>BOND
    1     1     2    1
    2     1     3    1
    3     1     4    1
    4     4     5    1
    5     4     6    1
    6     4     7    1
    7     7     8    1
    8     1     9    1
    9     7     9    1
   10     9    10    1
   11     9    11    1
   12     7    12    1
   13    12    13    1
@<TRIPOS>SUBSTRUCTURE
       1 MOL1            1 RESIDUE      1      MOL     
@<SCITEGIC>MOL_PROPERTY
VConf Rank
SciTegic.value.IntegerValue
805

@<SCITEGIC>MOL_PROPERTY
Conf_Id
SciTegic.value.IntegerValue
44

@<SCITEGIC>MOL_PROPERTY
Delta U+W
SciTegic.value.DoubleValue
0.823

@<SCITEGIC>MOL_PROPERTY
U+W
SciTegic.value.DoubleValue
-2.308

@<SCITEGIC>MOL_PROPERTY
Grad RMS
SciTegic.value.DoubleValue
0.000000

@<SCITEGIC>MOL_PROPERTY
U
SciTegic.value.DoubleValue
0.039

@<SCITEGIC>MOL_PROPERTY
W
SciTegic.value.DoubleValue
-2.348

@<SCITEGIC>MOL_PROPERTY
W(PB)
SciTegic.value.DoubleValue
-3.918

@<SCITEGIC>MOL_PROPERTY
W(SA)
SciTegic.value.DoubleValue
1.571

@<SCITEGIC>MOL_PROPERTY
Valence
SciTegic.value.DoubleValue
7.320

@<SCITEGIC>MOL_PROPERTY
Coulomb
SciTegic.value.DoubleValue
-8.530

@<SCITEGIC>MOL_PROPERTY
VdW
SciTegic.value.DoubleValue
1.249

@<SCITEGIC>MOL_PROPERTY
VdW6
SciTegic.value.DoubleValue
-2.615

@<SCITEGIC>MOL_PROPERTY
VdW12
SciTegic.value.DoubleValue
3.864

@<SCITEGIC>MOL_PROPERTY
Bond
SciTegic.value.DoubleValue
0.056

@<SCITEGIC>MOL_PROPERTY
Angle
SciTegic.value.DoubleValue
0.694

@<SCITEGIC>MOL_PROPERTY
Pdih
SciTegic.value.DoubleValue
6.570

@<SCITEGIC>MOL_PROPERTY
Idih
SciTegic.value.DoubleValue
0.000

@<SCITEGIC>MOL_PROPERTY
Tether
SciTegic.value.DoubleValue
0.000

@<TRIPOS>MOLECULE
guest-s16_confgen4.mol2 : confsearch ligand conformer 806
          13          13           1
SMALL
USER_CHARGES
 
@<TRIPOS>ATOM
       1    C1      19.343874   18.155104   21.327121 C.3        1 MOL1        -0.1693
       2    H1      19.060474   17.178757   21.741870 H          1 MOL1         0.0829
       3    H2      19.223188   18.121454   20.237791 H          1 MOL1         0.0829
       4    C2      20.706630   18.717713   21.850261 C.3        1 MOL1        -0.1768
       5    H3      21.477142   17.975990   22.087155 H          1 MOL1         0.0829
       6    H4      21.151455   19.501024   21.224050 H          1 MOL1         0.0829
       7    C3      19.882993   19.249736   23.061633 C.3        1 MOL1         0.1211
       8    H5      19.714349   18.499383   23.846229 H          1 MOL1         0.0786
       9    C4      18.703628   19.384915   22.051674 C.3        1 MOL1        -0.1768
      10    H6      17.700583   19.232611   22.465046 H          1 MOL1         0.0829
      11    H7      18.707746   20.313805   21.467772 H          1 MOL1         0.0829
      12    O1      20.342420   20.459981   23.617313 O.3        1 MOL1        -0.5515
      13    H8      19.658245   20.767434   24.250227 H          1 MOL1         0.3773
@<TRIPOS>BOND
    1     1     2    1
    2     1     3    1
    3     1     4    1
    4     4     5    1
    5     4     6    1
    6     4     7    1
    7     7     8    1
    8     1     9    1
    9     7     9    1
   10     9    10    1
   11     9    11    1
   12     7    12    1
   13    12    13    1
@<TRIPOS>SUBSTRUCTURE
       1 MOL1            1 RESIDUE      1      MOL     
@<SCITEGIC>MOL_PROPERTY
VConf Rank
SciTegic.value.IntegerValue
806

@<SCITEGIC>MOL_PROPERTY
Conf_Id
SciTegic.value.IntegerValue
22

@<SCITEGIC>MOL_PROPERTY
Delta U+W
SciTegic.value.DoubleValue
0.000

@<SCITEGIC>MOL_PROPERTY
U+W
SciTegic.value.DoubleValue
-3.131

@<SCITEGIC>MOL_PROPERTY
Grad RMS
SciTegic.value.DoubleValue
0.000000

@<SCITEGIC>MOL_PROPERTY
U
SciTegic.value.DoubleValue
-0.154

@<SCITEGIC>MOL_PROPERTY
W
SciTegic.value.DoubleValue
-2.978

@<SCITEGIC>MOL_PROPERTY
W(PB)
SciTegic.value.DoubleValue
-4.579

@<SCITEGIC>MOL_PROPERTY
W(SA)
SciTegic.value.DoubleValue
1.601

@<SCITEGIC>MOL_PROPERTY
Valence
SciTegic.value.DoubleValue
6.333

@<SCITEGIC>MOL_PROPERTY
Coulomb
SciTegic.value.DoubleValue
-7.439

@<SCITEGIC>MOL_PROPERTY
VdW
SciTegic.value.DoubleValue
0.952

@<SCITEGIC>MOL_PROPERTY
VdW6
SciTegic.value.DoubleValue
-2.120

@<SCITEGIC>MOL_PROPERTY
VdW12
SciTegic.value.DoubleValue
3.072

@<SCITEGIC>MOL_PROPERTY
Bond
SciTegic.value.DoubleValue
0.065

@<SCITEGIC>MOL_PROPERTY
Angle
SciTegic.value.DoubleValue
0.931

@<SCITEGIC>MOL_PROPERTY
Pdih
SciTegic.value.DoubleValue
5.338

@<SCITEGIC>MOL_PROPERTY
Idih
SciTegic.value.DoubleValue
0.000

@<SCITEGIC>MOL_PROPERTY
Tether
SciTegic.value.DoubleValue
0.000

@<TRIPOS>MOLECULE
guest-s16_confgen4.mol2 : confsearch ligand conformer 807
          13          13           1
SMALL
USER_CHARGES
 
@<TRIPOS>ATOM
       1    C1      20.616883   18.673425   23.084091 C.3        1 MOL1        -0.1693
       2    H1      20.383399   17.882189   23.808672 H          1 MOL1         0.0829
       3    H2      21.614437   19.069993   23.307601 H          1 MOL1         0.0829
       4    C2      19.484389   19.734269   22.885609 C.3        1 MOL1        -0.1768
       5    H3      19.815270   20.679004   22.436401 H          1 MOL1         0.0829
       6    H4      18.873156   19.957760   23.766869 H          1 MOL1         0.0829
       7    C3      18.874601   18.715677   21.875746 C.3        1 MOL1         0.1211
       8    H5      18.271264   17.927560   22.346828 H          1 MOL1         0.0786
       9    C4      20.347449   18.293431   21.590667 C.3        1 MOL1        -0.1768
      10    H6      20.866068   18.921442   20.855669 H          1 MOL1         0.0829
      11    H7      20.498340   17.241621   21.324418 H          1 MOL1         0.0829
      12    O1      18.189457   19.285342   20.784595 O.3        1 MOL1        -0.5515
      13    H8      17.347388   19.652666   21.129843 H          1 MOL1         0.3773
@<TRIPOS>BOND
    1     1     2    1
    2     1     3    1
    3     1     4    1
    4     4     5    1
    5     4     6    1
    6     4     7    1
    7     7     8    1
    8     1     9    1
    9     7     9    1
   10     9    10    1
   11     9    11    1
   12     7    12    1
   13    12    13    1
@<TRIPOS>SUBSTRUCTURE
       1 MOL1            1 RESIDUE      1      MOL     
@<SCITEGIC>MOL_PROPERTY
VConf Rank
SciTegic.value.IntegerValue
807

@<SCITEGIC>MOL_PROPERTY
Conf_Id
SciTegic.value.IntegerValue
19

@<SCITEGIC>MOL_PROPERTY
Delta U+W
SciTegic.value.DoubleValue
-0.011

@<SCITEGIC>MOL_PROPERTY
U+W
SciTegic.value.DoubleValue
-3.142

@<SCITEGIC>MOL_PROPERTY
Grad RMS
SciTegic.value.DoubleValue
0.000000

@<SCITEGIC>MOL_PROPERTY
U
SciTegic.value.DoubleValue
-0.154

@<SCITEGIC>MOL_PROPERTY
W
SciTegic.value.DoubleValue
-2.989

@<SCITEGIC>MOL_PROPERTY
W(PB)
SciTegic.value.DoubleValue
-4.588

@<SCITEGIC>MOL_PROPERTY
W(SA)
SciTegic.value.DoubleValue
1.599

@<SCITEGIC>MOL_PROPERTY
Valence
SciTegic.value.DoubleValue
6.334

@<SCITEGIC>MOL_PROPERTY
Coulomb
SciTegic.value.DoubleValue
-7.439

@<SCITEGIC>MOL_PROPERTY
VdW
SciTegic.value.DoubleValue
0.951

@<SCITEGIC>MOL_PROPERTY
VdW6
SciTegic.value.DoubleValue
-2.120

@<SCITEGIC>MOL_PROPERTY
VdW12
SciTegic.value.DoubleValue
3.072

@<SCITEGIC>MOL_PROPERTY
Bond
SciTegic.value.DoubleValue
0.065

@<SCITEGIC>MOL_PROPERTY
Angle
SciTegic.value.DoubleValue
0.930

@<SCITEGIC>MOL_PROPERTY
Pdih
SciTegic.value.DoubleValue
5.339

@<SCITEGIC>MOL_PROPERTY
Idih
SciTegic.value.DoubleValue
0.000

@<SCITEGIC>MOL_PROPERTY
Tether
SciTegic.value.DoubleValue
0.000

@<TRIPOS>MOLECULE
guest-s16_confgen4.mol2 : confsearch ligand conformer 808
          13          13           1
SMALL
USER_CHARGES
 
@<TRIPOS>ATOM
       1    C1      18.864832   19.422296   21.390043 C.3        1 MOL1        -0.1693
       2    H1      18.430535   20.289312   20.878529 H          1 MOL1         0.0829
       3    H2      18.531826   18.509777   20.878552 H          1 MOL1         0.0829
       4    C2      18.704769   19.389715   22.946413 C.3        1 MOL1        -0.1768
       5    H3      18.681998   20.377552   23.422256 H          1 MOL1         0.0829
       6    H4      17.868704   18.795701   23.331817 H          1 MOL1         0.0829
       7    C3      20.102090   18.695627   22.980534 C.3        1 MOL1         0.1211
       8    H5      20.728761   18.971629   23.838391 H          1 MOL1         0.0786
       9    C4      20.403190   19.486886   21.669296 C.3        1 MOL1        -0.1768
      10    H6      21.045422   18.980767   20.940096 H          1 MOL1         0.0829
      11    H7      20.792286   20.498864   21.835063 H          1 MOL1         0.0829
      12    O1      20.071582   17.289797   22.836120 O.3        1 MOL1        -0.5515
      13    H8      20.995692   16.991772   22.696990 H          1 MOL1         0.3773
@<TRIPOS>BOND
    1     1     2    1
    2     1     3    1
    3     1     4    1
    4     4     5    1
    5     4     6    1
    6     4     7    1
    7     7     8    1
    8     1     9    1
    9     7     9    1
   10     9    10    1
   11     9    11    1
   12     7    12    1
   13    12    13    1
@<TRIPOS>SUBSTRUCTURE
       1 MOL1            1 RESIDUE      1      MOL     
@<SCITEGIC>MOL_PROPERTY
VConf Rank
SciTegic.value.IntegerValue
808

@<SCITEGIC>MOL_PROPERTY
Conf_Id
SciTegic.value.IntegerValue
20

@<SCITEGIC>MOL_PROPERTY
Delta U+W
SciTegic.value.DoubleValue
1.030

@<SCITEGIC>MOL_PROPERTY
U+W
SciTegic.value.DoubleValue
-2.101

@<SCITEGIC>MOL_PROPERTY
Grad RMS
SciTegic.value.DoubleValue
0.000000

@<SCITEGIC>MOL_PROPERTY
U
SciTegic.value.DoubleValue
0.841

@<SCITEGIC>MOL_PROPERTY
W
SciTegic.value.DoubleValue
-2.942

@<SCITEGIC>MOL_PROPERTY
W(PB)
SciTegic.value.DoubleValue
-4.530

@<SCITEGIC>MOL_PROPERTY
W(SA)
SciTegic.value.DoubleValue
1.587

@<SCITEGIC>MOL_PROPERTY
Valence
SciTegic.value.DoubleValue
6.736

@<SCITEGIC>MOL_PROPERTY
Coulomb
SciTegic.value.DoubleValue
-7.246

@<SCITEGIC>MOL_PROPERTY
VdW
SciTegic.value.DoubleValue
1.352

@<SCITEGIC>MOL_PROPERTY
VdW6
SciTegic.value.DoubleValue
-2.500

@<SCITEGIC>MOL_PROPERTY
VdW12
SciTegic.value.DoubleValue
3.851

@<SCITEGIC>MOL_PROPERTY
Bond
SciTegic.value.DoubleValue
0.063

@<SCITEGIC>MOL_PROPERTY
Angle
SciTegic.value.DoubleValue
0.687

@<SCITEGIC>MOL_PROPERTY
Pdih
SciTegic.value.DoubleValue
5.986

@<SCITEGIC>MOL_PROPERTY
Idih
SciTegic.value.DoubleValue
0.000

@<SCITEGIC>MOL_PROPERTY
Tether
SciTegic.value.DoubleValue
0.000

@<TRIPOS>MOLECULE
guest-s16_confgen4.mol2 : confsearch ligand conformer 809
          13          13           1
SMALL
USER_CHARGES
 
@<TRIPOS>ATOM
       1    C1      20.919632   18.449041   22.098041 C.3        1 MOL1        -0.1693
       2    H1      21.594555   18.513486   22.961751 H          1 MOL1         0.0829
       3    H2      21.441900   17.933079   21.283523 H          1 MOL1         0.0829
       4    C2      20.212449   19.792024   21.719032 C.3        1 MOL1        -0.1768
       5    H3      20.783977   20.707639   21.906906 H          1 MOL1         0.0829
       6    H4      19.816435   19.827879   20.696645 H          1 MOL1         0.0829
       7    C3      19.169543   19.408985   22.812093 C.3        1 MOL1         0.1211
       8    H5      19.476210   19.677727   23.832106 H          1 MOL1         0.0786
       9    C4      19.481257   17.930661   22.429277 C.3        1 MOL1        -0.1768
      10    H6      18.921813   17.550478   21.565638 H          1 MOL1         0.0829
      11    H7      19.407028   17.202411   23.244404 H          1 MOL1         0.0829
      12    O1      17.850176   19.832406   22.563493 O.3        1 MOL1        -0.5515
      13    H8      17.633626   19.567021   21.645127 H          1 MOL1         0.3773
@<TRIPOS>BOND
    1     1     2    1
    2     1     3    1
    3     1     4    1
    4     4     5    1
    5     4     6    1
    6     4     7    1
    7     7     8    1
    8     1     9    1
    9     7     9    1
   10     9    10    1
   11     9    11    1
   12     7    12    1
   13    12    13    1
@<TRIPOS>SUBSTRUCTURE
       1 MOL1            1 RESIDUE      1      MOL     
@<SCITEGIC>MOL_PROPERTY
VConf Rank
SciTegic.value.IntegerValue
809

@<SCITEGIC>MOL_PROPERTY
Conf_Id
SciTegic.value.IntegerValue
24

@<SCITEGIC>MOL_PROPERTY
Delta U+W
SciTegic.value.DoubleValue
0.356

@<SCITEGIC>MOL_PROPERTY
U+W
SciTegic.value.DoubleValue
-2.775

@<SCITEGIC>MOL_PROPERTY
Grad RMS
SciTegic.value.DoubleValue
0.000000

@<SCITEGIC>MOL_PROPERTY
U
SciTegic.value.DoubleValue
-0.184

@<SCITEGIC>MOL_PROPERTY
W
SciTegic.value.DoubleValue
-2.591

@<SCITEGIC>MOL_PROPERTY
W(PB)
SciTegic.value.DoubleValue
-4.184

@<SCITEGIC>MOL_PROPERTY
W(SA)
SciTegic.value.DoubleValue
1.593

@<SCITEGIC>MOL_PROPERTY
Valence
SciTegic.value.DoubleValue
6.840

@<SCITEGIC>MOL_PROPERTY
Coulomb
SciTegic.value.DoubleValue
-7.916

@<SCITEGIC>MOL_PROPERTY
VdW
SciTegic.value.DoubleValue
0.893

@<SCITEGIC>MOL_PROPERTY
VdW6
SciTegic.value.DoubleValue
-2.167

@<SCITEGIC>MOL_PROPERTY
VdW12
SciTegic.value.DoubleValue
3.060

@<SCITEGIC>MOL_PROPERTY
Bond
SciTegic.value.DoubleValue
0.059

@<SCITEGIC>MOL_PROPERTY
Angle
SciTegic.value.DoubleValue
0.918

@<SCITEGIC>MOL_PROPERTY
Pdih
SciTegic.value.DoubleValue
5.862

@<SCITEGIC>MOL_PROPERTY
Idih
SciTegic.value.DoubleValue
0.000

@<SCITEGIC>MOL_PROPERTY
Tether
SciTegic.value.DoubleValue
0.000

@<TRIPOS>MOLECULE
guest-s16_confgen4.mol2 : confsearch ligand conformer 810
          13          13           1
SMALL
USER_CHARGES
 
@<TRIPOS>ATOM
       1    C1      19.351438   19.359981   23.208027 C.3        1 MOL1        -0.1693
       2    H1      19.421288   20.176958   23.936068 H          1 MOL1         0.0829
       3    H2      18.667619   18.599204   23.605401 H          1 MOL1         0.0829
       4    C2      20.712469   18.805181   22.669575 C.3        1 MOL1        -0.1768
       5    H3      21.519489   19.546774   22.627481 H          1 MOL1         0.0829
       6    H4      21.094276   17.902645   23.159841 H          1 MOL1         0.0829
       7    C3      19.979538   18.584437   21.310136 C.3        1 MOL1         0.1211
       8    H5      20.596952   18.760280   20.419986 H          1 MOL1         0.0786
       9    C4      19.074721   19.785010   21.727178 C.3        1 MOL1        -0.1768
      10    H6      19.480190   20.766844   21.454023 H          1 MOL1         0.0829
      11    H7      18.031009   19.735335   21.397170 H          1 MOL1         0.0829
      12    O1      19.307069   17.349078   21.194366 O.3        1 MOL1        -0.5515
      13    H8      18.775799   17.246245   22.010755 H          1 MOL1         0.3773
@<TRIPOS>BOND
    1     1     2    1
    2     1     3    1
    3     1     4    1
    4     4     5    1
    5     4     6    1
    6     4     7    1
    7     7     8    1
    8     1     9    1
    9     7     9    1
   10     9    10    1
   11     9    11    1
   12     7    12    1
   13    12    13    1
@<TRIPOS>SUBSTRUCTURE
       1 MOL1            1 RESIDUE      1      MOL     
@<SCITEGIC>MOL_PROPERTY
VConf Rank
SciTegic.value.IntegerValue
810

@<SCITEGIC>MOL_PROPERTY
Conf_Id
SciTegic.value.IntegerValue
44

@<SCITEGIC>MOL_PROPERTY
Delta U+W
SciTegic.value.DoubleValue
0.823

@<SCITEGIC>MOL_PROPERTY
U+W
SciTegic.value.DoubleValue
-2.308

@<SCITEGIC>MOL_PROPERTY
Grad RMS
SciTegic.value.DoubleValue
0.000000

@<SCITEGIC>MOL_PROPERTY
U
SciTegic.value.DoubleValue
0.039

@<SCITEGIC>MOL_PROPERTY
W
SciTegic.value.DoubleValue
-2.348

@<SCITEGIC>MOL_PROPERTY
W(PB)
SciTegic.value.DoubleValue
-3.918

@<SCITEGIC>MOL_PROPERTY
W(SA)
SciTegic.value.DoubleValue
1.571

@<SCITEGIC>MOL_PROPERTY
Valence
SciTegic.value.DoubleValue
7.320

@<SCITEGIC>MOL_PROPERTY
Coulomb
SciTegic.value.DoubleValue
-8.530

@<SCITEGIC>MOL_PROPERTY
VdW
SciTegic.value.DoubleValue
1.249

@<SCITEGIC>MOL_PROPERTY
VdW6
SciTegic.value.DoubleValue
-2.615

@<SCITEGIC>MOL_PROPERTY
VdW12
SciTegic.value.DoubleValue
3.864

@<SCITEGIC>MOL_PROPERTY
Bond
SciTegic.value.DoubleValue
0.056

@<SCITEGIC>MOL_PROPERTY
Angle
SciTegic.value.DoubleValue
0.694

@<SCITEGIC>MOL_PROPERTY
Pdih
SciTegic.value.DoubleValue
6.570

@<SCITEGIC>MOL_PROPERTY
Idih
SciTegic.value.DoubleValue
0.000

@<SCITEGIC>MOL_PROPERTY
Tether
SciTegic.value.DoubleValue
0.000

@<TRIPOS>MOLECULE
guest-s16_confgen4.mol2 : confsearch ligand conformer 811
          13          13           1
SMALL
USER_CHARGES
 
@<TRIPOS>ATOM
       1    C1      20.304728   18.644249   21.163953 C.3        1 MOL1        -0.1693
       2    H1      19.646555   18.507107   20.295859 H          1 MOL1         0.0829
       3    H2      21.338759   18.452685   20.853436 H          1 MOL1         0.0829
       4    C2      19.832028   17.915728   22.465152 C.3        1 MOL1        -0.1768
       5    H3      19.298723   16.969485   22.323128 H          1 MOL1         0.0829
       6    H4      20.614180   17.770091   23.220542 H          1 MOL1         0.0829
       7    C3      18.936584   19.170100   22.696619 C.3        1 MOL1         0.1211
       8    H5      17.984455   19.141618   22.149168 H          1 MOL1         0.0786
       9    C4      20.061984   19.964417   21.967421 C.3        1 MOL1        -0.1768
      10    H6      19.733644   20.831049   21.383201 H          1 MOL1         0.0829
      11    H7      20.896260   20.268432   22.611899 H          1 MOL1         0.0829
      12    O1      18.728047   19.520692   24.045004 O.3        1 MOL1        -0.5515
      13    H8      18.296780   20.402255   24.052761 H          1 MOL1         0.3773
@<TRIPOS>BOND
    1     1     2    1
    2     1     3    1
    3     1     4    1
    4     4     5    1
    5     4     6    1
    6     4     7    1
    7     7     8    1
    8     1     9    1
    9     7     9    1
   10     9    10    1
   11     9    11    1
   12     7    12    1
   13    12    13    1
@<TRIPOS>SUBSTRUCTURE
       1 MOL1            1 RESIDUE      1      MOL     
@<SCITEGIC>MOL_PROPERTY
VConf Rank
SciTegic.value.IntegerValue
811

@<SCITEGIC>MOL_PROPERTY
Conf_Id
SciTegic.value.IntegerValue
22

@<SCITEGIC>MOL_PROPERTY
Delta U+W
SciTegic.value.DoubleValue
0.000

@<SCITEGIC>MOL_PROPERTY
U+W
SciTegic.value.DoubleValue
-3.131

@<SCITEGIC>MOL_PROPERTY
Grad RMS
SciTegic.value.DoubleValue
0.000000

@<SCITEGIC>MOL_PROPERTY
U
SciTegic.value.DoubleValue
-0.154

@<SCITEGIC>MOL_PROPERTY
W
SciTegic.value.DoubleValue
-2.978

@<SCITEGIC>MOL_PROPERTY
W(PB)
SciTegic.value.DoubleValue
-4.579

@<SCITEGIC>MOL_PROPERTY
W(SA)
SciTegic.value.DoubleValue
1.601

@<SCITEGIC>MOL_PROPERTY
Valence
SciTegic.value.DoubleValue
6.333

@<SCITEGIC>MOL_PROPERTY
Coulomb
SciTegic.value.DoubleValue
-7.439

@<SCITEGIC>MOL_PROPERTY
VdW
SciTegic.value.DoubleValue
0.952

@<SCITEGIC>MOL_PROPERTY
VdW6
SciTegic.value.DoubleValue
-2.120

@<SCITEGIC>MOL_PROPERTY
VdW12
SciTegic.value.DoubleValue
3.072

@<SCITEGIC>MOL_PROPERTY
Bond
SciTegic.value.DoubleValue
0.065

@<SCITEGIC>MOL_PROPERTY
Angle
SciTegic.value.DoubleValue
0.931

@<SCITEGIC>MOL_PROPERTY
Pdih
SciTegic.value.DoubleValue
5.338

@<SCITEGIC>MOL_PROPERTY
Idih
SciTegic.value.DoubleValue
0.000

@<SCITEGIC>MOL_PROPERTY
Tether
SciTegic.value.DoubleValue
0.000

@<TRIPOS>MOLECULE
guest-s16_confgen4.mol2 : confsearch ligand conformer 812
          13          13           1
SMALL
USER_CHARGES
 
@<TRIPOS>ATOM
       1    C1      19.261756   17.683709   22.498042 C.3        1 MOL1        -0.1693
       2    H1      20.102046   17.020477   22.742221 H          1 MOL1         0.0829
       3    H2      18.339545   17.090666   22.485178 H          1 MOL1         0.0829
       4    C2      19.498694   18.612457   21.261670 C.3        1 MOL1        -0.1768
       5    H3      18.584535   19.024659   20.816478 H          1 MOL1         0.0829
       6    H4      20.125666   18.201381   20.462861 H          1 MOL1         0.0829
       7    C3      20.215244   19.563841   22.266966 C.3        1 MOL1         0.1211
       8    H5      21.262081   19.295989   22.465583 H          1 MOL1         0.0786
       9    C4      19.213681   19.010694   23.325146 C.3        1 MOL1        -0.1768
      10    H6      18.238053   19.512362   23.333224 H          1 MOL1         0.0829
      11    H7      19.589348   18.954107   24.352587 H          1 MOL1         0.0829
      12    O1      20.095483   20.938962   21.985453 O.3        1 MOL1        -0.5515
      13    H8      20.655966   21.125078   21.201602 H          1 MOL1         0.3773
@<TRIPOS>BOND
    1     1     2    1
    2     1     3    1
    3     1     4    1
    4     4     5    1
    5     4     6    1
    6     4     7    1
    7     7     8    1
    8     1     9    1
    9     7     9    1
   10     9    10    1
   11     9    11    1
   12     7    12    1
   13    12    13    1
@<TRIPOS>SUBSTRUCTURE
       1 MOL1            1 RESIDUE      1      MOL     
@<SCITEGIC>MOL_PROPERTY
VConf Rank
SciTegic.value.IntegerValue
812

@<SCITEGIC>MOL_PROPERTY
Conf_Id
SciTegic.value.IntegerValue
19

@<SCITEGIC>MOL_PROPERTY
Delta U+W
SciTegic.value.DoubleValue
-0.011

@<SCITEGIC>MOL_PROPERTY
U+W
SciTegic.value.DoubleValue
-3.142

@<SCITEGIC>MOL_PROPERTY
Grad RMS
SciTegic.value.DoubleValue
0.000000

@<SCITEGIC>MOL_PROPERTY
U
SciTegic.value.DoubleValue
-0.154

@<SCITEGIC>MOL_PROPERTY
W
SciTegic.value.DoubleValue
-2.989

@<SCITEGIC>MOL_PROPERTY
W(PB)
SciTegic.value.DoubleValue
-4.588

@<SCITEGIC>MOL_PROPERTY
W(SA)
SciTegic.value.DoubleValue
1.599

@<SCITEGIC>MOL_PROPERTY
Valence
SciTegic.value.DoubleValue
6.334

@<SCITEGIC>MOL_PROPERTY
Coulomb
SciTegic.value.DoubleValue
-7.439

@<SCITEGIC>MOL_PROPERTY
VdW
SciTegic.value.DoubleValue
0.951

@<SCITEGIC>MOL_PROPERTY
VdW6
SciTegic.value.DoubleValue
-2.120

@<SCITEGIC>MOL_PROPERTY
VdW12
SciTegic.value.DoubleValue
3.072

@<SCITEGIC>MOL_PROPERTY
Bond
SciTegic.value.DoubleValue
0.065

@<SCITEGIC>MOL_PROPERTY
Angle
SciTegic.value.DoubleValue
0.930

@<SCITEGIC>MOL_PROPERTY
Pdih
SciTegic.value.DoubleValue
5.339

@<SCITEGIC>MOL_PROPERTY
Idih
SciTegic.value.DoubleValue
0.000

@<SCITEGIC>MOL_PROPERTY
Tether
SciTegic.value.DoubleValue
0.000

@<TRIPOS>MOLECULE
guest-s16_confgen4.mol2 : confsearch ligand conformer 813
          13          13           1
SMALL
USER_CHARGES
 
@<TRIPOS>ATOM
       1    C1      19.426122   19.833449   21.349083 C.3        1 MOL1        -0.1693
       2    H1      18.824525   20.682038   21.002738 H          1 MOL1         0.0829
       3    H2      20.192336   19.614830   20.593882 H          1 MOL1         0.0829
       4    C2      18.629115   18.582068   21.846876 C.3        1 MOL1        -0.1768
       5    H3      17.657371   18.812285   22.300176 H          1 MOL1         0.0829
       6    H4      18.493253   17.776459   21.116856 H          1 MOL1         0.0829
       7    C3      19.782607   18.375620   22.877537 C.3        1 MOL1         0.1211
       8    H5      19.460237   17.989423   23.853110 H          1 MOL1         0.0786
       9    C4      19.965277   19.924443   22.815279 C.3        1 MOL1        -0.1768
      10    H6      20.991384   20.291579   22.927831 H          1 MOL1         0.0829
      11    H7      19.317303   20.480827   23.503423 H          1 MOL1         0.0829
      12    O1      20.880622   17.625004   22.398910 O.3        1 MOL1        -0.5515
      13    H8      21.601537   17.711673   23.058398 H          1 MOL1         0.3773
@<TRIPOS>BOND
    1     1     2    1
    2     1     3    1
    3     1     4    1
    4     4     5    1
    5     4     6    1
    6     4     7    1
    7     7     8    1
    8     1     9    1
    9     7     9    1
   10     9    10    1
   11     9    11    1
   12     7    12    1
   13    12    13    1
@<TRIPOS>SUBSTRUCTURE
       1 MOL1            1 RESIDUE      1      MOL     
@<SCITEGIC>MOL_PROPERTY
VConf Rank
SciTegic.value.IntegerValue
813

@<SCITEGIC>MOL_PROPERTY
Conf_Id
SciTegic.value.IntegerValue
20

@<SCITEGIC>MOL_PROPERTY
Delta U+W
SciTegic.value.DoubleValue
1.030

@<SCITEGIC>MOL_PROPERTY
U+W
SciTegic.value.DoubleValue
-2.101

@<SCITEGIC>MOL_PROPERTY
Grad RMS
SciTegic.value.DoubleValue
0.000000

@<SCITEGIC>MOL_PROPERTY
U
SciTegic.value.DoubleValue
0.841

@<SCITEGIC>MOL_PROPERTY
W
SciTegic.value.DoubleValue
-2.942

@<SCITEGIC>MOL_PROPERTY
W(PB)
SciTegic.value.DoubleValue
-4.530

@<SCITEGIC>MOL_PROPERTY
W(SA)
SciTegic.value.DoubleValue
1.587

@<SCITEGIC>MOL_PROPERTY
Valence
SciTegic.value.DoubleValue
6.736

@<SCITEGIC>MOL_PROPERTY
Coulomb
SciTegic.value.DoubleValue
-7.246

@<SCITEGIC>MOL_PROPERTY
VdW
SciTegic.value.DoubleValue
1.352

@<SCITEGIC>MOL_PROPERTY
VdW6
SciTegic.value.DoubleValue
-2.500

@<SCITEGIC>MOL_PROPERTY
VdW12
SciTegic.value.DoubleValue
3.851

@<SCITEGIC>MOL_PROPERTY
Bond
SciTegic.value.DoubleValue
0.063

@<SCITEGIC>MOL_PROPERTY
Angle
SciTegic.value.DoubleValue
0.687

@<SCITEGIC>MOL_PROPERTY
Pdih
SciTegic.value.DoubleValue
5.986

@<SCITEGIC>MOL_PROPERTY
Idih
SciTegic.value.DoubleValue
0.000

@<SCITEGIC>MOL_PROPERTY
Tether
SciTegic.value.DoubleValue
0.000

@<TRIPOS>MOLECULE
guest-s16_confgen4.mol2 : confsearch ligand conformer 814
          13          13           1
SMALL
USER_CHARGES
 
@<TRIPOS>ATOM
       1    C1      19.983998   19.488692   23.352282 C.3        1 MOL1        -0.1693
       2    H1      20.823038   20.193113   23.426267 H          1 MOL1         0.0829
       3    H2      19.512311   19.401448   24.338346 H          1 MOL1         0.0829
       4    C2      20.322012   18.142455   22.630653 C.3        1 MOL1        -0.1768
       5    H3      21.345434   17.772019   22.755857 H          1 MOL1         0.0829
       6    H4      19.623123   17.323203   22.839865 H          1 MOL1         0.0829
       7    C3      20.041124   18.921644   21.310380 C.3        1 MOL1         0.1211
       8    H5      20.896756   19.509329   20.950915 H          1 MOL1         0.0786
       9    C4      19.018161   19.746072   22.148841 C.3        1 MOL1        -0.1768
      10    H6      18.027846   19.285249   22.250363 H          1 MOL1         0.0829
      11    H7      18.890083   20.791874   21.848529 H          1 MOL1         0.0829
      12    O1      19.489338   18.158591   20.263910 O.3        1 MOL1        -0.5515
      13    H8      18.735378   17.659149   20.641828 H          1 MOL1         0.3773
@<TRIPOS>BOND
    1     1     2    1
    2     1     3    1
    3     1     4    1
    4     4     5    1
    5     4     6    1
    6     4     7    1
    7     7     8    1
    8     1     9    1
    9     7     9    1
   10     9    10    1
   11     9    11    1
   12     7    12    1
   13    12    13    1
@<TRIPOS>SUBSTRUCTURE
       1 MOL1            1 RESIDUE      1      MOL     
@<SCITEGIC>MOL_PROPERTY
VConf Rank
SciTegic.value.IntegerValue
814

@<SCITEGIC>MOL_PROPERTY
Conf_Id
SciTegic.value.IntegerValue
24

@<SCITEGIC>MOL_PROPERTY
Delta U+W
SciTegic.value.DoubleValue
0.356

@<SCITEGIC>MOL_PROPERTY
U+W
SciTegic.value.DoubleValue
-2.775

@<SCITEGIC>MOL_PROPERTY
Grad RMS
SciTegic.value.DoubleValue
0.000000

@<SCITEGIC>MOL_PROPERTY
U
SciTegic.value.DoubleValue
-0.184

@<SCITEGIC>MOL_PROPERTY
W
SciTegic.value.DoubleValue
-2.591

@<SCITEGIC>MOL_PROPERTY
W(PB)
SciTegic.value.DoubleValue
-4.184

@<SCITEGIC>MOL_PROPERTY
W(SA)
SciTegic.value.DoubleValue
1.593

@<SCITEGIC>MOL_PROPERTY
Valence
SciTegic.value.DoubleValue
6.840

@<SCITEGIC>MOL_PROPERTY
Coulomb
SciTegic.value.DoubleValue
-7.916

@<SCITEGIC>MOL_PROPERTY
VdW
SciTegic.value.DoubleValue
0.893

@<SCITEGIC>MOL_PROPERTY
VdW6
SciTegic.value.DoubleValue
-2.167

@<SCITEGIC>MOL_PROPERTY
VdW12
SciTegic.value.DoubleValue
3.060

@<SCITEGIC>MOL_PROPERTY
Bond
SciTegic.value.DoubleValue
0.059

@<SCITEGIC>MOL_PROPERTY
Angle
SciTegic.value.DoubleValue
0.918

@<SCITEGIC>MOL_PROPERTY
Pdih
SciTegic.value.DoubleValue
5.862

@<SCITEGIC>MOL_PROPERTY
Idih
SciTegic.value.DoubleValue
0.000

@<SCITEGIC>MOL_PROPERTY
Tether
SciTegic.value.DoubleValue
0.000

@<TRIPOS>MOLECULE
guest-s16_confgen4.mol2 : confsearch ligand conformer 815
          13          13           1
SMALL
USER_CHARGES
 
@<TRIPOS>ATOM
       1    C1      19.911387   19.270875   23.271428 C.3        1 MOL1        -0.1693
       2    H1      20.548597   19.870003   23.932776 H          1 MOL1         0.0829
       3    H2      19.176916   18.737243   23.887939 H          1 MOL1         0.0829
       4    C2      20.658911   18.382865   22.221292 C.3        1 MOL1        -0.1768
       5    H3      21.617519   18.793112   21.881022 H          1 MOL1         0.0829
       6    H4      20.807387   17.332292   22.495080 H          1 MOL1         0.0829
       7    C3      19.464831   18.674880   21.260620 C.3        1 MOL1         0.1211
       8    H5      19.739335   18.780197   20.203244 H          1 MOL1         0.0786
       9    C4      19.312420   20.020730   22.034864 C.3        1 MOL1        -0.1768
      10    H6      19.940889   20.832558   21.648885 H          1 MOL1         0.0829
      11    H7      18.288893   20.395781   22.146383 H          1 MOL1         0.0829
      12    O1      18.372050   17.791175   21.389551 O.3        1 MOL1        -0.5515
      13    H8      18.172723   17.736260   22.346925 H          1 MOL1         0.3773
@<TRIPOS>BOND
    1     1     2    1
    2     1     3    1
    3     1     4    1
    4     4     5    1
    5     4     6    1
    6     4     7    1
    7     7     8    1
    8     1     9    1
    9     7     9    1
   10     9    10    1
   11     9    11    1
   12     7    12    1
   13    12    13    1
@<TRIPOS>SUBSTRUCTURE
       1 MOL1            1 RESIDUE      1      MOL     
@<SCITEGIC>MOL_PROPERTY
VConf Rank
SciTegic.value.IntegerValue
815

@<SCITEGIC>MOL_PROPERTY
Conf_Id
SciTegic.value.IntegerValue
44

@<SCITEGIC>MOL_PROPERTY
Delta U+W
SciTegic.value.DoubleValue
0.823

@<SCITEGIC>MOL_PROPERTY
U+W
SciTegic.value.DoubleValue
-2.308

@<SCITEGIC>MOL_PROPERTY
Grad RMS
SciTegic.value.DoubleValue
0.000000

@<SCITEGIC>MOL_PROPERTY
U
SciTegic.value.DoubleValue
0.039

@<SCITEGIC>MOL_PROPERTY
W
SciTegic.value.DoubleValue
-2.348

@<SCITEGIC>MOL_PROPERTY
W(PB)
SciTegic.value.DoubleValue
-3.918

@<SCITEGIC>MOL_PROPERTY
W(SA)
SciTegic.value.DoubleValue
1.571

@<SCITEGIC>MOL_PROPERTY
Valence
SciTegic.value.DoubleValue
7.320

@<SCITEGIC>MOL_PROPERTY
Coulomb
SciTegic.value.DoubleValue
-8.530

@<SCITEGIC>MOL_PROPERTY
VdW
SciTegic.value.DoubleValue
1.249

@<SCITEGIC>MOL_PROPERTY
VdW6
SciTegic.value.DoubleValue
-2.615

@<SCITEGIC>MOL_PROPERTY
VdW12
SciTegic.value.DoubleValue
3.864

@<SCITEGIC>MOL_PROPERTY
Bond
SciTegic.value.DoubleValue
0.056

@<SCITEGIC>MOL_PROPERTY
Angle
SciTegic.value.DoubleValue
0.694

@<SCITEGIC>MOL_PROPERTY
Pdih
SciTegic.value.DoubleValue
6.570

@<SCITEGIC>MOL_PROPERTY
Idih
SciTegic.value.DoubleValue
0.000

@<SCITEGIC>MOL_PROPERTY
Tether
SciTegic.value.DoubleValue
0.000

@<TRIPOS>MOLECULE
guest-s16_confgen4.mol2 : confsearch ligand conformer 816
          13          13           1
SMALL
USER_CHARGES
 
@<TRIPOS>ATOM
       1    C1      20.519320   18.171947   21.741858 C.3        1 MOL1        -0.1693
       2    H1      21.536185   18.570579   21.629324 H          1 MOL1         0.0829
       3    H2      20.520421   17.118289   21.438311 H          1 MOL1         0.0829
       4    C2      19.394182   19.064409   21.121466 C.3        1 MOL1        -0.1768
       5    H3      19.666390   19.632376   20.225209 H          1 MOL1         0.0829
       6    H4      18.445599   18.545447   20.935847 H          1 MOL1         0.0829
       7    C3      19.446750   19.852440   22.465003 C.3        1 MOL1         0.1211
       8    H5      20.241400   20.610160   22.503152 H          1 MOL1         0.0786
       9    C4      19.839294   18.490923   23.114136 C.3        1 MOL1        -0.1768
      10    H6      20.506642   18.549512   23.980961 H          1 MOL1         0.0829
      11    H7      18.989536   17.844046   23.365641 H          1 MOL1         0.0829
      12    O1      18.218877   20.393194   22.894488 O.3        1 MOL1        -0.5515
      13    H8      18.348132   20.714583   23.812750 H          1 MOL1         0.3773
@<TRIPOS>BOND
    1     1     2    1
    2     1     3    1
    3     1     4    1
    4     4     5    1
    5     4     6    1
    6     4     7    1
    7     7     8    1
    8     1     9    1
    9     7     9    1
   10     9    10    1
   11     9    11    1
   12     7    12    1
   13    12    13    1
@<TRIPOS>SUBSTRUCTURE
       1 MOL1            1 RESIDUE      1      MOL     
@<SCITEGIC>MOL_PROPERTY
VConf Rank
SciTegic.value.IntegerValue
816

@<SCITEGIC>MOL_PROPERTY
Conf_Id
SciTegic.value.IntegerValue
22

@<SCITEGIC>MOL_PROPERTY
Delta U+W
SciTegic.value.DoubleValue
0.000

@<SCITEGIC>MOL_PROPERTY
U+W
SciTegic.value.DoubleValue
-3.131

@<SCITEGIC>MOL_PROPERTY
Grad RMS
SciTegic.value.DoubleValue
0.000000

@<SCITEGIC>MOL_PROPERTY
U
SciTegic.value.DoubleValue
-0.154

@<SCITEGIC>MOL_PROPERTY
W
SciTegic.value.DoubleValue
-2.978

@<SCITEGIC>MOL_PROPERTY
W(PB)
SciTegic.value.DoubleValue
-4.579

@<SCITEGIC>MOL_PROPERTY
W(SA)
SciTegic.value.DoubleValue
1.601

@<SCITEGIC>MOL_PROPERTY
Valence
SciTegic.value.DoubleValue
6.333

@<SCITEGIC>MOL_PROPERTY
Coulomb
SciTegic.value.DoubleValue
-7.439

@<SCITEGIC>MOL_PROPERTY
VdW
SciTegic.value.DoubleValue
0.952

@<SCITEGIC>MOL_PROPERTY
VdW6
SciTegic.value.DoubleValue
-2.120

@<SCITEGIC>MOL_PROPERTY
VdW12
SciTegic.value.DoubleValue
3.072

@<SCITEGIC>MOL_PROPERTY
Bond
SciTegic.value.DoubleValue
0.065

@<SCITEGIC>MOL_PROPERTY
Angle
SciTegic.value.DoubleValue
0.931

@<SCITEGIC>MOL_PROPERTY
Pdih
SciTegic.value.DoubleValue
5.338

@<SCITEGIC>MOL_PROPERTY
Idih
SciTegic.value.DoubleValue
0.000

@<SCITEGIC>MOL_PROPERTY
Tether
SciTegic.value.DoubleValue
0.000

@<TRIPOS>MOLECULE
guest-s16_confgen4.mol2 : confsearch ligand conformer 817
          13          13           1
SMALL
USER_CHARGES
 
@<TRIPOS>ATOM
       1    C1      18.971075   20.051788   22.046152 C.3        1 MOL1        -0.1693
       2    H1      18.544095   20.135175   21.038025 H          1 MOL1         0.0829
       3    H2      18.762342   20.979063   22.592897 H          1 MOL1         0.0829
       4    C2      20.450861   19.546227   22.090569 C.3        1 MOL1        -0.1768
       5    H3      20.982505   19.766876   23.024625 H          1 MOL1         0.0829
       6    H4      21.085444   19.837303   21.246323 H          1 MOL1         0.0829
       7    C3      19.836256   18.115791   22.017712 C.3        1 MOL1         0.1211
       8    H5      19.588520   17.788307   20.998672 H          1 MOL1         0.0786
       9    C4      18.628155   18.721256   22.794080 C.3        1 MOL1        -0.1768
      10    H6      18.760106   18.758508   23.882558 H          1 MOL1         0.0829
      11    H7      17.650277   18.280076   22.572547 H          1 MOL1         0.0829
      12    O1      20.553184   17.116039   22.704049 O.3        1 MOL1        -0.5515
      13    H8      21.369281   16.937971   22.188801 H          1 MOL1         0.3773
@<TRIPOS>BOND
    1     1     2    1
    2     1     3    1
    3     1     4    1
    4     4     5    1
    5     4     6    1
    6     4     7    1
    7     7     8    1
    8     1     9    1
    9     7     9    1
   10     9    10    1
   11     9    11    1
   12     7    12    1
   13    12    13    1
@<TRIPOS>SUBSTRUCTURE
       1 MOL1            1 RESIDUE      1      MOL     
@<SCITEGIC>MOL_PROPERTY
VConf Rank
SciTegic.value.IntegerValue
817

@<SCITEGIC>MOL_PROPERTY
Conf_Id
SciTegic.value.IntegerValue
19

@<SCITEGIC>MOL_PROPERTY
Delta U+W
SciTegic.value.DoubleValue
-0.011

@<SCITEGIC>MOL_PROPERTY
U+W
SciTegic.value.DoubleValue
-3.142

@<SCITEGIC>MOL_PROPERTY
Grad RMS
SciTegic.value.DoubleValue
0.000000

@<SCITEGIC>MOL_PROPERTY
U
SciTegic.value.DoubleValue
-0.154

@<SCITEGIC>MOL_PROPERTY
W
SciTegic.value.DoubleValue
-2.989

@<SCITEGIC>MOL_PROPERTY
W(PB)
SciTegic.value.DoubleValue
-4.588

@<SCITEGIC>MOL_PROPERTY
W(SA)
SciTegic.value.DoubleValue
1.599

@<SCITEGIC>MOL_PROPERTY
Valence
SciTegic.value.DoubleValue
6.334

@<SCITEGIC>MOL_PROPERTY
Coulomb
SciTegic.value.DoubleValue
-7.439

@<SCITEGIC>MOL_PROPERTY
VdW
SciTegic.value.DoubleValue
0.951

@<SCITEGIC>MOL_PROPERTY
VdW6
SciTegic.value.DoubleValue
-2.120

@<SCITEGIC>MOL_PROPERTY
VdW12
SciTegic.value.DoubleValue
3.072

@<SCITEGIC>MOL_PROPERTY
Bond
SciTegic.value.DoubleValue
0.065

@<SCITEGIC>MOL_PROPERTY
Angle
SciTegic.value.DoubleValue
0.930

@<SCITEGIC>MOL_PROPERTY
Pdih
SciTegic.value.DoubleValue
5.339

@<SCITEGIC>MOL_PROPERTY
Idih
SciTegic.value.DoubleValue
0.000

@<SCITEGIC>MOL_PROPERTY
Tether
SciTegic.value.DoubleValue
0.000

@<TRIPOS>MOLECULE
guest-s16_confgen4.mol2 : confsearch ligand conformer 818
          13          13           1
SMALL
USER_CHARGES
 
@<TRIPOS>ATOM
       1    C1      20.049160   20.068216   22.841498 C.3        1 MOL1        -0.1693
       2    H1      20.542142   20.462244   23.737984 H          1 MOL1         0.0829
       3    H2      19.916213   20.888892   22.124544 H          1 MOL1         0.0829
       4    C2      18.767420   19.203818   23.084259 C.3        1 MOL1        -0.1768
       5    H3      18.769942   18.640618   24.025304 H          1 MOL1         0.0829
       6    H4      17.809387   19.727259   22.991658 H          1 MOL1         0.0829
       7    C3      19.208367   18.371648   21.839878 C.3        1 MOL1         0.1211
       8    H5      18.988421   17.298333   21.906444 H          1 MOL1         0.0786
       9    C4      20.666710   18.765878   22.232196 C.3        1 MOL1        -0.1768
      10    H6      21.365366   18.909118   21.400503 H          1 MOL1         0.0829
      11    H7      21.130314   18.096553   22.967077 H          1 MOL1         0.0829
      12    O1      18.766017   18.879974   20.597269 O.3        1 MOL1        -0.5515
      13    H8      19.242227   18.387145   19.895486 H          1 MOL1         0.3773
@<TRIPOS>BOND
    1     1     2    1
    2     1     3    1
    3     1     4    1
    4     4     5    1
    5     4     6    1
    6     4     7    1
    7     7     8    1
    8     1     9    1
    9     7     9    1
   10     9    10    1
   11     9    11    1
   12     7    12    1
   13    12    13    1
@<TRIPOS>SUBSTRUCTURE
       1 MOL1            1 RESIDUE      1      MOL     
@<SCITEGIC>MOL_PROPERTY
VConf Rank
SciTegic.value.IntegerValue
818

@<SCITEGIC>MOL_PROPERTY
Conf_Id
SciTegic.value.IntegerValue
20

@<SCITEGIC>MOL_PROPERTY
Delta U+W
SciTegic.value.DoubleValue
1.030

@<SCITEGIC>MOL_PROPERTY
U+W
SciTegic.value.DoubleValue
-2.101

@<SCITEGIC>MOL_PROPERTY
Grad RMS
SciTegic.value.DoubleValue
0.000000

@<SCITEGIC>MOL_PROPERTY
U
SciTegic.value.DoubleValue
0.841

@<SCITEGIC>MOL_PROPERTY
W
SciTegic.value.DoubleValue
-2.942

@<SCITEGIC>MOL_PROPERTY
W(PB)
SciTegic.value.DoubleValue
-4.530

@<SCITEGIC>MOL_PROPERTY
W(SA)
SciTegic.value.DoubleValue
1.587

@<SCITEGIC>MOL_PROPERTY
Valence
SciTegic.value.DoubleValue
6.736

@<SCITEGIC>MOL_PROPERTY
Coulomb
SciTegic.value.DoubleValue
-7.246

@<SCITEGIC>MOL_PROPERTY
VdW
SciTegic.value.DoubleValue
1.352

@<SCITEGIC>MOL_PROPERTY
VdW6
SciTegic.value.DoubleValue
-2.500

@<SCITEGIC>MOL_PROPERTY
VdW12
SciTegic.value.DoubleValue
3.851

@<SCITEGIC>MOL_PROPERTY
Bond
SciTegic.value.DoubleValue
0.063

@<SCITEGIC>MOL_PROPERTY
Angle
SciTegic.value.DoubleValue
0.687

@<SCITEGIC>MOL_PROPERTY
Pdih
SciTegic.value.DoubleValue
5.986

@<SCITEGIC>MOL_PROPERTY
Idih
SciTegic.value.DoubleValue
0.000

@<SCITEGIC>MOL_PROPERTY
Tether
SciTegic.value.DoubleValue
0.000

@<TRIPOS>MOLECULE
guest-s16_confgen4.mol2 : confsearch ligand conformer 819
          13          13           1
SMALL
USER_CHARGES
 
@<TRIPOS>ATOM
       1    C1      20.406647   19.878858   21.619917 C.3        1 MOL1        -0.1693
       2    H1      20.439240   20.870383   22.090541 H          1 MOL1         0.0829
       3    H2      20.985722   19.913938   20.689400 H          1 MOL1         0.0829
       4    C2      18.977684   19.250539   21.516790 C.3        1 MOL1        -0.1768
       5    H3      18.149958   19.955057   21.379617 H          1 MOL1         0.0829
       6    H4      18.883287   18.447902   20.775002 H          1 MOL1         0.0829
       7    C3      19.218940   18.766213   22.978426 C.3        1 MOL1         0.1211
       8    H5      18.999357   19.526601   23.740192 H          1 MOL1         0.0786
       9    C4      20.724322   18.687280   22.582508 C.3        1 MOL1        -0.1768
      10    H6      21.020320   17.758747   22.078920 H          1 MOL1         0.0829
      11    H7      21.439142   18.894351   23.386526 H          1 MOL1         0.0829
      12    O1      18.617456   17.538861   23.315533 O.3        1 MOL1        -0.5515
      13    H8      18.846528   16.904107   22.604665 H          1 MOL1         0.3773
@<TRIPOS>BOND
    1     1     2    1
    2     1     3    1
    3     1     4    1
    4     4     5    1
    5     4     6    1
    6     4     7    1
    7     7     8    1
    8     1     9    1
    9     7     9    1
   10     9    10    1
   11     9    11    1
   12     7    12    1
   13    12    13    1
@<TRIPOS>SUBSTRUCTURE
       1 MOL1            1 RESIDUE      1      MOL     
@<SCITEGIC>MOL_PROPERTY
VConf Rank
SciTegic.value.IntegerValue
819

@<SCITEGIC>MOL_PROPERTY
Conf_Id
SciTegic.value.IntegerValue
24

@<SCITEGIC>MOL_PROPERTY
Delta U+W
SciTegic.value.DoubleValue
0.356

@<SCITEGIC>MOL_PROPERTY
U+W
SciTegic.value.DoubleValue
-2.775

@<SCITEGIC>MOL_PROPERTY
Grad RMS
SciTegic.value.DoubleValue
0.000000

@<SCITEGIC>MOL_PROPERTY
U
SciTegic.value.DoubleValue
-0.184

@<SCITEGIC>MOL_PROPERTY
W
SciTegic.value.DoubleValue
-2.591

@<SCITEGIC>MOL_PROPERTY
W(PB)
SciTegic.value.DoubleValue
-4.184

@<SCITEGIC>MOL_PROPERTY
W(SA)
SciTegic.value.DoubleValue
1.593

@<SCITEGIC>MOL_PROPERTY
Valence
SciTegic.value.DoubleValue
6.840

@<SCITEGIC>MOL_PROPERTY
Coulomb
SciTegic.value.DoubleValue
-7.916

@<SCITEGIC>MOL_PROPERTY
VdW
SciTegic.value.DoubleValue
0.893

@<SCITEGIC>MOL_PROPERTY
VdW6
SciTegic.value.DoubleValue
-2.167

@<SCITEGIC>MOL_PROPERTY
VdW12
SciTegic.value.DoubleValue
3.060

@<SCITEGIC>MOL_PROPERTY
Bond
SciTegic.value.DoubleValue
0.059

@<SCITEGIC>MOL_PROPERTY
Angle
SciTegic.value.DoubleValue
0.918

@<SCITEGIC>MOL_PROPERTY
Pdih
SciTegic.value.DoubleValue
5.862

@<SCITEGIC>MOL_PROPERTY
Idih
SciTegic.value.DoubleValue
0.000

@<SCITEGIC>MOL_PROPERTY
Tether
SciTegic.value.DoubleValue
0.000

@<TRIPOS>MOLECULE
guest-s16_confgen4.mol2 : confsearch ligand conformer 820
          13          13           1
SMALL
USER_CHARGES
 
@<TRIPOS>ATOM
       1    C1      18.697651   18.463728   22.075344 C.3        1 MOL1        -0.1693
       2    H1      17.609748   18.595538   22.037066 H          1 MOL1         0.0829
       3    H2      18.923658   17.401114   21.920206 H          1 MOL1         0.0829
       4    C2      19.423746   19.119807   23.297017 C.3        1 MOL1        -0.1768
       5    H3      18.939720   20.027226   23.678232 H          1 MOL1         0.0829
       6    H4      19.638963   18.458182   24.143565 H          1 MOL1         0.0829
       7    C3      20.613648   19.393357   22.325782 C.3        1 MOL1         0.1211
       8    H5      21.145705   20.336702   22.503270 H          1 MOL1         0.0786
       9    C4      19.537692   19.450561   21.197490 C.3        1 MOL1        -0.1768
      10    H6      19.081603   20.439075   21.063932 H          1 MOL1         0.0829
      11    H7      19.852088   19.076829   20.216579 H          1 MOL1         0.0829
      12    O1      21.537654   18.333037   22.208894 O.3        1 MOL1        -0.5515
      13    H8      21.009981   17.522817   22.052632 H          1 MOL1         0.3773
@<TRIPOS>BOND
    1     1     2    1
    2     1     3    1
    3     1     4    1
    4     4     5    1
    5     4     6    1
    6     4     7    1
    7     7     8    1
    8     1     9    1
    9     7     9    1
   10     9    10    1
   11     9    11    1
   12     7    12    1
   13    12    13    1
@<TRIPOS>SUBSTRUCTURE
       1 MOL1            1 RESIDUE      1      MOL     
@<SCITEGIC>MOL_PROPERTY
VConf Rank
SciTegic.value.IntegerValue
820

@<SCITEGIC>MOL_PROPERTY
Conf_Id
SciTegic.value.IntegerValue
44

@<SCITEGIC>MOL_PROPERTY
Delta U+W
SciTegic.value.DoubleValue
0.823

@<SCITEGIC>MOL_PROPERTY
U+W
SciTegic.value.DoubleValue
-2.308

@<SCITEGIC>MOL_PROPERTY
Grad RMS
SciTegic.value.DoubleValue
0.000000

@<SCITEGIC>MOL_PROPERTY
U
SciTegic.value.DoubleValue
0.039

@<SCITEGIC>MOL_PROPERTY
W
SciTegic.value.DoubleValue
-2.348

@<SCITEGIC>MOL_PROPERTY
W(PB)
SciTegic.value.DoubleValue
-3.918

@<SCITEGIC>MOL_PROPERTY
W(SA)
SciTegic.value.DoubleValue
1.571

@<SCITEGIC>MOL_PROPERTY
Valence
SciTegic.value.DoubleValue
7.320

@<SCITEGIC>MOL_PROPERTY
Coulomb
SciTegic.value.DoubleValue
-8.530

@<SCITEGIC>MOL_PROPERTY
VdW
SciTegic.value.DoubleValue
1.249

@<SCITEGIC>MOL_PROPERTY
VdW6
SciTegic.value.DoubleValue
-2.615

@<SCITEGIC>MOL_PROPERTY
VdW12
SciTegic.value.DoubleValue
3.864

@<SCITEGIC>MOL_PROPERTY
Bond
SciTegic.value.DoubleValue
0.056

@<SCITEGIC>MOL_PROPERTY
Angle
SciTegic.value.DoubleValue
0.694

@<SCITEGIC>MOL_PROPERTY
Pdih
SciTegic.value.DoubleValue
6.570

@<SCITEGIC>MOL_PROPERTY
Idih
SciTegic.value.DoubleValue
0.000

@<SCITEGIC>MOL_PROPERTY
Tether
SciTegic.value.DoubleValue
0.000

@<TRIPOS>MOLECULE
guest-s16_confgen4.mol2 : confsearch ligand conformer 821
          13          13           1
SMALL
USER_CHARGES
 
@<TRIPOS>ATOM
       1    C1      20.237304   18.391372   23.244163 C.3        1 MOL1        -0.1693
       2    H1      19.959180   17.330086   23.287806 H          1 MOL1         0.0829
       3    H2      20.969438   18.594542   24.034758 H          1 MOL1         0.0829
       4    C2      19.029248   19.381362   23.155687 C.3        1 MOL1        -0.1768
       5    H3      18.112894   19.073509   23.670937 H          1 MOL1         0.0829
       6    H4      19.261327   20.416212   23.436418 H          1 MOL1         0.0829
       7    C3      19.070639   19.103576   21.622726 C.3        1 MOL1         0.1211
       8    H5      18.542024   18.187878   21.324189 H          1 MOL1         0.0786
       9    C4      20.605445   18.913433   21.816140 C.3        1 MOL1        -0.1768
      10    H6      21.085499   18.190619   21.147365 H          1 MOL1         0.0829
      11    H7      21.185210   19.844844   21.804260 H          1 MOL1         0.0829
      12    O1      18.695944   20.187010   20.803995 O.3        1 MOL1        -0.5515
      13    H8      18.918576   19.943462   19.879699 H          1 MOL1         0.3773
@<TRIPOS>BOND
    1     1     2    1
    2     1     3    1
    3     1     4    1
    4     4     5    1
    5     4     6    1
    6     4     7    1
    7     7     8    1
    8     1     9    1
    9     7     9    1
   10     9    10    1
   11     9    11    1
   12     7    12    1
   13    12    13    1
@<TRIPOS>SUBSTRUCTURE
       1 MOL1            1 RESIDUE      1      MOL     
@<SCITEGIC>MOL_PROPERTY
VConf Rank
SciTegic.value.IntegerValue
821

@<SCITEGIC>MOL_PROPERTY
Conf_Id
SciTegic.value.IntegerValue
22

@<SCITEGIC>MOL_PROPERTY
Delta U+W
SciTegic.value.DoubleValue
0.000

@<SCITEGIC>MOL_PROPERTY
U+W
SciTegic.value.DoubleValue
-3.131

@<SCITEGIC>MOL_PROPERTY
Grad RMS
SciTegic.value.DoubleValue
0.000000

@<SCITEGIC>MOL_PROPERTY
U
SciTegic.value.DoubleValue
-0.154

@<SCITEGIC>MOL_PROPERTY
W
SciTegic.value.DoubleValue
-2.978

@<SCITEGIC>MOL_PROPERTY
W(PB)
SciTegic.value.DoubleValue
-4.579

@<SCITEGIC>MOL_PROPERTY
W(SA)
SciTegic.value.DoubleValue
1.601

@<SCITEGIC>MOL_PROPERTY
Valence
SciTegic.value.DoubleValue
6.333

@<SCITEGIC>MOL_PROPERTY
Coulomb
SciTegic.value.DoubleValue
-7.439

@<SCITEGIC>MOL_PROPERTY
VdW
SciTegic.value.DoubleValue
0.952

@<SCITEGIC>MOL_PROPERTY
VdW6
SciTegic.value.DoubleValue
-2.120

@<SCITEGIC>MOL_PROPERTY
VdW12
SciTegic.value.DoubleValue
3.072

@<SCITEGIC>MOL_PROPERTY
Bond
SciTegic.value.DoubleValue
0.065

@<SCITEGIC>MOL_PROPERTY
Angle
SciTegic.value.DoubleValue
0.931

@<SCITEGIC>MOL_PROPERTY
Pdih
SciTegic.value.DoubleValue
5.338

@<SCITEGIC>MOL_PROPERTY
Idih
SciTegic.value.DoubleValue
0.000

@<SCITEGIC>MOL_PROPERTY
Tether
SciTegic.value.DoubleValue
0.000

@<TRIPOS>MOLECULE
guest-s16_confgen4.mol2 : confsearch ligand conformer 822
          13          13           1
SMALL
USER_CHARGES
 
@<TRIPOS>ATOM
       1    C1      19.114838   18.001191   21.457385 C.3        1 MOL1        -0.1693
       2    H1      19.660401   17.880252   20.512229 H          1 MOL1         0.0829
       3    H2      18.245325   17.333211   21.448024 H          1 MOL1         0.0829
       4    C2      18.836937   19.485049   21.867586 C.3        1 MOL1        -0.1768
       5    H3      18.034983   19.613921   22.605187 H          1 MOL1         0.0829
       6    H4      18.676439   20.190747   21.045149 H          1 MOL1         0.0829
       7    C3      20.273738   19.459580   22.471033 C.3        1 MOL1         0.1211
       8    H5      21.069237   19.645652   21.736445 H          1 MOL1         0.0786
       9    C4      20.008475   17.947634   22.740291 C.3        1 MOL1        -0.1768
      10    H6      19.465333   17.740203   23.670642 H          1 MOL1         0.0829
      11    H7      20.886171   17.294011   22.691419 H          1 MOL1         0.0829
      12    O1      20.458851   20.252599   23.620557 O.3        1 MOL1        -0.5515
      13    H8      20.451374   21.190330   23.331062 H          1 MOL1         0.3773
@<TRIPOS>BOND
    1     1     2    1
    2     1     3    1
    3     1     4    1
    4     4     5    1
    5     4     6    1
    6     4     7    1
    7     7     8    1
    8     1     9    1
    9     7     9    1
   10     9    10    1
   11     9    11    1
   12     7    12    1
   13    12    13    1
@<TRIPOS>SUBSTRUCTURE
       1 MOL1            1 RESIDUE      1      MOL     
@<SCITEGIC>MOL_PROPERTY
VConf Rank
SciTegic.value.IntegerValue
822

@<SCITEGIC>MOL_PROPERTY
Conf_Id
SciTegic.value.IntegerValue
19

@<SCITEGIC>MOL_PROPERTY
Delta U+W
SciTegic.value.DoubleValue
-0.011

@<SCITEGIC>MOL_PROPERTY
U+W
SciTegic.value.DoubleValue
-3.142

@<SCITEGIC>MOL_PROPERTY
Grad RMS
SciTegic.value.DoubleValue
0.000000

@<SCITEGIC>MOL_PROPERTY
U
SciTegic.value.DoubleValue
-0.154

@<SCITEGIC>MOL_PROPERTY
W
SciTegic.value.DoubleValue
-2.989

@<SCITEGIC>MOL_PROPERTY
W(PB)
SciTegic.value.DoubleValue
-4.588

@<SCITEGIC>MOL_PROPERTY
W(SA)
SciTegic.value.DoubleValue
1.599

@<SCITEGIC>MOL_PROPERTY
Valence
SciTegic.value.DoubleValue
6.334

@<SCITEGIC>MOL_PROPERTY
Coulomb
SciTegic.value.DoubleValue
-7.439

@<SCITEGIC>MOL_PROPERTY
VdW
SciTegic.value.DoubleValue
0.951

@<SCITEGIC>MOL_PROPERTY
VdW6
SciTegic.value.DoubleValue
-2.120

@<SCITEGIC>MOL_PROPERTY
VdW12
SciTegic.value.DoubleValue
3.072

@<SCITEGIC>MOL_PROPERTY
Bond
SciTegic.value.DoubleValue
0.065

@<SCITEGIC>MOL_PROPERTY
Angle
SciTegic.value.DoubleValue
0.930

@<SCITEGIC>MOL_PROPERTY
Pdih
SciTegic.value.DoubleValue
5.339

@<SCITEGIC>MOL_PROPERTY
Idih
SciTegic.value.DoubleValue
0.000

@<SCITEGIC>MOL_PROPERTY
Tether
SciTegic.value.DoubleValue
0.000

@<TRIPOS>MOLECULE
guest-s16_confgen4.mol2 : confsearch ligand conformer 823
          13          13           1
SMALL
USER_CHARGES
 
@<TRIPOS>ATOM
       1    C1      19.634045   19.917265   21.401656 C.3        1 MOL1        -0.1693
       2    H1      20.087851   20.238290   20.456680 H          1 MOL1         0.0829
       3    H2      18.812832   20.603073   21.647589 H          1 MOL1         0.0829
       4    C2      20.623913   19.639758   22.581539 C.3        1 MOL1        -0.1768
       5    H3      21.610121   19.273623   22.271530 H          1 MOL1         0.0829
       6    H4      20.762798   20.458807   23.295865 H          1 MOL1         0.0829
       7    C3      19.634322   18.516373   23.022156 C.3        1 MOL1         0.1211
       8    H5      20.114050   17.626303   23.449297 H          1 MOL1         0.0786
       9    C4      19.268369   18.399575   21.509366 C.3        1 MOL1        -0.1768
      10    H6      18.227862   18.139160   21.286025 H          1 MOL1         0.0829
      11    H7      19.926031   17.732653   20.938691 H          1 MOL1         0.0829
      12    O1      18.580481   18.947077   23.860045 O.3        1 MOL1        -0.5515
      13    H8      17.939011   18.207737   23.923659 H          1 MOL1         0.3773
@<TRIPOS>BOND
    1     1     2    1
    2     1     3    1
    3     1     4    1
    4     4     5    1
    5     4     6    1
    6     4     7    1
    7     7     8    1
    8     1     9    1
    9     7     9    1
   10     9    10    1
   11     9    11    1
   12     7    12    1
   13    12    13    1
@<TRIPOS>SUBSTRUCTURE
       1 MOL1            1 RESIDUE      1      MOL     
@<SCITEGIC>MOL_PROPERTY
VConf Rank
SciTegic.value.IntegerValue
823

@<SCITEGIC>MOL_PROPERTY
Conf_Id
SciTegic.value.IntegerValue
20

@<SCITEGIC>MOL_PROPERTY
Delta U+W
SciTegic.value.DoubleValue
1.030

@<SCITEGIC>MOL_PROPERTY
U+W
SciTegic.value.DoubleValue
-2.101

@<SCITEGIC>MOL_PROPERTY
Grad RMS
SciTegic.value.DoubleValue
0.000000

@<SCITEGIC>MOL_PROPERTY
U
SciTegic.value.DoubleValue
0.841

@<SCITEGIC>MOL_PROPERTY
W
SciTegic.value.DoubleValue
-2.942

@<SCITEGIC>MOL_PROPERTY
W(PB)
SciTegic.value.DoubleValue
-4.530

@<SCITEGIC>MOL_PROPERTY
W(SA)
SciTegic.value.DoubleValue
1.587

@<SCITEGIC>MOL_PROPERTY
Valence
SciTegic.value.DoubleValue
6.736

@<SCITEGIC>MOL_PROPERTY
Coulomb
SciTegic.value.DoubleValue
-7.246

@<SCITEGIC>MOL_PROPERTY
VdW
SciTegic.value.DoubleValue
1.352

@<SCITEGIC>MOL_PROPERTY
VdW6
SciTegic.value.DoubleValue
-2.500

@<SCITEGIC>MOL_PROPERTY
VdW12
SciTegic.value.DoubleValue
3.851

@<SCITEGIC>MOL_PROPERTY
Bond
SciTegic.value.DoubleValue
0.063

@<SCITEGIC>MOL_PROPERTY
Angle
SciTegic.value.DoubleValue
0.687

@<SCITEGIC>MOL_PROPERTY
Pdih
SciTegic.value.DoubleValue
5.986

@<SCITEGIC>MOL_PROPERTY
Idih
SciTegic.value.DoubleValue
0.000

@<SCITEGIC>MOL_PROPERTY
Tether
SciTegic.value.DoubleValue
0.000

@<TRIPOS>MOLECULE
guest-s16_confgen4.mol2 : confsearch ligand conformer 824
          13          13           1
SMALL
USER_CHARGES
 
@<TRIPOS>ATOM
       1    C1      19.035154   18.623164   23.225737 C.3        1 MOL1        -0.1693
       2    H1      18.777841   19.405806   23.951636 H          1 MOL1         0.0829
       3    H2      18.593151   17.676916   23.559905 H          1 MOL1         0.0829
       4    C2      20.547049   18.572500   22.827033 C.3        1 MOL1        -0.1768
       5    H3      21.261163   18.859783   23.606650 H          1 MOL1         0.0829
       6    H4      20.871987   17.622623   22.384838 H          1 MOL1         0.0829
       7    C3      20.186172   19.684859   21.796703 C.3        1 MOL1         0.1211
       8    H5      20.172044   20.697237   22.222831 H          1 MOL1         0.0786
       9    C4      18.783163   19.009299   21.730826 C.3        1 MOL1        -0.1768
      10    H6      18.713850   18.157052   21.043615 H          1 MOL1         0.0829
      11    H7      17.939497   19.682342   21.542323 H          1 MOL1         0.0829
      12    O1      20.925015   19.661727   20.598624 O.3        1 MOL1        -0.5515
      13    H8      20.902517   18.739530   20.267314 H          1 MOL1         0.3773
@<TRIPOS>BOND
    1     1     2    1
    2     1     3    1
    3     1     4    1
    4     4     5    1
    5     4     6    1
    6     4     7    1
    7     7     8    1
    8     1     9    1
    9     7     9    1
   10     9    10    1
   11     9    11    1
   12     7    12    1
   13    12    13    1
@<TRIPOS>SUBSTRUCTURE
       1 MOL1            1 RESIDUE      1      MOL     
@<SCITEGIC>MOL_PROPERTY
VConf Rank
SciTegic.value.IntegerValue
824

@<SCITEGIC>MOL_PROPERTY
Conf_Id
SciTegic.value.IntegerValue
24

@<SCITEGIC>MOL_PROPERTY
Delta U+W
SciTegic.value.DoubleValue
0.356

@<SCITEGIC>MOL_PROPERTY
U+W
SciTegic.value.DoubleValue
-2.775

@<SCITEGIC>MOL_PROPERTY
Grad RMS
SciTegic.value.DoubleValue
0.000000

@<SCITEGIC>MOL_PROPERTY
U
SciTegic.value.DoubleValue
-0.184

@<SCITEGIC>MOL_PROPERTY
W
SciTegic.value.DoubleValue
-2.591

@<SCITEGIC>MOL_PROPERTY
W(PB)
SciTegic.value.DoubleValue
-4.184

@<SCITEGIC>MOL_PROPERTY
W(SA)
SciTegic.value.DoubleValue
1.593

@<SCITEGIC>MOL_PROPERTY
Valence
SciTegic.value.DoubleValue
6.840

@<SCITEGIC>MOL_PROPERTY
Coulomb
SciTegic.value.DoubleValue
-7.916

@<SCITEGIC>MOL_PROPERTY
VdW
SciTegic.value.DoubleValue
0.893

@<SCITEGIC>MOL_PROPERTY
VdW6
SciTegic.value.DoubleValue
-2.167

@<SCITEGIC>MOL_PROPERTY
VdW12
SciTegic.value.DoubleValue
3.060

@<SCITEGIC>MOL_PROPERTY
Bond
SciTegic.value.DoubleValue
0.059

@<SCITEGIC>MOL_PROPERTY
Angle
SciTegic.value.DoubleValue
0.918

@<SCITEGIC>MOL_PROPERTY
Pdih
SciTegic.value.DoubleValue
5.862

@<SCITEGIC>MOL_PROPERTY
Idih
SciTegic.value.DoubleValue
0.000

@<SCITEGIC>MOL_PROPERTY
Tether
SciTegic.value.DoubleValue
0.000

@<TRIPOS>MOLECULE
guest-s16_confgen4.mol2 : confsearch ligand conformer 825
          13          13           1
SMALL
USER_CHARGES
 
@<TRIPOS>ATOM
       1    C1      20.302683   18.895218   23.152039 C.3        1 MOL1        -0.1693
       2    H1      20.340112   19.103858   24.227883 H          1 MOL1         0.0829
       3    H2      21.243862   18.412502   22.859700 H          1 MOL1         0.0829
       4    C2      19.862988   20.087959   22.238707 C.3        1 MOL1        -0.1768
       5    H3      19.167147   20.790178   22.713796 H          1 MOL1         0.0829
       6    H4      20.670854   20.661466   21.770571 H          1 MOL1         0.0829
       7    C3      19.171816   19.020841   21.334532 C.3        1 MOL1         0.1211
       8    H5      18.229692   19.346533   20.875387 H          1 MOL1         0.0786
       9    C4      19.008565   18.179935   22.638457 C.3        1 MOL1        -0.1768
      10    H6      18.103234   18.414335   23.211560 H          1 MOL1         0.0829
      11    H7      19.072729   17.092670   22.518272 H          1 MOL1         0.0829
      12    O1      20.009358   18.441135   20.357705 O.3        1 MOL1        -0.5515
      13    H8      20.828818   18.171342   20.821398 H          1 MOL1         0.3773
@<TRIPOS>BOND
    1     1     2    1
    2     1     3    1
    3     1     4    1
    4     4     5    1
    5     4     6    1
    6     4     7    1
    7     7     8    1
    8     1     9    1
    9     7     9    1
   10     9    10    1
   11     9    11    1
   12     7    12    1
   13    12    13    1
@<TRIPOS>SUBSTRUCTURE
       1 MOL1            1 RESIDUE      1      MOL     
@<SCITEGIC>MOL_PROPERTY
VConf Rank
SciTegic.value.IntegerValue
825

@<SCITEGIC>MOL_PROPERTY
Conf_Id
SciTegic.value.IntegerValue
44

@<SCITEGIC>MOL_PROPERTY
Delta U+W
SciTegic.value.DoubleValue
0.823

@<SCITEGIC>MOL_PROPERTY
U+W
SciTegic.value.DoubleValue
-2.308

@<SCITEGIC>MOL_PROPERTY
Grad RMS
SciTegic.value.DoubleValue
0.000000

@<SCITEGIC>MOL_PROPERTY
U
SciTegic.value.DoubleValue
0.039

@<SCITEGIC>MOL_PROPERTY
W
SciTegic.value.DoubleValue
-2.348

@<SCITEGIC>MOL_PROPERTY
W(PB)
SciTegic.value.DoubleValue
-3.918

@<SCITEGIC>MOL_PROPERTY
W(SA)
SciTegic.value.DoubleValue
1.571

@<SCITEGIC>MOL_PROPERTY
Valence
SciTegic.value.DoubleValue
7.320

@<SCITEGIC>MOL_PROPERTY
Coulomb
SciTegic.value.DoubleValue
-8.530

@<SCITEGIC>MOL_PROPERTY
VdW
SciTegic.value.DoubleValue
1.249

@<SCITEGIC>MOL_PROPERTY
VdW6
SciTegic.value.DoubleValue
-2.615

@<SCITEGIC>MOL_PROPERTY
VdW12
SciTegic.value.DoubleValue
3.864

@<SCITEGIC>MOL_PROPERTY
Bond
SciTegic.value.DoubleValue
0.056

@<SCITEGIC>MOL_PROPERTY
Angle
SciTegic.value.DoubleValue
0.694

@<SCITEGIC>MOL_PROPERTY
Pdih
SciTegic.value.DoubleValue
6.570

@<SCITEGIC>MOL_PROPERTY
Idih
SciTegic.value.DoubleValue
0.000

@<SCITEGIC>MOL_PROPERTY
Tether
SciTegic.value.DoubleValue
0.000

@<TRIPOS>MOLECULE
guest-s16_confgen4.mol2 : confsearch ligand conformer 826
          13          13           1
SMALL
USER_CHARGES
 
@<TRIPOS>ATOM
       1    C1      19.269534   17.844300   21.865505 C.3        1 MOL1        -0.1693
       2    H1      19.553951   17.598594   20.833845 H          1 MOL1         0.0829
       3    H2      18.766679   16.975508   22.306725 H          1 MOL1         0.0829
       4    C2      18.541095   19.218466   22.033886 C.3        1 MOL1        -0.1768
       5    H3      17.907951   19.535861   21.198213 H          1 MOL1         0.0829
       6    H4      17.974567   19.327245   22.967052 H          1 MOL1         0.0829
       7    C3      19.972114   19.834571   22.071912 C.3        1 MOL1         0.1211
       8    H5      20.405182   20.010216   21.077596 H          1 MOL1         0.0786
       9    C4      20.408852   18.487574   22.723106 C.3        1 MOL1        -0.1768
      10    H6      21.428252   18.155924   22.497269 H          1 MOL1         0.0829
      11    H7      20.251959   18.433610   23.807665 H          1 MOL1         0.0829
      12    O1      20.115997   20.973436   22.888508 O.3        1 MOL1        -0.5515
      13    H8      21.076595   21.162601   22.956859 H          1 MOL1         0.3773
@<TRIPOS>BOND
    1     1     2    1
    2     1     3    1
    3     1     4    1
    4     4     5    1
    5     4     6    1
    6     4     7    1
    7     7     8    1
    8     1     9    1
    9     7     9    1
   10     9    10    1
   11     9    11    1
   12     7    12    1
   13    12    13    1
@<TRIPOS>SUBSTRUCTURE
       1 MOL1            1 RESIDUE      1      MOL     
@<SCITEGIC>MOL_PROPERTY
VConf Rank
SciTegic.value.IntegerValue
826

@<SCITEGIC>MOL_PROPERTY
Conf_Id
SciTegic.value.IntegerValue
22

@<SCITEGIC>MOL_PROPERTY
Delta U+W
SciTegic.value.DoubleValue
0.000

@<SCITEGIC>MOL_PROPERTY
U+W
SciTegic.value.DoubleValue
-3.131

@<SCITEGIC>MOL_PROPERTY
Grad RMS
SciTegic.value.DoubleValue
0.000000

@<SCITEGIC>MOL_PROPERTY
U
SciTegic.value.DoubleValue
-0.154

@<SCITEGIC>MOL_PROPERTY
W
SciTegic.value.DoubleValue
-2.978

@<SCITEGIC>MOL_PROPERTY
W(PB)
SciTegic.value.DoubleValue
-4.579

@<SCITEGIC>MOL_PROPERTY
W(SA)
SciTegic.value.DoubleValue
1.601

@<SCITEGIC>MOL_PROPERTY
Valence
SciTegic.value.DoubleValue
6.333

@<SCITEGIC>MOL_PROPERTY
Coulomb
SciTegic.value.DoubleValue
-7.439

@<SCITEGIC>MOL_PROPERTY
VdW
SciTegic.value.DoubleValue
0.952

@<SCITEGIC>MOL_PROPERTY
VdW6
SciTegic.value.DoubleValue
-2.120

@<SCITEGIC>MOL_PROPERTY
VdW12
SciTegic.value.DoubleValue
3.072

@<SCITEGIC>MOL_PROPERTY
Bond
SciTegic.value.DoubleValue
0.065

@<SCITEGIC>MOL_PROPERTY
Angle
SciTegic.value.DoubleValue
0.931

@<SCITEGIC>MOL_PROPERTY
Pdih
SciTegic.value.DoubleValue
5.338

@<SCITEGIC>MOL_PROPERTY
Idih
SciTegic.value.DoubleValue
0.000

@<SCITEGIC>MOL_PROPERTY
Tether
SciTegic.value.DoubleValue
0.000

@<TRIPOS>MOLECULE
guest-s16_confgen4.mol2 : confsearch ligand conformer 827
          13          13           1
SMALL
USER_CHARGES
 
@<TRIPOS>ATOM
       1    C1      19.342707   19.599264   21.147986 C.3        1 MOL1        -0.1693
       2    H1      20.089229   20.364482   20.897522 H          1 MOL1         0.0829
       3    H2      18.526256   19.654079   20.418093 H          1 MOL1         0.0829
       4    C2      18.917687   19.567264   22.653198 C.3        1 MOL1        -0.1768
       5    H3      17.967183   19.055809   22.850051 H          1 MOL1         0.0829
       6    H4      18.913976   20.531163   23.173829 H          1 MOL1         0.0829
       7    C3      20.184299   18.684347   22.866148 C.3        1 MOL1         0.1211
       8    H5      21.114431   19.258410   22.977361 H          1 MOL1         0.0786
       9    C4      19.930500   18.174399   21.415499 C.3        1 MOL1        -0.1768
      10    H6      19.203611   17.355961   21.342180 H          1 MOL1         0.0829
      11    H7      20.824148   17.904419   20.842379 H          1 MOL1         0.0829
      12    O1      20.075497   17.707683   23.875523 O.3        1 MOL1        -0.5515
      13    H8      20.092577   18.177102   24.737240 H          1 MOL1         0.3773
@<TRIPOS>BOND
    1     1     2    1
    2     1     3    1
    3     1     4    1
    4     4     5    1
    5     4     6    1
    6     4     7    1
    7     7     8    1
    8     1     9    1
    9     7     9    1
   10     9    10    1
   11     9    11    1
   12     7    12    1
   13    12    13    1
@<TRIPOS>SUBSTRUCTURE
       1 MOL1            1 RESIDUE      1      MOL     
@<SCITEGIC>MOL_PROPERTY
VConf Rank
SciTegic.value.IntegerValue
827

@<SCITEGIC>MOL_PROPERTY
Conf_Id
SciTegic.value.IntegerValue
19

@<SCITEGIC>MOL_PROPERTY
Delta U+W
SciTegic.value.DoubleValue
-0.011

@<SCITEGIC>MOL_PROPERTY
U+W
SciTegic.value.DoubleValue
-3.142

@<SCITEGIC>MOL_PROPERTY
Grad RMS
SciTegic.value.DoubleValue
0.000000

@<SCITEGIC>MOL_PROPERTY
U
SciTegic.value.DoubleValue
-0.154

@<SCITEGIC>MOL_PROPERTY
W
SciTegic.value.DoubleValue
-2.989

@<SCITEGIC>MOL_PROPERTY
W(PB)
SciTegic.value.DoubleValue
-4.588

@<SCITEGIC>MOL_PROPERTY
W(SA)
SciTegic.value.DoubleValue
1.599

@<SCITEGIC>MOL_PROPERTY
Valence
SciTegic.value.DoubleValue
6.334

@<SCITEGIC>MOL_PROPERTY
Coulomb
SciTegic.value.DoubleValue
-7.439

@<SCITEGIC>MOL_PROPERTY
VdW
SciTegic.value.DoubleValue
0.951

@<SCITEGIC>MOL_PROPERTY
VdW6
SciTegic.value.DoubleValue
-2.120

@<SCITEGIC>MOL_PROPERTY
VdW12
SciTegic.value.DoubleValue
3.072

@<SCITEGIC>MOL_PROPERTY
Bond
SciTegic.value.DoubleValue
0.065

@<SCITEGIC>MOL_PROPERTY
Angle
SciTegic.value.DoubleValue
0.930

@<SCITEGIC>MOL_PROPERTY
Pdih
SciTegic.value.DoubleValue
5.339

@<SCITEGIC>MOL_PROPERTY
Idih
SciTegic.value.DoubleValue
0.000

@<SCITEGIC>MOL_PROPERTY
Tether
SciTegic.value.DoubleValue
0.000

@<TRIPOS>MOLECULE
guest-s16_confgen4.mol2 : confsearch ligand conformer 828
          13          13           1
SMALL
USER_CHARGES
 
@<TRIPOS>ATOM
       1    C1      19.235609   20.111588   21.789158 C.3        1 MOL1        -0.1693
       2    H1      19.278821   21.205214   21.853135 H          1 MOL1         0.0829
       3    H2      18.649932   19.834620   20.902886 H          1 MOL1         0.0829
       4    C2      18.825170   19.360932   23.099512 C.3        1 MOL1        -0.1768
       5    H3      19.126960   19.864442   24.025884 H          1 MOL1         0.0829
       6    H4      17.769745   19.078642   23.181869 H          1 MOL1         0.0829
       7    C3      19.796219   18.228211   22.641873 C.3        1 MOL1         0.1211
       8    H5      20.332264   17.727955   23.458704 H          1 MOL1         0.0786
       9    C4      20.600671   19.359219   21.927890 C.3        1 MOL1        -0.1768
      10    H6      21.092465   19.079449   20.989690 H          1 MOL1         0.0829
      11    H7      21.333314   19.862936   22.570134 H          1 MOL1         0.0829
      12    O1      19.223433   17.266473   21.778668 O.3        1 MOL1        -0.5515
      13    H8      19.957084   16.720015   21.424699 H          1 MOL1         0.3773
@<TRIPOS>BOND
    1     1     2    1
    2     1     3    1
    3     1     4    1
    4     4     5    1
    5     4     6    1
    6     4     7    1
    7     7     8    1
    8     1     9    1
    9     7     9    1
   10     9    10    1
   11     9    11    1
   12     7    12    1
   13    12    13    1
@<TRIPOS>SUBSTRUCTURE
       1 MOL1            1 RESIDUE      1      MOL     
@<SCITEGIC>MOL_PROPERTY
VConf Rank
SciTegic.value.IntegerValue
828

@<SCITEGIC>MOL_PROPERTY
Conf_Id
SciTegic.value.IntegerValue
20

@<SCITEGIC>MOL_PROPERTY
Delta U+W
SciTegic.value.DoubleValue
1.030

@<SCITEGIC>MOL_PROPERTY
U+W
SciTegic.value.DoubleValue
-2.101

@<SCITEGIC>MOL_PROPERTY
Grad RMS
SciTegic.value.DoubleValue
0.000000

@<SCITEGIC>MOL_PROPERTY
U
SciTegic.value.DoubleValue
0.841

@<SCITEGIC>MOL_PROPERTY
W
SciTegic.value.DoubleValue
-2.942

@<SCITEGIC>MOL_PROPERTY
W(PB)
SciTegic.value.DoubleValue
-4.530

@<SCITEGIC>MOL_PROPERTY
W(SA)
SciTegic.value.DoubleValue
1.587

@<SCITEGIC>MOL_PROPERTY
Valence
SciTegic.value.DoubleValue
6.736

@<SCITEGIC>MOL_PROPERTY
Coulomb
SciTegic.value.DoubleValue
-7.246

@<SCITEGIC>MOL_PROPERTY
VdW
SciTegic.value.DoubleValue
1.352

@<SCITEGIC>MOL_PROPERTY
VdW6
SciTegic.value.DoubleValue
-2.500

@<SCITEGIC>MOL_PROPERTY
VdW12
SciTegic.value.DoubleValue
3.851

@<SCITEGIC>MOL_PROPERTY
Bond
SciTegic.value.DoubleValue
0.063

@<SCITEGIC>MOL_PROPERTY
Angle
SciTegic.value.DoubleValue
0.687

@<SCITEGIC>MOL_PROPERTY
Pdih
SciTegic.value.DoubleValue
5.986

@<SCITEGIC>MOL_PROPERTY
Idih
SciTegic.value.DoubleValue
0.000

@<SCITEGIC>MOL_PROPERTY
Tether
SciTegic.value.DoubleValue
0.000

@<TRIPOS>MOLECULE
guest-s16_confgen4.mol2 : confsearch ligand conformer 829
          13          13           1
SMALL
USER_CHARGES
 
@<TRIPOS>ATOM
       1    C1      18.818741   19.694109   21.729802 C.3        1 MOL1        -0.1693
       2    H1      18.253057   19.315915   20.868037 H          1 MOL1         0.0829
       3    H2      18.431428   20.685096   21.995049 H          1 MOL1         0.0829
       4    C2      20.372876   19.577426   21.594126 C.3        1 MOL1        -0.1768
       5    H3      20.777200   19.676759   20.580742 H          1 MOL1         0.0829
       6    H4      20.941214   20.232777   22.265614 H          1 MOL1         0.0829
       7    C3      20.185134   18.117949   22.107777 C.3        1 MOL1         0.1211
       8    H5      19.906759   17.402860   21.321744 H          1 MOL1         0.0786
       9    C4      18.971159   18.677612   22.909149 C.3        1 MOL1        -0.1768
      10    H6      19.226196   19.131844   23.874560 H          1 MOL1         0.0829
      11    H7      18.137556   17.982272   23.057132 H          1 MOL1         0.0829
      12    O1      21.241998   17.610892   22.887360 O.3        1 MOL1        -0.5515
      13    H8      21.445284   18.287326   23.566942 H          1 MOL1         0.3773
@<TRIPOS>BOND
    1     1     2    1
    2     1     3    1
    3     1     4    1
    4     4     5    1
    5     4     6    1
    6     4     7    1
    7     7     8    1
    8     1     9    1
    9     7     9    1
   10     9    10    1
   11     9    11    1
   12     7    12    1
   13    12    13    1
@<TRIPOS>SUBSTRUCTURE
       1 MOL1            1 RESIDUE      1      MOL     
@<SCITEGIC>MOL_PROPERTY
VConf Rank
SciTegic.value.IntegerValue
829

@<SCITEGIC>MOL_PROPERTY
Conf_Id
SciTegic.value.IntegerValue
24

@<SCITEGIC>MOL_PROPERTY
Delta U+W
SciTegic.value.DoubleValue
0.356

@<SCITEGIC>MOL_PROPERTY
U+W
SciTegic.value.DoubleValue
-2.775

@<SCITEGIC>MOL_PROPERTY
Grad RMS
SciTegic.value.DoubleValue
0.000000

@<SCITEGIC>MOL_PROPERTY
U
SciTegic.value.DoubleValue
-0.184

@<SCITEGIC>MOL_PROPERTY
W
SciTegic.value.DoubleValue
-2.591

@<SCITEGIC>MOL_PROPERTY
W(PB)
SciTegic.value.DoubleValue
-4.184

@<SCITEGIC>MOL_PROPERTY
W(SA)
SciTegic.value.DoubleValue
1.593

@<SCITEGIC>MOL_PROPERTY
Valence
SciTegic.value.DoubleValue
6.840

@<SCITEGIC>MOL_PROPERTY
Coulomb
SciTegic.value.DoubleValue
-7.916

@<SCITEGIC>MOL_PROPERTY
VdW
SciTegic.value.DoubleValue
0.893

@<SCITEGIC>MOL_PROPERTY
VdW6
SciTegic.value.DoubleValue
-2.167

@<SCITEGIC>MOL_PROPERTY
VdW12
SciTegic.value.DoubleValue
3.060

@<SCITEGIC>MOL_PROPERTY
Bond
SciTegic.value.DoubleValue
0.059

@<SCITEGIC>MOL_PROPERTY
Angle
SciTegic.value.DoubleValue
0.918

@<SCITEGIC>MOL_PROPERTY
Pdih
SciTegic.value.DoubleValue
5.862

@<SCITEGIC>MOL_PROPERTY
Idih
SciTegic.value.DoubleValue
0.000

@<SCITEGIC>MOL_PROPERTY
Tether
SciTegic.value.DoubleValue
0.000

@<TRIPOS>MOLECULE
guest-s16_confgen4.mol2 : confsearch ligand conformer 830
          13          13           1
SMALL
USER_CHARGES
 
@<TRIPOS>ATOM
       1    C1      19.950958   18.746585   21.137132 C.3        1 MOL1        -0.1693
       2    H1      20.231776   17.971746   20.413848 H          1 MOL1         0.0829
       3    H2      19.893864   19.707761   20.610655 H          1 MOL1         0.0829
       4    C2      20.775958   18.772304   22.467113 C.3        1 MOL1        -0.1768
       5    H3      21.148326   17.792008   22.788635 H          1 MOL1         0.0829
       6    H4      21.603181   19.489710   22.508831 H          1 MOL1         0.0829
       7    C3      19.454987   19.213200   23.170418 C.3        1 MOL1         0.1211
       8    H5      19.316433   18.813137   24.182960 H          1 MOL1         0.0786
       9    C4      18.719487   18.419715   22.046401 C.3        1 MOL1        -0.1768
      10    H6      18.587638   17.352970   22.264769 H          1 MOL1         0.0829
      11    H7      17.756726   18.830221   21.721923 H          1 MOL1         0.0829
      12    O1      19.217623   20.604370   23.164787 O.3        1 MOL1        -0.5515
      13    H8      19.354898   20.904244   22.242537 H          1 MOL1         0.3773
@<TRIPOS>BOND
    1     1     2    1
    2     1     3    1
    3     1     4    1
    4     4     5    1
    5     4     6    1
    6     4     7    1
    7     7     8    1
    8     1     9    1
    9     7     9    1
   10     9    10    1
   11     9    11    1
   12     7    12    1
   13    12    13    1
@<TRIPOS>SUBSTRUCTURE
       1 MOL1            1 RESIDUE      1      MOL     
@<SCITEGIC>MOL_PROPERTY
VConf Rank
SciTegic.value.IntegerValue
830

@<SCITEGIC>MOL_PROPERTY
Conf_Id
SciTegic.value.IntegerValue
44

@<SCITEGIC>MOL_PROPERTY
Delta U+W
SciTegic.value.DoubleValue
0.823

@<SCITEGIC>MOL_PROPERTY
U+W
SciTegic.value.DoubleValue
-2.308

@<SCITEGIC>MOL_PROPERTY
Grad RMS
SciTegic.value.DoubleValue
0.000000

@<SCITEGIC>MOL_PROPERTY
U
SciTegic.value.DoubleValue
0.039

@<SCITEGIC>MOL_PROPERTY
W
SciTegic.value.DoubleValue
-2.348

@<SCITEGIC>MOL_PROPERTY
W(PB)
SciTegic.value.DoubleValue
-3.918

@<SCITEGIC>MOL_PROPERTY
W(SA)
SciTegic.value.DoubleValue
1.571

@<SCITEGIC>MOL_PROPERTY
Valence
SciTegic.value.DoubleValue
7.320

@<SCITEGIC>MOL_PROPERTY
Coulomb
SciTegic.value.DoubleValue
-8.530

@<SCITEGIC>MOL_PROPERTY
VdW
SciTegic.value.DoubleValue
1.249

@<SCITEGIC>MOL_PROPERTY
VdW6
SciTegic.value.DoubleValue
-2.615

@<SCITEGIC>MOL_PROPERTY
VdW12
SciTegic.value.DoubleValue
3.864

@<SCITEGIC>MOL_PROPERTY
Bond
SciTegic.value.DoubleValue
0.056

@<SCITEGIC>MOL_PROPERTY
Angle
SciTegic.value.DoubleValue
0.694

@<SCITEGIC>MOL_PROPERTY
Pdih
SciTegic.value.DoubleValue
6.570

@<SCITEGIC>MOL_PROPERTY
Idih
SciTegic.value.DoubleValue
0.000

@<SCITEGIC>MOL_PROPERTY
Tether
SciTegic.value.DoubleValue
0.000

@<TRIPOS>MOLECULE
guest-s16_confgen4.mol2 : confsearch ligand conformer 831
          13          13           1
SMALL
USER_CHARGES
 
@<TRIPOS>ATOM
       1    C1      20.640905   19.882547   21.951506 C.3        1 MOL1        -0.1693
       2    H1      20.452671   20.908504   22.294386 H          1 MOL1         0.0829
       3    H2      21.636182   19.843379   21.492999 H          1 MOL1         0.0829
       4    C2      19.477081   19.245728   21.122482 C.3        1 MOL1        -0.1768
       5    H3      18.891340   19.933938   20.503423 H          1 MOL1         0.0829
       6    H4      19.766805   18.381445   20.512023 H          1 MOL1         0.0829
       7    C3      18.855274   18.880801   22.504159 C.3        1 MOL1         0.1211
       8    H5      18.286550   19.700537   22.964210 H          1 MOL1         0.0786
       9    C4      20.326464   18.771520   23.007003 C.3        1 MOL1        -0.1768
      10    H6      20.494430   19.041048   24.055484 H          1 MOL1         0.0829
      11    H7      20.804815   17.803961   22.810017 H          1 MOL1         0.0829
      12    O1      18.117233   17.681251   22.534517 O.3        1 MOL1        -0.5515
      13    H8      17.922977   17.483248   23.475933 H          1 MOL1         0.3773
@<TRIPOS>BOND
    1     1     2    1
    2     1     3    1
    3     1     4    1
    4     4     5    1
    5     4     6    1
    6     4     7    1
    7     7     8    1
    8     1     9    1
    9     7     9    1
   10     9    10    1
   11     9    11    1
   12     7    12    1
   13    12    13    1
@<TRIPOS>SUBSTRUCTURE
       1 MOL1            1 RESIDUE      1      MOL     
@<SCITEGIC>MOL_PROPERTY
VConf Rank
SciTegic.value.IntegerValue
831

@<SCITEGIC>MOL_PROPERTY
Conf_Id
SciTegic.value.IntegerValue
22

@<SCITEGIC>MOL_PROPERTY
Delta U+W
SciTegic.value.DoubleValue
0.000

@<SCITEGIC>MOL_PROPERTY
U+W
SciTegic.value.DoubleValue
-3.131

@<SCITEGIC>MOL_PROPERTY
Grad RMS
SciTegic.value.DoubleValue
0.000000

@<SCITEGIC>MOL_PROPERTY
U
SciTegic.value.DoubleValue
-0.154

@<SCITEGIC>MOL_PROPERTY
W
SciTegic.value.DoubleValue
-2.978

@<SCITEGIC>MOL_PROPERTY
W(PB)
SciTegic.value.DoubleValue
-4.579

@<SCITEGIC>MOL_PROPERTY
W(SA)
SciTegic.value.DoubleValue
1.601

@<SCITEGIC>MOL_PROPERTY
Valence
SciTegic.value.DoubleValue
6.333

@<SCITEGIC>MOL_PROPERTY
Coulomb
SciTegic.value.DoubleValue
-7.439

@<SCITEGIC>MOL_PROPERTY
VdW
SciTegic.value.DoubleValue
0.952

@<SCITEGIC>MOL_PROPERTY
VdW6
SciTegic.value.DoubleValue
-2.120

@<SCITEGIC>MOL_PROPERTY
VdW12
SciTegic.value.DoubleValue
3.072

@<SCITEGIC>MOL_PROPERTY
Bond
SciTegic.value.DoubleValue
0.065

@<SCITEGIC>MOL_PROPERTY
Angle
SciTegic.value.DoubleValue
0.931

@<SCITEGIC>MOL_PROPERTY
Pdih
SciTegic.value.DoubleValue
5.338

@<SCITEGIC>MOL_PROPERTY
Idih
SciTegic.value.DoubleValue
0.000

@<SCITEGIC>MOL_PROPERTY
Tether
SciTegic.value.DoubleValue
0.000

@<TRIPOS>MOLECULE
guest-s16_confgen4.mol2 : confsearch ligand conformer 832
          13          13           1
SMALL
USER_CHARGES
 
@<TRIPOS>ATOM
       1    C1      18.885439   17.839583   22.155631 C.3        1 MOL1        -0.1693
       2    H1      17.825802   18.015811   22.383004 H          1 MOL1         0.0829
       3    H2      19.029319   16.769709   21.963262 H          1 MOL1         0.0829
       4    C2      19.888637   18.498239   23.159173 C.3        1 MOL1        -0.1768
       5    H3      20.899668   18.072424   23.142090 H          1 MOL1         0.0829
       6    H4      19.553273   18.569015   24.199699 H          1 MOL1         0.0829
       7    C3      19.713986   19.786445   22.299396 C.3        1 MOL1         0.1211
       8    H5      18.823761   20.376777   22.556437 H          1 MOL1         0.0786
       9    C4      19.499192   18.816207   21.098835 C.3        1 MOL1        -0.1768
      10    H6      20.425375   18.462419   20.629151 H          1 MOL1         0.0829
      11    H7      18.820004   19.170469   20.315787 H          1 MOL1         0.0829
      12    O1      20.852702   20.611104   22.211005 O.3        1 MOL1        -0.5515
      13    H8      20.964941   21.046179   23.083539 H          1 MOL1         0.3773
@<TRIPOS>BOND
    1     1     2    1
    2     1     3    1
    3     1     4    1
    4     4     5    1
    5     4     6    1
    6     4     7    1
    7     7     8    1
    8     1     9    1
    9     7     9    1
   10     9    10    1
   11     9    11    1
   12     7    12    1
   13    12    13    1
@<TRIPOS>SUBSTRUCTURE
       1 MOL1            1 RESIDUE      1      MOL     
@<SCITEGIC>MOL_PROPERTY
VConf Rank
SciTegic.value.IntegerValue
832

@<SCITEGIC>MOL_PROPERTY
Conf_Id
SciTegic.value.IntegerValue
19

@<SCITEGIC>MOL_PROPERTY
Delta U+W
SciTegic.value.DoubleValue
-0.011

@<SCITEGIC>MOL_PROPERTY
U+W
SciTegic.value.DoubleValue
-3.142

@<SCITEGIC>MOL_PROPERTY
Grad RMS
SciTegic.value.DoubleValue
0.000000

@<SCITEGIC>MOL_PROPERTY
U
SciTegic.value.DoubleValue
-0.154

@<SCITEGIC>MOL_PROPERTY
W
SciTegic.value.DoubleValue
-2.989

@<SCITEGIC>MOL_PROPERTY
W(PB)
SciTegic.value.DoubleValue
-4.588

@<SCITEGIC>MOL_PROPERTY
W(SA)
SciTegic.value.DoubleValue
1.599

@<SCITEGIC>MOL_PROPERTY
Valence
SciTegic.value.DoubleValue
6.334

@<SCITEGIC>MOL_PROPERTY
Coulomb
SciTegic.value.DoubleValue
-7.439

@<SCITEGIC>MOL_PROPERTY
VdW
SciTegic.value.DoubleValue
0.951

@<SCITEGIC>MOL_PROPERTY
VdW6
SciTegic.value.DoubleValue
-2.120

@<SCITEGIC>MOL_PROPERTY
VdW12
SciTegic.value.DoubleValue
3.072

@<SCITEGIC>MOL_PROPERTY
Bond
SciTegic.value.DoubleValue
0.065

@<SCITEGIC>MOL_PROPERTY
Angle
SciTegic.value.DoubleValue
0.930

@<SCITEGIC>MOL_PROPERTY
Pdih
SciTegic.value.DoubleValue
5.339

@<SCITEGIC>MOL_PROPERTY
Idih
SciTegic.value.DoubleValue
0.000

@<SCITEGIC>MOL_PROPERTY
Tether
SciTegic.value.DoubleValue
0.000

@<TRIPOS>MOLECULE
guest-s16_confgen4.mol2 : confsearch ligand conformer 833
          13          13           1
SMALL
USER_CHARGES
 
@<TRIPOS>ATOM
       1    C1      20.540058   19.212081   21.462540 C.3        1 MOL1        -0.1693
       2    H1      20.920098   19.844376   20.651522 H          1 MOL1         0.0829
       3    H2      21.283907   18.434336   21.679352 H          1 MOL1         0.0829
       4    C2      19.076919   18.682807   21.295010 C.3        1 MOL1        -0.1768
       5    H3      18.411521   19.353289   20.737816 H          1 MOL1         0.0829
       6    H4      18.974999   17.670528   20.888443 H          1 MOL1         0.0829
       7    C3      18.955935   18.805836   22.846028 C.3        1 MOL1         0.1211
       8    H5      17.965398   19.114644   23.204200 H          1 MOL1         0.0786
       9    C4      19.996926   19.962339   22.723818 C.3        1 MOL1        -0.1768
      10    H6      20.697959   20.067297   23.559215 H          1 MOL1         0.0829
      11    H7      19.554867   20.943682   22.512814 H          1 MOL1         0.0829
      12    O1      19.401016   17.675542   23.568856 O.3        1 MOL1        -0.5515
      13    H8      19.442084   17.932939   24.514486 H          1 MOL1         0.3773
@<TRIPOS>BOND
    1     1     2    1
    2     1     3    1
    3     1     4    1
    4     4     5    1
    5     4     6    1
    6     4     7    1
    7     7     8    1
    8     1     9    1
    9     7     9    1
   10     9    10    1
   11     9    11    1
   12     7    12    1
   13    12    13    1
@<TRIPOS>SUBSTRUCTURE
       1 MOL1            1 RESIDUE      1      MOL     
@<SCITEGIC>MOL_PROPERTY
VConf Rank
SciTegic.value.IntegerValue
833

@<SCITEGIC>MOL_PROPERTY
Conf_Id
SciTegic.value.IntegerValue
20

@<SCITEGIC>MOL_PROPERTY
Delta U+W
SciTegic.value.DoubleValue
1.030

@<SCITEGIC>MOL_PROPERTY
U+W
SciTegic.value.DoubleValue
-2.101

@<SCITEGIC>MOL_PROPERTY
Grad RMS
SciTegic.value.DoubleValue
0.000000

@<SCITEGIC>MOL_PROPERTY
U
SciTegic.value.DoubleValue
0.841

@<SCITEGIC>MOL_PROPERTY
W
SciTegic.value.DoubleValue
-2.942

@<SCITEGIC>MOL_PROPERTY
W(PB)
SciTegic.value.DoubleValue
-4.530

@<SCITEGIC>MOL_PROPERTY
W(SA)
SciTegic.value.DoubleValue
1.587

@<SCITEGIC>MOL_PROPERTY
Valence
SciTegic.value.DoubleValue
6.736

@<SCITEGIC>MOL_PROPERTY
Coulomb
SciTegic.value.DoubleValue
-7.246

@<SCITEGIC>MOL_PROPERTY
VdW
SciTegic.value.DoubleValue
1.352

@<SCITEGIC>MOL_PROPERTY
VdW6
SciTegic.value.DoubleValue
-2.500

@<SCITEGIC>MOL_PROPERTY
VdW12
SciTegic.value.DoubleValue
3.851

@<SCITEGIC>MOL_PROPERTY
Bond
SciTegic.value.DoubleValue
0.063

@<SCITEGIC>MOL_PROPERTY
Angle
SciTegic.value.DoubleValue
0.687

@<SCITEGIC>MOL_PROPERTY
Pdih
SciTegic.value.DoubleValue
5.986

@<SCITEGIC>MOL_PROPERTY
Idih
SciTegic.value.DoubleValue
0.000

@<SCITEGIC>MOL_PROPERTY
Tether
SciTegic.value.DoubleValue
0.000

@<TRIPOS>MOLECULE
guest-s16_confgen4.mol2 : confsearch ligand conformer 834
          13          13           1
SMALL
USER_CHARGES
 
@<TRIPOS>ATOM
       1    C1      19.342057   19.958992   22.895924 C.3        1 MOL1        -0.1693
       2    H1      19.730115   20.951592   22.631679 H          1 MOL1         0.0829
       3    H2      18.651526   20.066766   23.740893 H          1 MOL1         0.0829
       4    C2      20.433006   18.846726   23.037528 C.3        1 MOL1        -0.1768
       5    H3      21.410635   19.174604   23.407703 H          1 MOL1         0.0829
       6    H4      20.116972   17.966225   23.610439 H          1 MOL1         0.0829
       7    C3      20.309375   18.700418   21.490768 C.3        1 MOL1         0.1211
       8    H5      20.905018   19.430883   20.926566 H          1 MOL1         0.0786
       9    C4      18.820170   19.117193   21.684987 C.3        1 MOL1        -0.1768
      10    H6      18.143647   18.297145   21.955589 H          1 MOL1         0.0829
      11    H7      18.373419   19.683933   20.860662 H          1 MOL1         0.0829
      12    O1      20.512829   17.401187   20.988351 O.3        1 MOL1        -0.5515
      13    H8      19.959834   16.797174   21.526945 H          1 MOL1         0.3773
@<TRIPOS>BOND
    1     1     2    1
    2     1     3    1
    3     1     4    1
    4     4     5    1
    5     4     6    1
    6     4     7    1
    7     7     8    1
    8     1     9    1
    9     7     9    1
   10     9    10    1
   11     9    11    1
   12     7    12    1
   13    12    13    1
@<TRIPOS>SUBSTRUCTURE
       1 MOL1            1 RESIDUE      1      MOL     
@<SCITEGIC>MOL_PROPERTY
VConf Rank
SciTegic.value.IntegerValue
834

@<SCITEGIC>MOL_PROPERTY
Conf_Id
SciTegic.value.IntegerValue
24

@<SCITEGIC>MOL_PROPERTY
Delta U+W
SciTegic.value.DoubleValue
0.356

@<SCITEGIC>MOL_PROPERTY
U+W
SciTegic.value.DoubleValue
-2.775

@<SCITEGIC>MOL_PROPERTY
Grad RMS
SciTegic.value.DoubleValue
0.000000

@<SCITEGIC>MOL_PROPERTY
U
SciTegic.value.DoubleValue
-0.184

@<SCITEGIC>MOL_PROPERTY
W
SciTegic.value.DoubleValue
-2.591

@<SCITEGIC>MOL_PROPERTY
W(PB)
SciTegic.value.DoubleValue
-4.184

@<SCITEGIC>MOL_PROPERTY
W(SA)
SciTegic.value.DoubleValue
1.593

@<SCITEGIC>MOL_PROPERTY
Valence
SciTegic.value.DoubleValue
6.840

@<SCITEGIC>MOL_PROPERTY
Coulomb
SciTegic.value.DoubleValue
-7.916

@<SCITEGIC>MOL_PROPERTY
VdW
SciTegic.value.DoubleValue
0.893

@<SCITEGIC>MOL_PROPERTY
VdW6
SciTegic.value.DoubleValue
-2.167

@<SCITEGIC>MOL_PROPERTY
VdW12
SciTegic.value.DoubleValue
3.060

@<SCITEGIC>MOL_PROPERTY
Bond
SciTegic.value.DoubleValue
0.059

@<SCITEGIC>MOL_PROPERTY
Angle
SciTegic.value.DoubleValue
0.918

@<SCITEGIC>MOL_PROPERTY
Pdih
SciTegic.value.DoubleValue
5.862

@<SCITEGIC>MOL_PROPERTY
Idih
SciTegic.value.DoubleValue
0.000

@<SCITEGIC>MOL_PROPERTY
Tether
SciTegic.value.DoubleValue
0.000

@<TRIPOS>MOLECULE
guest-s16_confgen4.mol2 : confsearch ligand conformer 835
          13          13           1
SMALL
USER_CHARGES
 
@<TRIPOS>ATOM
       1    C1      20.776805   18.816840   22.470405 C.3        1 MOL1        -0.1693
       2    H1      21.806417   19.158502   22.310593 H          1 MOL1         0.0829
       3    H2      20.796119   17.976356   23.175749 H          1 MOL1         0.0829
       4    C2      19.928696   18.572243   21.177725 C.3        1 MOL1        -0.1768
       5    H3      20.197222   19.215500   20.330890 H          1 MOL1         0.0829
       6    H4      19.874011   17.536424   20.824461 H          1 MOL1         0.0829
       7    C3      18.701755   19.078675   21.997564 C.3        1 MOL1         0.1211
       8    H5      17.971173   19.660703   21.421386 H          1 MOL1         0.0786
       9    C4      19.729843   19.931835   22.803260 C.3        1 MOL1        -0.1768
      10    H6      19.949615   20.908443   22.354982 H          1 MOL1         0.0829
      11    H7      19.502077   20.079425   23.864885 H          1 MOL1         0.0829
      12    O1      18.040901   18.083545   22.749039 O.3        1 MOL1        -0.5515
      13    H8      18.737224   17.599481   23.239070 H          1 MOL1         0.3773
@<TRIPOS>BOND
    1     1     2    1
    2     1     3    1
    3     1     4    1
    4     4     5    1
    5     4     6    1
    6     4     7    1
    7     7     8    1
    8     1     9    1
    9     7     9    1
   10     9    10    1
   11     9    11    1
   12     7    12    1
   13    12    13    1
@<TRIPOS>SUBSTRUCTURE
       1 MOL1            1 RESIDUE      1      MOL     
@<SCITEGIC>MOL_PROPERTY
VConf Rank
SciTegic.value.IntegerValue
835

@<SCITEGIC>MOL_PROPERTY
Conf_Id
SciTegic.value.IntegerValue
44

@<SCITEGIC>MOL_PROPERTY
Delta U+W
SciTegic.value.DoubleValue
0.823

@<SCITEGIC>MOL_PROPERTY
U+W
SciTegic.value.DoubleValue
-2.308

@<SCITEGIC>MOL_PROPERTY
Grad RMS
SciTegic.value.DoubleValue
0.000000

@<SCITEGIC>MOL_PROPERTY
U
SciTegic.value.DoubleValue
0.039

@<SCITEGIC>MOL_PROPERTY
W
SciTegic.value.DoubleValue
-2.348

@<SCITEGIC>MOL_PROPERTY
W(PB)
SciTegic.value.DoubleValue
-3.918

@<SCITEGIC>MOL_PROPERTY
W(SA)
SciTegic.value.DoubleValue
1.571

@<SCITEGIC>MOL_PROPERTY
Valence
SciTegic.value.DoubleValue
7.320

@<SCITEGIC>MOL_PROPERTY
Coulomb
SciTegic.value.DoubleValue
-8.530

@<SCITEGIC>MOL_PROPERTY
VdW
SciTegic.value.DoubleValue
1.249

@<SCITEGIC>MOL_PROPERTY
VdW6
SciTegic.value.DoubleValue
-2.615

@<SCITEGIC>MOL_PROPERTY
VdW12
SciTegic.value.DoubleValue
3.864

@<SCITEGIC>MOL_PROPERTY
Bond
SciTegic.value.DoubleValue
0.056

@<SCITEGIC>MOL_PROPERTY
Angle
SciTegic.value.DoubleValue
0.694

@<SCITEGIC>MOL_PROPERTY
Pdih
SciTegic.value.DoubleValue
6.570

@<SCITEGIC>MOL_PROPERTY
Idih
SciTegic.value.DoubleValue
0.000

@<SCITEGIC>MOL_PROPERTY
Tether
SciTegic.value.DoubleValue
0.000

@<TRIPOS>MOLECULE
guest-s16_confgen4.mol2 : confsearch ligand conformer 836
          13          13           1
SMALL
USER_CHARGES
 
@<TRIPOS>ATOM
       1    C1      19.528403   17.837727   22.767535 C.3        1 MOL1        -0.1693
       2    H1      18.544335   17.390100   22.575635 H          1 MOL1         0.0829
       3    H2      20.145133   17.109747   23.307930 H          1 MOL1         0.0829
       4    C2      19.484682   19.281459   23.368394 C.3        1 MOL1        -0.1768
       5    H3      18.640305   19.504828   24.029526 H          1 MOL1         0.0829
       6    H4      20.411689   19.603684   23.858715 H          1 MOL1         0.0829
       7    C3      19.334916   19.759892   21.892752 C.3        1 MOL1         0.1211
       8    H5      18.303650   19.718095   21.516181 H          1 MOL1         0.0786
       9    C4      20.194198   18.513133   21.523400 C.3        1 MOL1        -0.1768
      10    H6      19.978041   18.054387   20.552318 H          1 MOL1         0.0829
      11    H7      21.277486   18.664493   21.609261 H          1 MOL1         0.0829
      12    O1      19.923946   21.005842   21.600862 O.3        1 MOL1        -0.5515
      13    H8      19.905942   21.114521   20.625634 H          1 MOL1         0.3773
@<TRIPOS>BOND
    1     1     2    1
    2     1     3    1
    3     1     4    1
    4     4     5    1
    5     4     6    1
    6     4     7    1
    7     7     8    1
    8     1     9    1
    9     7     9    1
   10     9    10    1
   11     9    11    1
   12     7    12    1
   13    12    13    1
@<TRIPOS>SUBSTRUCTURE
       1 MOL1            1 RESIDUE      1      MOL     
@<SCITEGIC>MOL_PROPERTY
VConf Rank
SciTegic.value.IntegerValue
836

@<SCITEGIC>MOL_PROPERTY
Conf_Id
SciTegic.value.IntegerValue
22

@<SCITEGIC>MOL_PROPERTY
Delta U+W
SciTegic.value.DoubleValue
0.000

@<SCITEGIC>MOL_PROPERTY
U+W
SciTegic.value.DoubleValue
-3.131

@<SCITEGIC>MOL_PROPERTY
Grad RMS
SciTegic.value.DoubleValue
0.000000

@<SCITEGIC>MOL_PROPERTY
U
SciTegic.value.DoubleValue
-0.154

@<SCITEGIC>MOL_PROPERTY
W
SciTegic.value.DoubleValue
-2.978

@<SCITEGIC>MOL_PROPERTY
W(PB)
SciTegic.value.DoubleValue
-4.579

@<SCITEGIC>MOL_PROPERTY
W(SA)
SciTegic.value.DoubleValue
1.601

@<SCITEGIC>MOL_PROPERTY
Valence
SciTegic.value.DoubleValue
6.333

@<SCITEGIC>MOL_PROPERTY
Coulomb
SciTegic.value.DoubleValue
-7.439

@<SCITEGIC>MOL_PROPERTY
VdW
SciTegic.value.DoubleValue
0.952

@<SCITEGIC>MOL_PROPERTY
VdW6
SciTegic.value.DoubleValue
-2.120

@<SCITEGIC>MOL_PROPERTY
VdW12
SciTegic.value.DoubleValue
3.072

@<SCITEGIC>MOL_PROPERTY
Bond
SciTegic.value.DoubleValue
0.065

@<SCITEGIC>MOL_PROPERTY
Angle
SciTegic.value.DoubleValue
0.931

@<SCITEGIC>MOL_PROPERTY
Pdih
SciTegic.value.DoubleValue
5.338

@<SCITEGIC>MOL_PROPERTY
Idih
SciTegic.value.DoubleValue
0.000

@<SCITEGIC>MOL_PROPERTY
Tether
SciTegic.value.DoubleValue
0.000

@<TRIPOS>MOLECULE
guest-s16_confgen4.mol2 : confsearch ligand conformer 837
          13          13           1
SMALL
USER_CHARGES
 
@<TRIPOS>ATOM
       1    C1      19.200415   19.952721   22.954843 C.3        1 MOL1        -0.1693
       2    H1      19.389731   20.922939   22.476906 H          1 MOL1         0.0829
       3    H2      18.741406   20.128572   23.935009 H          1 MOL1         0.0829
       4    C2      20.412314   18.963747   22.931169 C.3        1 MOL1        -0.1768
       5    H3      20.355318   18.151650   23.666725 H          1 MOL1         0.0829
       6    H4      21.407337   19.418972   22.984766 H          1 MOL1         0.0829
       7    C3      19.915686   18.580992   21.504265 C.3        1 MOL1         0.1211
       8    H5      20.255775   19.265670   20.715205 H          1 MOL1         0.0786
       9    C4      18.488187   18.901166   22.041460 C.3        1 MOL1        -0.1768
      10    H6      18.009140   18.073971   22.579836 H          1 MOL1         0.0829
      11    H7      17.780802   19.299536   21.306022 H          1 MOL1         0.0829
      12    O1      20.131733   17.240065   21.130380 O.3        1 MOL1        -0.5515
      13    H8      21.094254   17.134378   20.970425 H          1 MOL1         0.3773
@<TRIPOS>BOND
    1     1     2    1
    2     1     3    1
    3     1     4    1
    4     4     5    1
    5     4     6    1
    6     4     7    1
    7     7     8    1
    8     1     9    1
    9     7     9    1
   10     9    10    1
   11     9    11    1
   12     7    12    1
   13    12    13    1
@<TRIPOS>SUBSTRUCTURE
       1 MOL1            1 RESIDUE      1      MOL     
@<SCITEGIC>MOL_PROPERTY
VConf Rank
SciTegic.value.IntegerValue
837

@<SCITEGIC>MOL_PROPERTY
Conf_Id
SciTegic.value.IntegerValue
19

@<SCITEGIC>MOL_PROPERTY
Delta U+W
SciTegic.value.DoubleValue
-0.011

@<SCITEGIC>MOL_PROPERTY
U+W
SciTegic.value.DoubleValue
-3.142

@<SCITEGIC>MOL_PROPERTY
Grad RMS
SciTegic.value.DoubleValue
0.000000

@<SCITEGIC>MOL_PROPERTY
U
SciTegic.value.DoubleValue
-0.154

@<SCITEGIC>MOL_PROPERTY
W
SciTegic.value.DoubleValue
-2.989

@<SCITEGIC>MOL_PROPERTY
W(PB)
SciTegic.value.DoubleValue
-4.588

@<SCITEGIC>MOL_PROPERTY
W(SA)
SciTegic.value.DoubleValue
1.599

@<SCITEGIC>MOL_PROPERTY
Valence
SciTegic.value.DoubleValue
6.334

@<SCITEGIC>MOL_PROPERTY
Coulomb
SciTegic.value.DoubleValue
-7.439

@<SCITEGIC>MOL_PROPERTY
VdW
SciTegic.value.DoubleValue
0.951

@<SCITEGIC>MOL_PROPERTY
VdW6
SciTegic.value.DoubleValue
-2.120

@<SCITEGIC>MOL_PROPERTY
VdW12
SciTegic.value.DoubleValue
3.072

@<SCITEGIC>MOL_PROPERTY
Bond
SciTegic.value.DoubleValue
0.065

@<SCITEGIC>MOL_PROPERTY
Angle
SciTegic.value.DoubleValue
0.930

@<SCITEGIC>MOL_PROPERTY
Pdih
SciTegic.value.DoubleValue
5.339

@<SCITEGIC>MOL_PROPERTY
Idih
SciTegic.value.DoubleValue
0.000

@<SCITEGIC>MOL_PROPERTY
Tether
SciTegic.value.DoubleValue
0.000

@<TRIPOS>MOLECULE
guest-s16_confgen4.mol2 : confsearch ligand conformer 838
          13          13           1
SMALL
USER_CHARGES
 
@<TRIPOS>ATOM
       1    C1      18.489478   18.917993   22.719371 C.3        1 MOL1        -0.1693
       2    H1      17.801504   19.177130   23.532708 H          1 MOL1         0.0829
       3    H2      17.934980   18.356952   21.955846 H          1 MOL1         0.0829
       4    C2      19.846430   18.266103   23.146793 C.3        1 MOL1        -0.1768
       5    H3      20.220135   18.592897   24.124707 H          1 MOL1         0.0829
       6    H4      19.889716   17.172219   23.102759 H          1 MOL1         0.0829
       7    C3      20.480544   19.018993   21.935808 C.3        1 MOL1         0.1211
       8    H5      21.503293   19.379206   22.106230 H          1 MOL1         0.0786
       9    C4      19.365129   20.087660   22.159179 C.3        1 MOL1        -0.1768
      10    H6      18.986574   20.581912   21.257645 H          1 MOL1         0.0829
      11    H7      19.621746   20.856596   22.898002 H          1 MOL1         0.0829
      12    O1      20.409348   18.329928   20.703629 O.3        1 MOL1        -0.5515
      13    H8      20.672810   18.962107   20.001424 H          1 MOL1         0.3773
@<TRIPOS>BOND
    1     1     2    1
    2     1     3    1
    3     1     4    1
    4     4     5    1
    5     4     6    1
    6     4     7    1
    7     7     8    1
    8     1     9    1
    9     7     9    1
   10     9    10    1
   11     9    11    1
   12     7    12    1
   13    12    13    1
@<TRIPOS>SUBSTRUCTURE
       1 MOL1            1 RESIDUE      1      MOL     
@<SCITEGIC>MOL_PROPERTY
VConf Rank
SciTegic.value.IntegerValue
838

@<SCITEGIC>MOL_PROPERTY
Conf_Id
SciTegic.value.IntegerValue
20

@<SCITEGIC>MOL_PROPERTY
Delta U+W
SciTegic.value.DoubleValue
1.030

@<SCITEGIC>MOL_PROPERTY
U+W
SciTegic.value.DoubleValue
-2.101

@<SCITEGIC>MOL_PROPERTY
Grad RMS
SciTegic.value.DoubleValue
0.000000

@<SCITEGIC>MOL_PROPERTY
U
SciTegic.value.DoubleValue
0.841

@<SCITEGIC>MOL_PROPERTY
W
SciTegic.value.DoubleValue
-2.942

@<SCITEGIC>MOL_PROPERTY
W(PB)
SciTegic.value.DoubleValue
-4.530

@<SCITEGIC>MOL_PROPERTY
W(SA)
SciTegic.value.DoubleValue
1.587

@<SCITEGIC>MOL_PROPERTY
Valence
SciTegic.value.DoubleValue
6.736

@<SCITEGIC>MOL_PROPERTY
Coulomb
SciTegic.value.DoubleValue
-7.246

@<SCITEGIC>MOL_PROPERTY
VdW
SciTegic.value.DoubleValue
1.352

@<SCITEGIC>MOL_PROPERTY
VdW6
SciTegic.value.DoubleValue
-2.500

@<SCITEGIC>MOL_PROPERTY
VdW12
SciTegic.value.DoubleValue
3.851

@<SCITEGIC>MOL_PROPERTY
Bond
SciTegic.value.DoubleValue
0.063

@<SCITEGIC>MOL_PROPERTY
Angle
SciTegic.value.DoubleValue
0.687

@<SCITEGIC>MOL_PROPERTY
Pdih
SciTegic.value.DoubleValue
5.986

@<SCITEGIC>MOL_PROPERTY
Idih
SciTegic.value.DoubleValue
0.000

@<SCITEGIC>MOL_PROPERTY
Tether
SciTegic.value.DoubleValue
0.000

@<TRIPOS>MOLECULE
guest-s16_confgen4.mol2 : confsearch ligand conformer 839
          13          13           1
SMALL
USER_CHARGES
 
@<TRIPOS>ATOM
       1    C1      19.052743   19.705331   21.440472 C.3        1 MOL1        -0.1693
       2    H1      18.702396   20.667374   21.837207 H          1 MOL1         0.0829
       3    H2      18.703341   19.605305   20.405902 H          1 MOL1         0.0829
       4    C2      18.792199   18.478437   22.375461 C.3        1 MOL1        -0.1768
       5    H3      17.888001   18.525743   22.992292 H          1 MOL1         0.0829
       6    H4      18.824048   17.504456   21.871741 H          1 MOL1         0.0829
       7    C3      20.117156   18.892802   23.083942 C.3        1 MOL1         0.1211
       8    H5      19.991106   19.687319   23.831970 H          1 MOL1         0.0786
       9    C4      20.569480   19.410350   21.685120 C.3        1 MOL1        -0.1768
      10    H6      20.998573   18.644662   21.027100 H          1 MOL1         0.0829
      11    H7      21.234893   20.280674   21.692276 H          1 MOL1         0.0829
      12    O1      20.878052   17.832112   23.611002 O.3        1 MOL1        -0.5515
      13    H8      20.956616   17.158272   22.903551 H          1 MOL1         0.3773
@<TRIPOS>BOND
    1     1     2    1
    2     1     3    1
    3     1     4    1
    4     4     5    1
    5     4     6    1
    6     4     7    1
    7     7     8    1
    8     1     9    1
    9     7     9    1
   10     9    10    1
   11     9    11    1
   12     7    12    1
   13    12    13    1
@<TRIPOS>SUBSTRUCTURE
       1 MOL1            1 RESIDUE      1      MOL     
@<SCITEGIC>MOL_PROPERTY
VConf Rank
SciTegic.value.IntegerValue
839

@<SCITEGIC>MOL_PROPERTY
Conf_Id
SciTegic.value.IntegerValue
24

@<SCITEGIC>MOL_PROPERTY
Delta U+W
SciTegic.value.DoubleValue
0.356

@<SCITEGIC>MOL_PROPERTY
U+W
SciTegic.value.DoubleValue
-2.775

@<SCITEGIC>MOL_PROPERTY
Grad RMS
SciTegic.value.DoubleValue
0.000000

@<SCITEGIC>MOL_PROPERTY
U
SciTegic.value.DoubleValue
-0.184

@<SCITEGIC>MOL_PROPERTY
W
SciTegic.value.DoubleValue
-2.591

@<SCITEGIC>MOL_PROPERTY
W(PB)
SciTegic.value.DoubleValue
-4.184

@<SCITEGIC>MOL_PROPERTY
W(SA)
SciTegic.value.DoubleValue
1.593

@<SCITEGIC>MOL_PROPERTY
Valence
SciTegic.value.DoubleValue
6.840

@<SCITEGIC>MOL_PROPERTY
Coulomb
SciTegic.value.DoubleValue
-7.916

@<SCITEGIC>MOL_PROPERTY
VdW
SciTegic.value.DoubleValue
0.893

@<SCITEGIC>MOL_PROPERTY
VdW6
SciTegic.value.DoubleValue
-2.167

@<SCITEGIC>MOL_PROPERTY
VdW12
SciTegic.value.DoubleValue
3.060

@<SCITEGIC>MOL_PROPERTY
Bond
SciTegic.value.DoubleValue
0.059

@<SCITEGIC>MOL_PROPERTY
Angle
SciTegic.value.DoubleValue
0.918

@<SCITEGIC>MOL_PROPERTY
Pdih
SciTegic.value.DoubleValue
5.862

@<SCITEGIC>MOL_PROPERTY
Idih
SciTegic.value.DoubleValue
0.000

@<SCITEGIC>MOL_PROPERTY
Tether
SciTegic.value.DoubleValue
0.000

@<TRIPOS>MOLECULE
guest-s16_confgen4.mol2 : confsearch ligand conformer 840
          13          13           1
SMALL
USER_CHARGES
 
@<TRIPOS>ATOM
       1    C1      20.794600   19.168982   22.325961 C.3        1 MOL1        -0.1693
       2    H1      21.570151   19.932224   22.461447 H          1 MOL1         0.0829
       3    H2      21.279616   18.185394   22.285839 H          1 MOL1         0.0829
       4    C2      19.760111   19.440133   21.182962 C.3        1 MOL1        -0.1768
       5    H3      19.562544   20.502136   20.992878 H          1 MOL1         0.0829
       6    H4      19.957686   18.945917   20.225139 H          1 MOL1         0.0829
       7    C3      18.703605   18.750648   22.100784 C.3        1 MOL1         0.1211
       8    H5      17.695293   19.180546   22.046183 H          1 MOL1         0.0786
       9    C4      19.568771   19.259619   23.295117 C.3        1 MOL1        -0.1768
      10    H6      19.324292   20.277363   23.622902 H          1 MOL1         0.0829
      11    H7      19.599803   18.608283   24.175745 H          1 MOL1         0.0829
      12    O1      18.636810   17.346591   21.974733 O.3        1 MOL1        -0.5515
      13    H8      19.558575   17.020136   22.030320 H          1 MOL1         0.3773
@<TRIPOS>BOND
    1     1     2    1
    2     1     3    1
    3     1     4    1
    4     4     5    1
    5     4     6    1
    6     4     7    1
    7     7     8    1
    8     1     9    1
    9     7     9    1
   10     9    10    1
   11     9    11    1
   12     7    12    1
   13    12    13    1
@<TRIPOS>SUBSTRUCTURE
       1 MOL1            1 RESIDUE      1      MOL     
@<SCITEGIC>MOL_PROPERTY
VConf Rank
SciTegic.value.IntegerValue
840

@<SCITEGIC>MOL_PROPERTY
Conf_Id
SciTegic.value.IntegerValue
44

@<SCITEGIC>MOL_PROPERTY
Delta U+W
SciTegic.value.DoubleValue
0.823

@<SCITEGIC>MOL_PROPERTY
U+W
SciTegic.value.DoubleValue
-2.308

@<SCITEGIC>MOL_PROPERTY
Grad RMS
SciTegic.value.DoubleValue
0.000000

@<SCITEGIC>MOL_PROPERTY
U
SciTegic.value.DoubleValue
0.039

@<SCITEGIC>MOL_PROPERTY
W
SciTegic.value.DoubleValue
-2.348

@<SCITEGIC>MOL_PROPERTY
W(PB)
SciTegic.value.DoubleValue
-3.918

@<SCITEGIC>MOL_PROPERTY
W(SA)
SciTegic.value.DoubleValue
1.571

@<SCITEGIC>MOL_PROPERTY
Valence
SciTegic.value.DoubleValue
7.320

@<SCITEGIC>MOL_PROPERTY
Coulomb
SciTegic.value.DoubleValue
-8.530

@<SCITEGIC>MOL_PROPERTY
VdW
SciTegic.value.DoubleValue
1.249

@<SCITEGIC>MOL_PROPERTY
VdW6
SciTegic.value.DoubleValue
-2.615

@<SCITEGIC>MOL_PROPERTY
VdW12
SciTegic.value.DoubleValue
3.864

@<SCITEGIC>MOL_PROPERTY
Bond
SciTegic.value.DoubleValue
0.056

@<SCITEGIC>MOL_PROPERTY
Angle
SciTegic.value.DoubleValue
0.694

@<SCITEGIC>MOL_PROPERTY
Pdih
SciTegic.value.DoubleValue
6.570

@<SCITEGIC>MOL_PROPERTY
Idih
SciTegic.value.DoubleValue
0.000

@<SCITEGIC>MOL_PROPERTY
Tether
SciTegic.value.DoubleValue
0.000

@<TRIPOS>MOLECULE
guest-s16_confgen4.mol2 : confsearch ligand conformer 841
          13          13           1
SMALL
USER_CHARGES
 
@<TRIPOS>ATOM
       1    C1      19.701336   19.509257   21.014354 C.3        1 MOL1        -0.1693
       2    H1      19.136645   18.895929   20.299835 H          1 MOL1         0.0829
       3    H2      20.099091   20.384562   20.487126 H          1 MOL1         0.0829
       4    C2      20.721904   18.715308   21.894918 C.3        1 MOL1        -0.1768
       5    H3      21.192634   17.845347   21.424234 H          1 MOL1         0.0829
       6    H4      21.502147   19.329552   22.361298 H          1 MOL1         0.0829
       7    C3      19.503216   18.410138   22.817154 C.3        1 MOL1         0.1211
       8    H5      18.895170   17.559281   22.480429 H          1 MOL1         0.0786
       9    C4      18.958193   19.797094   22.360540 C.3        1 MOL1        -0.1768
      10    H6      17.867942   19.885829   22.300108 H          1 MOL1         0.0829
      11    H7      19.351159   20.650354   22.927390 H          1 MOL1         0.0829
      12    O1      19.799300   18.301149   24.190108 O.3        1 MOL1        -0.5515
      13    H8      18.943992   18.274106   24.670648 H          1 MOL1         0.3773
@<TRIPOS>BOND
    1     1     2    1
    2     1     3    1
    3     1     4    1
    4     4     5    1
    5     4     6    1
    6     4     7    1
    7     7     8    1
    8     1     9    1
    9     7     9    1
   10     9    10    1
   11     9    11    1
   12     7    12    1
   13    12    13    1
@<TRIPOS>SUBSTRUCTURE
       1 MOL1            1 RESIDUE      1      MOL     
@<SCITEGIC>MOL_PROPERTY
VConf Rank
SciTegic.value.IntegerValue
841

@<SCITEGIC>MOL_PROPERTY
Conf_Id
SciTegic.value.IntegerValue
22

@<SCITEGIC>MOL_PROPERTY
Delta U+W
SciTegic.value.DoubleValue
0.000

@<SCITEGIC>MOL_PROPERTY
U+W
SciTegic.value.DoubleValue
-3.131

@<SCITEGIC>MOL_PROPERTY
Grad RMS
SciTegic.value.DoubleValue
0.000000

@<SCITEGIC>MOL_PROPERTY
U
SciTegic.value.DoubleValue
-0.154

@<SCITEGIC>MOL_PROPERTY
W
SciTegic.value.DoubleValue
-2.978

@<SCITEGIC>MOL_PROPERTY
W(PB)
SciTegic.value.DoubleValue
-4.579

@<SCITEGIC>MOL_PROPERTY
W(SA)
SciTegic.value.DoubleValue
1.601

@<SCITEGIC>MOL_PROPERTY
Valence
SciTegic.value.DoubleValue
6.333

@<SCITEGIC>MOL_PROPERTY
Coulomb
SciTegic.value.DoubleValue
-7.439

@<SCITEGIC>MOL_PROPERTY
VdW
SciTegic.value.DoubleValue
0.952

@<SCITEGIC>MOL_PROPERTY
VdW6
SciTegic.value.DoubleValue
-2.120

@<SCITEGIC>MOL_PROPERTY
VdW12
SciTegic.value.DoubleValue
3.072

@<SCITEGIC>MOL_PROPERTY
Bond
SciTegic.value.DoubleValue
0.065

@<SCITEGIC>MOL_PROPERTY
Angle
SciTegic.value.DoubleValue
0.931

@<SCITEGIC>MOL_PROPERTY
Pdih
SciTegic.value.DoubleValue
5.338

@<SCITEGIC>MOL_PROPERTY
Idih
SciTegic.value.DoubleValue
0.000

@<SCITEGIC>MOL_PROPERTY
Tether
SciTegic.value.DoubleValue
0.000

@<TRIPOS>MOLECULE
guest-s16_confgen4.mol2 : confsearch ligand conformer 842
          13          13           1
SMALL
USER_CHARGES
 
@<TRIPOS>ATOM
       1    C1      20.923554   18.950532   21.989320 C.3        1 MOL1        -0.1693
       2    H1      21.172131   18.637840   20.966569 H          1 MOL1         0.0829
       3    H2      21.855779   19.149844   22.531140 H          1 MOL1         0.0829
       4    C2      19.886476   18.035102   22.719926 C.3        1 MOL1        -0.1768
       5    H3      19.878629   18.133253   23.812674 H          1 MOL1         0.0829
       6    H4      19.916445   16.970893   22.461598 H          1 MOL1         0.0829
       7    C3      18.803926   18.882729   21.985889 C.3        1 MOL1         0.1211
       8    H5      18.604379   18.555965   20.956099 H          1 MOL1         0.0786
       9    C4      19.822721   20.057857   22.085766 C.3        1 MOL1        -0.1768
      10    H6      19.798593   20.600420   23.038986 H          1 MOL1         0.0829
      11    H7      19.794032   20.784038   21.266132 H          1 MOL1         0.0829
      12    O1      17.600312   19.067304   22.694263 O.3        1 MOL1        -0.5515
      13    H8      17.125123   18.208603   22.688649 H          1 MOL1         0.3773
@<TRIPOS>BOND
    1     1     2    1
    2     1     3    1
    3     1     4    1
    4     4     5    1
    5     4     6    1
    6     4     7    1
    7     7     8    1
    8     1     9    1
    9     7     9    1
   10     9    10    1
   11     9    11    1
   12     7    12    1
   13    12    13    1
@<TRIPOS>SUBSTRUCTURE
       1 MOL1            1 RESIDUE      1      MOL     
@<SCITEGIC>MOL_PROPERTY
VConf Rank
SciTegic.value.IntegerValue
842

@<SCITEGIC>MOL_PROPERTY
Conf_Id
SciTegic.value.IntegerValue
19

@<SCITEGIC>MOL_PROPERTY
Delta U+W
SciTegic.value.DoubleValue
-0.011

@<SCITEGIC>MOL_PROPERTY
U+W
SciTegic.value.DoubleValue
-3.142

@<SCITEGIC>MOL_PROPERTY
Grad RMS
SciTegic.value.DoubleValue
0.000000

@<SCITEGIC>MOL_PROPERTY
U
SciTegic.value.DoubleValue
-0.154

@<SCITEGIC>MOL_PROPERTY
W
SciTegic.value.DoubleValue
-2.989

@<SCITEGIC>MOL_PROPERTY
W(PB)
SciTegic.value.DoubleValue
-4.588

@<SCITEGIC>MOL_PROPERTY
W(SA)
SciTegic.value.DoubleValue
1.599

@<SCITEGIC>MOL_PROPERTY
Valence
SciTegic.value.DoubleValue
6.334

@<SCITEGIC>MOL_PROPERTY
Coulomb
SciTegic.value.DoubleValue
-7.439

@<SCITEGIC>MOL_PROPERTY
VdW
SciTegic.value.DoubleValue
0.951

@<SCITEGIC>MOL_PROPERTY
VdW6
SciTegic.value.DoubleValue
-2.120

@<SCITEGIC>MOL_PROPERTY
VdW12
SciTegic.value.DoubleValue
3.072

@<SCITEGIC>MOL_PROPERTY
Bond
SciTegic.value.DoubleValue
0.065

@<SCITEGIC>MOL_PROPERTY
Angle
SciTegic.value.DoubleValue
0.930

@<SCITEGIC>MOL_PROPERTY
Pdih
SciTegic.value.DoubleValue
5.339

@<SCITEGIC>MOL_PROPERTY
Idih
SciTegic.value.DoubleValue
0.000

@<SCITEGIC>MOL_PROPERTY
Tether
SciTegic.value.DoubleValue
0.000

@<TRIPOS>MOLECULE
guest-s16_confgen4.mol2 : confsearch ligand conformer 843
          13          13           1
SMALL
USER_CHARGES
 
@<TRIPOS>ATOM
       1    C1      19.356790   20.101441   22.866909 C.3        1 MOL1        -0.1693
       2    H1      18.579873   20.648834   23.413478 H          1 MOL1         0.0829
       3    H2      20.283549   20.689436   22.891132 H          1 MOL1         0.0829
       4    C2      18.958902   19.574355   21.448164 C.3        1 MOL1        -0.1768
       5    H3      17.898625   19.315889   21.339658 H          1 MOL1         0.0829
       6    H4      19.254920   20.202793   20.600915 H          1 MOL1         0.0829
       7    C3      19.887035   18.355388   21.745010 C.3        1 MOL1         0.1211
       8    H5      19.533030   17.400759   21.334915 H          1 MOL1         0.0786
       9    C4      19.533066   18.593581   23.246364 C.3        1 MOL1        -0.1768
      10    H6      20.326461   18.369414   23.967907 H          1 MOL1         0.0829
      11    H7      18.611572   18.097398   23.574428 H          1 MOL1         0.0829
      12    O1      21.247574   18.549261   21.414115 O.3        1 MOL1        -0.5515
      13    H8      21.750289   17.801148   21.801104 H          1 MOL1         0.3773
@<TRIPOS>BOND
    1     1     2    1
    2     1     3    1
    3     1     4    1
    4     4     5    1
    5     4     6    1
    6     4     7    1
    7     7     8    1
    8     1     9    1
    9     7     9    1
   10     9    10    1
   11     9    11    1
   12     7    12    1
   13    12    13    1
@<TRIPOS>SUBSTRUCTURE
       1 MOL1            1 RESIDUE      1      MOL     
@<SCITEGIC>MOL_PROPERTY
VConf Rank
SciTegic.value.IntegerValue
843

@<SCITEGIC>MOL_PROPERTY
Conf_Id
SciTegic.value.IntegerValue
20

@<SCITEGIC>MOL_PROPERTY
Delta U+W
SciTegic.value.DoubleValue
1.030

@<SCITEGIC>MOL_PROPERTY
U+W
SciTegic.value.DoubleValue
-2.101

@<SCITEGIC>MOL_PROPERTY
Grad RMS
SciTegic.value.DoubleValue
0.000000

@<SCITEGIC>MOL_PROPERTY
U
SciTegic.value.DoubleValue
0.841

@<SCITEGIC>MOL_PROPERTY
W
SciTegic.value.DoubleValue
-2.942

@<SCITEGIC>MOL_PROPERTY
W(PB)
SciTegic.value.DoubleValue
-4.530

@<SCITEGIC>MOL_PROPERTY
W(SA)
SciTegic.value.DoubleValue
1.587

@<SCITEGIC>MOL_PROPERTY
Valence
SciTegic.value.DoubleValue
6.736

@<SCITEGIC>MOL_PROPERTY
Coulomb
SciTegic.value.DoubleValue
-7.246

@<SCITEGIC>MOL_PROPERTY
VdW
SciTegic.value.DoubleValue
1.352

@<SCITEGIC>MOL_PROPERTY
VdW6
SciTegic.value.DoubleValue
-2.500

@<SCITEGIC>MOL_PROPERTY
VdW12
SciTegic.value.DoubleValue
3.851

@<SCITEGIC>MOL_PROPERTY
Bond
SciTegic.value.DoubleValue
0.063

@<SCITEGIC>MOL_PROPERTY
Angle
SciTegic.value.DoubleValue
0.687

@<SCITEGIC>MOL_PROPERTY
Pdih
SciTegic.value.DoubleValue
5.986

@<SCITEGIC>MOL_PROPERTY
Idih
SciTegic.value.DoubleValue
0.000

@<SCITEGIC>MOL_PROPERTY
Tether
SciTegic.value.DoubleValue
0.000

@<TRIPOS>MOLECULE
guest-s16_confgen4.mol2 : confsearch ligand conformer 844
          13          13           1
SMALL
USER_CHARGES
 
@<TRIPOS>ATOM
       1    C1      20.046599   18.766833   23.444291 C.3        1 MOL1        -0.1693
       2    H1      20.896628   19.325329   23.858057 H          1 MOL1         0.0829
       3    H2      19.623361   18.136692   24.235627 H          1 MOL1         0.0829
       4    C2      20.332323   18.057140   22.079719 C.3        1 MOL1        -0.1768
       5    H3      21.356196   17.697972   21.928148 H          1 MOL1         0.0829
       6    H4      19.634930   17.248018   21.830018 H          1 MOL1         0.0829
       7    C3      19.995663   19.434623   21.432914 C.3        1 MOL1         0.1211
       8    H5      20.839383   20.137973   21.421524 H          1 MOL1         0.0786
       9    C4      19.025439   19.633857   22.636294 C.3        1 MOL1        -0.1768
      10    H6      18.035940   19.177150   22.510995 H          1 MOL1         0.0829
      11    H7      18.895132   20.667170   22.976261 H          1 MOL1         0.0829
      12    O1      19.383610   19.374322   20.166592 O.3        1 MOL1        -0.5515
      13    H8      18.643398   18.735757   20.237594 H          1 MOL1         0.3773
@<TRIPOS>BOND
    1     1     2    1
    2     1     3    1
    3     1     4    1
    4     4     5    1
    5     4     6    1
    6     4     7    1
    7     7     8    1
    8     1     9    1
    9     7     9    1
   10     9    10    1
   11     9    11    1
   12     7    12    1
   13    12    13    1
@<TRIPOS>SUBSTRUCTURE
       1 MOL1            1 RESIDUE      1      MOL     
@<SCITEGIC>MOL_PROPERTY
VConf Rank
SciTegic.value.IntegerValue
844

@<SCITEGIC>MOL_PROPERTY
Conf_Id
SciTegic.value.IntegerValue
24

@<SCITEGIC>MOL_PROPERTY
Delta U+W
SciTegic.value.DoubleValue
0.356

@<SCITEGIC>MOL_PROPERTY
U+W
SciTegic.value.DoubleValue
-2.775

@<SCITEGIC>MOL_PROPERTY
Grad RMS
SciTegic.value.DoubleValue
0.000000

@<SCITEGIC>MOL_PROPERTY
U
SciTegic.value.DoubleValue
-0.184

@<SCITEGIC>MOL_PROPERTY
W
SciTegic.value.DoubleValue
-2.591

@<SCITEGIC>MOL_PROPERTY
W(PB)
SciTegic.value.DoubleValue
-4.184

@<SCITEGIC>MOL_PROPERTY
W(SA)
SciTegic.value.DoubleValue
1.593

@<SCITEGIC>MOL_PROPERTY
Valence
SciTegic.value.DoubleValue
6.840

@<SCITEGIC>MOL_PROPERTY
Coulomb
SciTegic.value.DoubleValue
-7.916

@<SCITEGIC>MOL_PROPERTY
VdW
SciTegic.value.DoubleValue
0.893

@<SCITEGIC>MOL_PROPERTY
VdW6
SciTegic.value.DoubleValue
-2.167

@<SCITEGIC>MOL_PROPERTY
VdW12
SciTegic.value.DoubleValue
3.060

@<SCITEGIC>MOL_PROPERTY
Bond
SciTegic.value.DoubleValue
0.059

@<SCITEGIC>MOL_PROPERTY
Angle
SciTegic.value.DoubleValue
0.918

@<SCITEGIC>MOL_PROPERTY
Pdih
SciTegic.value.DoubleValue
5.862

@<SCITEGIC>MOL_PROPERTY
Idih
SciTegic.value.DoubleValue
0.000

@<SCITEGIC>MOL_PROPERTY
Tether
SciTegic.value.DoubleValue
0.000

@<TRIPOS>MOLECULE
guest-s16_confgen4.mol2 : confsearch ligand conformer 845
          13          13           1
SMALL
USER_CHARGES
 
@<TRIPOS>ATOM
       1    C1      20.484104   18.890852   23.005571 C.3        1 MOL1        -0.1693
       2    H1      21.006448   18.224878   23.702714 H          1 MOL1         0.0829
       3    H2      20.891752   19.903058   23.122007 H          1 MOL1         0.0829
       4    C2      18.921224   18.804928   23.018382 C.3        1 MOL1        -0.1768
       5    H3      18.523673   17.816105   23.277607 H          1 MOL1         0.0829
       6    H4      18.400774   19.558152   23.620457 H          1 MOL1         0.0829
       7    C3      18.984908   19.083086   21.484574 C.3        1 MOL1         0.1211
       8    H5      18.226960   18.558085   20.889280 H          1 MOL1         0.0786
       9    C4      20.381265   18.388527   21.526642 C.3        1 MOL1        -0.1768
      10    H6      20.341694   17.297609   21.420116 H          1 MOL1         0.0829
      11    H7      21.131656   18.779307   20.830287 H          1 MOL1         0.0829
      12    O1      19.014104   20.449259   21.131805 O.3        1 MOL1        -0.5515
      13    H8      19.703295   20.864125   21.690568 H          1 MOL1         0.3773
@<TRIPOS>BOND
    1     1     2    1
    2     1     3    1
    3     1     4    1
    4     4     5    1
    5     4     6    1
    6     4     7    1
    7     7     8    1
    8     1     9    1
    9     7     9    1
   10     9    10    1
   11     9    11    1
   12     7    12    1
   13    12    13    1
@<TRIPOS>SUBSTRUCTURE
       1 MOL1            1 RESIDUE      1      MOL     
@<SCITEGIC>MOL_PROPERTY
VConf Rank
SciTegic.value.IntegerValue
845

@<SCITEGIC>MOL_PROPERTY
Conf_Id
SciTegic.value.IntegerValue
44

@<SCITEGIC>MOL_PROPERTY
Delta U+W
SciTegic.value.DoubleValue
0.823

@<SCITEGIC>MOL_PROPERTY
U+W
SciTegic.value.DoubleValue
-2.308

@<SCITEGIC>MOL_PROPERTY
Grad RMS
SciTegic.value.DoubleValue
0.000000

@<SCITEGIC>MOL_PROPERTY
U
SciTegic.value.DoubleValue
0.039

@<SCITEGIC>MOL_PROPERTY
W
SciTegic.value.DoubleValue
-2.348

@<SCITEGIC>MOL_PROPERTY
W(PB)
SciTegic.value.DoubleValue
-3.918

@<SCITEGIC>MOL_PROPERTY
W(SA)
SciTegic.value.DoubleValue
1.571

@<SCITEGIC>MOL_PROPERTY
Valence
SciTegic.value.DoubleValue
7.320

@<SCITEGIC>MOL_PROPERTY
Coulomb
SciTegic.value.DoubleValue
-8.530

@<SCITEGIC>MOL_PROPERTY
VdW
SciTegic.value.DoubleValue
1.249

@<SCITEGIC>MOL_PROPERTY
VdW6
SciTegic.value.DoubleValue
-2.615

@<SCITEGIC>MOL_PROPERTY
VdW12
SciTegic.value.DoubleValue
3.864

@<SCITEGIC>MOL_PROPERTY
Bond
SciTegic.value.DoubleValue
0.056

@<SCITEGIC>MOL_PROPERTY
Angle
SciTegic.value.DoubleValue
0.694

@<SCITEGIC>MOL_PROPERTY
Pdih
SciTegic.value.DoubleValue
6.570

@<SCITEGIC>MOL_PROPERTY
Idih
SciTegic.value.DoubleValue
0.000

@<SCITEGIC>MOL_PROPERTY
Tether
SciTegic.value.DoubleValue
0.000

@<TRIPOS>MOLECULE
guest-s16_confgen4.mol2 : confsearch ligand conformer 846
          13          13           1
SMALL
USER_CHARGES
 
@<TRIPOS>ATOM
       1    C1      20.241336   18.204992   23.090628 C.3        1 MOL1        -0.1693
       2    H1      19.661172   17.287965   23.258132 H          1 MOL1         0.0829
       3    H2      21.181385   18.132062   23.650384 H          1 MOL1         0.0829
       4    C2      19.434200   19.532561   23.273380 C.3        1 MOL1        -0.1768
       5    H3      18.638051   19.514922   24.025574 H          1 MOL1         0.0829
       6    H4      20.049711   20.426773   23.431862 H          1 MOL1         0.0829
       7    C3      18.978293   19.315698   21.798942 C.3        1 MOL1         0.1211
       8    H5      18.126181   18.629982   21.695211 H          1 MOL1         0.0786
       9    C4      20.365705   18.636380   21.592041 C.3        1 MOL1        -0.1768
      10    H6      20.395400   17.824293   20.857327 H          1 MOL1         0.0829
      11    H7      21.187381   19.332587   21.382425 H          1 MOL1         0.0829
      12    O1      18.766570   20.492892   21.054675 O.3        1 MOL1        -0.5515
      13    H8      18.647343   20.226799   20.117561 H          1 MOL1         0.3773
@<TRIPOS>BOND
    1     1     2    1
    2     1     3    1
    3     1     4    1
    4     4     5    1
    5     4     6    1
    6     4     7    1
    7     7     8    1
    8     1     9    1
    9     7     9    1
   10     9    10    1
   11     9    11    1
   12     7    12    1
   13    12    13    1
@<TRIPOS>SUBSTRUCTURE
       1 MOL1            1 RESIDUE      1      MOL     
@<SCITEGIC>MOL_PROPERTY
VConf Rank
SciTegic.value.IntegerValue
846

@<SCITEGIC>MOL_PROPERTY
Conf_Id
SciTegic.value.IntegerValue
22

@<SCITEGIC>MOL_PROPERTY
Delta U+W
SciTegic.value.DoubleValue
0.000

@<SCITEGIC>MOL_PROPERTY
U+W
SciTegic.value.DoubleValue
-3.131

@<SCITEGIC>MOL_PROPERTY
Grad RMS
SciTegic.value.DoubleValue
0.000000

@<SCITEGIC>MOL_PROPERTY
U
SciTegic.value.DoubleValue
-0.154

@<SCITEGIC>MOL_PROPERTY
W
SciTegic.value.DoubleValue
-2.978

@<SCITEGIC>MOL_PROPERTY
W(PB)
SciTegic.value.DoubleValue
-4.579

@<SCITEGIC>MOL_PROPERTY
W(SA)
SciTegic.value.DoubleValue
1.601

@<SCITEGIC>MOL_PROPERTY
Valence
SciTegic.value.DoubleValue
6.333

@<SCITEGIC>MOL_PROPERTY
Coulomb
SciTegic.value.DoubleValue
-7.439

@<SCITEGIC>MOL_PROPERTY
VdW
SciTegic.value.DoubleValue
0.952

@<SCITEGIC>MOL_PROPERTY
VdW6
SciTegic.value.DoubleValue
-2.120

@<SCITEGIC>MOL_PROPERTY
VdW12
SciTegic.value.DoubleValue
3.072

@<SCITEGIC>MOL_PROPERTY
Bond
SciTegic.value.DoubleValue
0.065

@<SCITEGIC>MOL_PROPERTY
Angle
SciTegic.value.DoubleValue
0.931

@<SCITEGIC>MOL_PROPERTY
Pdih
SciTegic.value.DoubleValue
5.338

@<SCITEGIC>MOL_PROPERTY
Idih
SciTegic.value.DoubleValue
0.000

@<SCITEGIC>MOL_PROPERTY
Tether
SciTegic.value.DoubleValue
0.000

@<TRIPOS>MOLECULE
guest-s16_confgen4.mol2 : confsearch ligand conformer 847
          13          13           1
SMALL
USER_CHARGES
 
@<TRIPOS>ATOM
       1    C1      19.216727   19.413468   21.091313 C.3        1 MOL1        -0.1693
       2    H1      18.421873   18.817093   20.624269 H          1 MOL1         0.0829
       3    H2      19.478686   20.237517   20.417029 H          1 MOL1         0.0829
       4    C2      20.414473   18.580311   21.655744 C.3        1 MOL1        -0.1768
       5    H3      21.335274   19.154234   21.818630 H          1 MOL1         0.0829
       6    H4      20.662527   17.662596   21.111280 H          1 MOL1         0.0829
       7    C3      19.531070   18.399018   22.926935 C.3        1 MOL1         0.1211
       8    H5      18.796985   17.585468   22.847455 H          1 MOL1         0.0786
       9    C4      18.951306   19.804090   22.582711 C.3        1 MOL1        -0.1768
      10    H6      19.550772   20.645762   22.951241 H          1 MOL1         0.0829
      11    H7      17.904579   19.968563   22.860691 H          1 MOL1         0.0829
      12    O1      20.235589   18.319955   24.144290 O.3        1 MOL1        -0.5515
      13    H8      20.682239   17.446307   24.165423 H          1 MOL1         0.3773
@<TRIPOS>BOND
    1     1     2    1
    2     1     3    1
    3     1     4    1
    4     4     5    1
    5     4     6    1
    6     4     7    1
    7     7     8    1
    8     1     9    1
    9     7     9    1
   10     9    10    1
   11     9    11    1
   12     7    12    1
   13    12    13    1
@<TRIPOS>SUBSTRUCTURE
       1 MOL1            1 RESIDUE      1      MOL     
@<SCITEGIC>MOL_PROPERTY
VConf Rank
SciTegic.value.IntegerValue
847

@<SCITEGIC>MOL_PROPERTY
Conf_Id
SciTegic.value.IntegerValue
19

@<SCITEGIC>MOL_PROPERTY
Delta U+W
SciTegic.value.DoubleValue
-0.011

@<SCITEGIC>MOL_PROPERTY
U+W
SciTegic.value.DoubleValue
-3.142

@<SCITEGIC>MOL_PROPERTY
Grad RMS
SciTegic.value.DoubleValue
0.000000

@<SCITEGIC>MOL_PROPERTY
U
SciTegic.value.DoubleValue
-0.154

@<SCITEGIC>MOL_PROPERTY
W
SciTegic.value.DoubleValue
-2.989

@<SCITEGIC>MOL_PROPERTY
W(PB)
SciTegic.value.DoubleValue
-4.588

@<SCITEGIC>MOL_PROPERTY
W(SA)
SciTegic.value.DoubleValue
1.599

@<SCITEGIC>MOL_PROPERTY
Valence
SciTegic.value.DoubleValue
6.334

@<SCITEGIC>MOL_PROPERTY
Coulomb
SciTegic.value.DoubleValue
-7.439

@<SCITEGIC>MOL_PROPERTY
VdW
SciTegic.value.DoubleValue
0.951

@<SCITEGIC>MOL_PROPERTY
VdW6
SciTegic.value.DoubleValue
-2.120

@<SCITEGIC>MOL_PROPERTY
VdW12
SciTegic.value.DoubleValue
3.072

@<SCITEGIC>MOL_PROPERTY
Bond
SciTegic.value.DoubleValue
0.065

@<SCITEGIC>MOL_PROPERTY
Angle
SciTegic.value.DoubleValue
0.930

@<SCITEGIC>MOL_PROPERTY
Pdih
SciTegic.value.DoubleValue
5.339

@<SCITEGIC>MOL_PROPERTY
Idih
SciTegic.value.DoubleValue
0.000

@<SCITEGIC>MOL_PROPERTY
Tether
SciTegic.value.DoubleValue
0.000

@<TRIPOS>MOLECULE
guest-s16_confgen4.mol2 : confsearch ligand conformer 848
          13          13           1
SMALL
USER_CHARGES
 
@<TRIPOS>ATOM
       1    C1      20.421109   18.349706   21.648024 C.3        1 MOL1        -0.1693
       2    H1      20.631105   17.336583   21.285448 H          1 MOL1         0.0829
       3    H2      21.184487   19.030534   21.249359 H          1 MOL1         0.0829
       4    C2      20.163496   18.491288   23.185086 C.3        1 MOL1        -0.1768
       5    H3      19.700296   17.613444   23.651565 H          1 MOL1         0.0829
       6    H4      21.023554   18.797269   23.790949 H          1 MOL1         0.0829
       7    C3      19.156717   19.625023   22.815669 C.3        1 MOL1         0.1211
       8    H5      18.269398   19.676154   23.459768 H          1 MOL1         0.0786
       9    C4      18.948785   18.851165   21.476265 C.3        1 MOL1        -0.1768
      10    H6      18.751162   19.466967   20.591909 H          1 MOL1         0.0829
      11    H7      18.190909   18.060014   21.527998 H          1 MOL1         0.0829
      12    O1      19.730952   20.909579   22.680337 O.3        1 MOL1        -0.5515
      13    H8      19.049717   21.491971   22.281723 H          1 MOL1         0.3773
@<TRIPOS>BOND
    1     1     2    1
    2     1     3    1
    3     1     4    1
    4     4     5    1
    5     4     6    1
    6     4     7    1
    7     7     8    1
    8     1     9    1
    9     7     9    1
   10     9    10    1
   11     9    11    1
   12     7    12    1
   13    12    13    1
@<TRIPOS>SUBSTRUCTURE
       1 MOL1            1 RESIDUE      1      MOL     
@<SCITEGIC>MOL_PROPERTY
VConf Rank
SciTegic.value.IntegerValue
848

@<SCITEGIC>MOL_PROPERTY
Conf_Id
SciTegic.value.IntegerValue
20

@<SCITEGIC>MOL_PROPERTY
Delta U+W
SciTegic.value.DoubleValue
1.030

@<SCITEGIC>MOL_PROPERTY
U+W
SciTegic.value.DoubleValue
-2.101

@<SCITEGIC>MOL_PROPERTY
Grad RMS
SciTegic.value.DoubleValue
0.000000

@<SCITEGIC>MOL_PROPERTY
U
SciTegic.value.DoubleValue
0.841

@<SCITEGIC>MOL_PROPERTY
W
SciTegic.value.DoubleValue
-2.942

@<SCITEGIC>MOL_PROPERTY
W(PB)
SciTegic.value.DoubleValue
-4.530

@<SCITEGIC>MOL_PROPERTY
W(SA)
SciTegic.value.DoubleValue
1.587

@<SCITEGIC>MOL_PROPERTY
Valence
SciTegic.value.DoubleValue
6.736

@<SCITEGIC>MOL_PROPERTY
Coulomb
SciTegic.value.DoubleValue
-7.246

@<SCITEGIC>MOL_PROPERTY
VdW
SciTegic.value.DoubleValue
1.352

@<SCITEGIC>MOL_PROPERTY
VdW6
SciTegic.value.DoubleValue
-2.500

@<SCITEGIC>MOL_PROPERTY
VdW12
SciTegic.value.DoubleValue
3.851

@<SCITEGIC>MOL_PROPERTY
Bond
SciTegic.value.DoubleValue
0.063

@<SCITEGIC>MOL_PROPERTY
Angle
SciTegic.value.DoubleValue
0.687

@<SCITEGIC>MOL_PROPERTY
Pdih
SciTegic.value.DoubleValue
5.986

@<SCITEGIC>MOL_PROPERTY
Idih
SciTegic.value.DoubleValue
0.000

@<SCITEGIC>MOL_PROPERTY
Tether
SciTegic.value.DoubleValue
0.000

@<TRIPOS>MOLECULE
guest-s16_confgen4.mol2 : confsearch ligand conformer 849
          13          13           1
SMALL
USER_CHARGES
 
@<TRIPOS>ATOM
       1    C1      19.715623   18.058047   21.295450 C.3        1 MOL1        -0.1693
       2    H1      20.013281   17.035632   21.563287 H          1 MOL1         0.0829
       3    H2      19.442385   18.076186   20.233643 H          1 MOL1         0.0829
       4    C2      20.705602   19.172786   21.769431 C.3        1 MOL1        -0.1768
       5    H3      21.765078   18.895533   21.799984 H          1 MOL1         0.0829
       6    H4      20.606918   20.127966   21.239073 H          1 MOL1         0.0829
       7    C3      19.946829   19.097176   23.128734 C.3        1 MOL1         0.1211
       8    H5      20.295189   18.290112   23.787510 H          1 MOL1         0.0786
       9    C4      18.695596   18.721092   22.278951 C.3        1 MOL1        -0.1768
      10    H6      18.147651   19.575313   21.862475 H          1 MOL1         0.0829
      11    H7      17.979931   18.044927   22.759487 H          1 MOL1         0.0829
      12    O1      19.853904   20.310031   23.837369 O.3        1 MOL1        -0.5515
      13    H8      19.540617   20.988037   23.202641 H          1 MOL1         0.3773
@<TRIPOS>BOND
    1     1     2    1
    2     1     3    1
    3     1     4    1
    4     4     5    1
    5     4     6    1
    6     4     7    1
    7     7     8    1
    8     1     9    1
    9     7     9    1
   10     9    10    1
   11     9    11    1
   12     7    12    1
   13    12    13    1
@<TRIPOS>SUBSTRUCTURE
       1 MOL1            1 RESIDUE      1      MOL     
@<SCITEGIC>MOL_PROPERTY
VConf Rank
SciTegic.value.IntegerValue
849

@<SCITEGIC>MOL_PROPERTY
Conf_Id
SciTegic.value.IntegerValue
24

@<SCITEGIC>MOL_PROPERTY
Delta U+W
SciTegic.value.DoubleValue
0.356

@<SCITEGIC>MOL_PROPERTY
U+W
SciTegic.value.DoubleValue
-2.775

@<SCITEGIC>MOL_PROPERTY
Grad RMS
SciTegic.value.DoubleValue
0.000000

@<SCITEGIC>MOL_PROPERTY
U
SciTegic.value.DoubleValue
-0.184

@<SCITEGIC>MOL_PROPERTY
W
SciTegic.value.DoubleValue
-2.591

@<SCITEGIC>MOL_PROPERTY
W(PB)
SciTegic.value.DoubleValue
-4.184

@<SCITEGIC>MOL_PROPERTY
W(SA)
SciTegic.value.DoubleValue
1.593

@<SCITEGIC>MOL_PROPERTY
Valence
SciTegic.value.DoubleValue
6.840

@<SCITEGIC>MOL_PROPERTY
Coulomb
SciTegic.value.DoubleValue
-7.916

@<SCITEGIC>MOL_PROPERTY
VdW
SciTegic.value.DoubleValue
0.893

@<SCITEGIC>MOL_PROPERTY
VdW6
SciTegic.value.DoubleValue
-2.167

@<SCITEGIC>MOL_PROPERTY
VdW12
SciTegic.value.DoubleValue
3.060

@<SCITEGIC>MOL_PROPERTY
Bond
SciTegic.value.DoubleValue
0.059

@<SCITEGIC>MOL_PROPERTY
Angle
SciTegic.value.DoubleValue
0.918

@<SCITEGIC>MOL_PROPERTY
Pdih
SciTegic.value.DoubleValue
5.862

@<SCITEGIC>MOL_PROPERTY
Idih
SciTegic.value.DoubleValue
0.000

@<SCITEGIC>MOL_PROPERTY
Tether
SciTegic.value.DoubleValue
0.000

@<TRIPOS>MOLECULE
guest-s16_confgen4.mol2 : confsearch ligand conformer 850
          13          13           1
SMALL
USER_CHARGES
 
@<TRIPOS>ATOM
       1    C1      18.685347   18.619944   21.852525 C.3        1 MOL1        -0.1693
       2    H1      17.802266   18.011805   22.082107 H          1 MOL1         0.0829
       3    H2      18.539277   19.085892   20.869747 H          1 MOL1         0.0829
       4    C2      20.070039   17.916873   22.048632 C.3        1 MOL1        -0.1768
       5    H3      20.084241   17.155809   22.838312 H          1 MOL1         0.0829
       6    H4      20.528528   17.492874   21.148232 H          1 MOL1         0.0829
       7    C3      20.610416   19.309870   22.497570 C.3        1 MOL1         0.1211
       8    H5      21.363096   19.276680   23.295604 H          1 MOL1         0.0786
       9    C4      19.155285   19.597282   22.981288 C.3        1 MOL1        -0.1768
      10    H6      18.945202   19.248229   23.999640 H          1 MOL1         0.0829
      11    H7      18.817558   20.635934   22.892686 H          1 MOL1         0.0829
      12    O1      21.058585   20.137499   21.445951 O.3        1 MOL1        -0.5515
      13    H8      20.352016   20.129282   20.767714 H          1 MOL1         0.3773
@<TRIPOS>BOND
    1     1     2    1
    2     1     3    1
    3     1     4    1
    4     4     5    1
    5     4     6    1
    6     4     7    1
    7     7     8    1
    8     1     9    1
    9     7     9    1
   10     9    10    1
   11     9    11    1
   12     7    12    1
   13    12    13    1
@<TRIPOS>SUBSTRUCTURE
       1 MOL1            1 RESIDUE      1      MOL     
@<SCITEGIC>MOL_PROPERTY
VConf Rank
SciTegic.value.IntegerValue
850

@<SCITEGIC>MOL_PROPERTY
Conf_Id
SciTegic.value.IntegerValue
44

@<SCITEGIC>MOL_PROPERTY
Delta U+W
SciTegic.value.DoubleValue
0.823

@<SCITEGIC>MOL_PROPERTY
U+W
SciTegic.value.DoubleValue
-2.308

@<SCITEGIC>MOL_PROPERTY
Grad RMS
SciTegic.value.DoubleValue
0.000000

@<SCITEGIC>MOL_PROPERTY
U
SciTegic.value.DoubleValue
0.039

@<SCITEGIC>MOL_PROPERTY
W
SciTegic.value.DoubleValue
-2.348

@<SCITEGIC>MOL_PROPERTY
W(PB)
SciTegic.value.DoubleValue
-3.918

@<SCITEGIC>MOL_PROPERTY
W(SA)
SciTegic.value.DoubleValue
1.571

@<SCITEGIC>MOL_PROPERTY
Valence
SciTegic.value.DoubleValue
7.320

@<SCITEGIC>MOL_PROPERTY
Coulomb
SciTegic.value.DoubleValue
-8.530

@<SCITEGIC>MOL_PROPERTY
VdW
SciTegic.value.DoubleValue
1.249

@<SCITEGIC>MOL_PROPERTY
VdW6
SciTegic.value.DoubleValue
-2.615

@<SCITEGIC>MOL_PROPERTY
VdW12
SciTegic.value.DoubleValue
3.864

@<SCITEGIC>MOL_PROPERTY
Bond
SciTegic.value.DoubleValue
0.056

@<SCITEGIC>MOL_PROPERTY
Angle
SciTegic.value.DoubleValue
0.694

@<SCITEGIC>MOL_PROPERTY
Pdih
SciTegic.value.DoubleValue
6.570

@<SCITEGIC>MOL_PROPERTY
Idih
SciTegic.value.DoubleValue
0.000

@<SCITEGIC>MOL_PROPERTY
Tether
SciTegic.value.DoubleValue
0.000

@<TRIPOS>MOLECULE
guest-s16_confgen4.mol2 : confsearch ligand conformer 851
          13          13           1
SMALL
USER_CHARGES
 
@<TRIPOS>ATOM
       1    C1      18.845914   19.774119   22.977876 C.3        1 MOL1        -0.1693
       2    H1      19.347432   20.312356   23.792963 H          1 MOL1         0.0829
       3    H2      17.784548   20.049507   22.977051 H          1 MOL1         0.0829
       4    C2      19.158279   18.242503   22.915528 C.3        1 MOL1        -0.1768
       5    H3      19.335843   17.745619   23.875495 H          1 MOL1         0.0829
       6    H4      18.437529   17.649347   22.339099 H          1 MOL1         0.0829
       7    C3      20.433334   18.658500   22.121783 C.3        1 MOL1         0.1211
       8    H5      21.273774   18.961565   22.761215 H          1 MOL1         0.0786
       9    C4      19.576448   19.849769   21.596599 C.3        1 MOL1        -0.1768
      10    H6      20.122510   20.776758   21.390009 H          1 MOL1         0.0829
      11    H7      18.945786   19.610944   20.731138 H          1 MOL1         0.0829
      12    O1      20.857172   17.741785   21.139672 O.3        1 MOL1        -0.5515
      13    H8      21.554159   18.185134   20.609714 H          1 MOL1         0.3773
@<TRIPOS>BOND
    1     1     2    1
    2     1     3    1
    3     1     4    1
    4     4     5    1
    5     4     6    1
    6     4     7    1
    7     7     8    1
    8     1     9    1
    9     7     9    1
   10     9    10    1
   11     9    11    1
   12     7    12    1
   13    12    13    1
@<TRIPOS>SUBSTRUCTURE
       1 MOL1            1 RESIDUE      1      MOL     
@<SCITEGIC>MOL_PROPERTY
VConf Rank
SciTegic.value.IntegerValue
851

@<SCITEGIC>MOL_PROPERTY
Conf_Id
SciTegic.value.IntegerValue
22

@<SCITEGIC>MOL_PROPERTY
Delta U+W
SciTegic.value.DoubleValue
0.000

@<SCITEGIC>MOL_PROPERTY
U+W
SciTegic.value.DoubleValue
-3.131

@<SCITEGIC>MOL_PROPERTY
Grad RMS
SciTegic.value.DoubleValue
0.000000

@<SCITEGIC>MOL_PROPERTY
U
SciTegic.value.DoubleValue
-0.154

@<SCITEGIC>MOL_PROPERTY
W
SciTegic.value.DoubleValue
-2.978

@<SCITEGIC>MOL_PROPERTY
W(PB)
SciTegic.value.DoubleValue
-4.579

@<SCITEGIC>MOL_PROPERTY
W(SA)
SciTegic.value.DoubleValue
1.601

@<SCITEGIC>MOL_PROPERTY
Valence
SciTegic.value.DoubleValue
6.333

@<SCITEGIC>MOL_PROPERTY
Coulomb
SciTegic.value.DoubleValue
-7.439

@<SCITEGIC>MOL_PROPERTY
VdW
SciTegic.value.DoubleValue
0.952

@<SCITEGIC>MOL_PROPERTY
VdW6
SciTegic.value.DoubleValue
-2.120

@<SCITEGIC>MOL_PROPERTY
VdW12
SciTegic.value.DoubleValue
3.072

@<SCITEGIC>MOL_PROPERTY
Bond
SciTegic.value.DoubleValue
0.065

@<SCITEGIC>MOL_PROPERTY
Angle
SciTegic.value.DoubleValue
0.931

@<SCITEGIC>MOL_PROPERTY
Pdih
SciTegic.value.DoubleValue
5.338

@<SCITEGIC>MOL_PROPERTY
Idih
SciTegic.value.DoubleValue
0.000

@<SCITEGIC>MOL_PROPERTY
Tether
SciTegic.value.DoubleValue
0.000

@<TRIPOS>MOLECULE
guest-s16_confgen4.mol2 : confsearch ligand conformer 852
          13          13           1
SMALL
USER_CHARGES
 
@<TRIPOS>ATOM
       1    C1      18.315169   18.996554   22.341406 C.3        1 MOL1        -0.1693
       2    H1      17.966054   19.846938   22.941865 H          1 MOL1         0.0829
       3    H2      17.444745   18.407490   22.028831 H          1 MOL1         0.0829
       4    C2      19.498821   18.191599   22.972551 C.3        1 MOL1        -0.1768
       5    H3      19.634085   17.181503   22.566098 H          1 MOL1         0.0829
       6    H4      19.515486   18.136714   24.066573 H          1 MOL1         0.0829
       7    C3      20.417417   19.275655   22.332085 C.3        1 MOL1         0.1211
       8    H5      20.511954   20.191119   22.932126 H          1 MOL1         0.0786
       9    C4      19.335162   19.366179   21.214331 C.3        1 MOL1        -0.1768
      10    H6      19.436695   18.614652   20.421562 H          1 MOL1         0.0829
      11    H7      19.209173   20.351250   20.752029 H          1 MOL1         0.0829
      12    O1      21.682342   18.821170   21.910233 O.3        1 MOL1        -0.5515
      13    H8      22.214995   18.653557   22.717320 H          1 MOL1         0.3773
@<TRIPOS>BOND
    1     1     2    1
    2     1     3    1
    3     1     4    1
    4     4     5    1
    5     4     6    1
    6     4     7    1
    7     7     8    1
    8     1     9    1
    9     7     9    1
   10     9    10    1
   11     9    11    1
   12     7    12    1
   13    12    13    1
@<TRIPOS>SUBSTRUCTURE
       1 MOL1            1 RESIDUE      1      MOL     
@<SCITEGIC>MOL_PROPERTY
VConf Rank
SciTegic.value.IntegerValue
852

@<SCITEGIC>MOL_PROPERTY
Conf_Id
SciTegic.value.IntegerValue
19

@<SCITEGIC>MOL_PROPERTY
Delta U+W
SciTegic.value.DoubleValue
-0.011

@<SCITEGIC>MOL_PROPERTY
U+W
SciTegic.value.DoubleValue
-3.142

@<SCITEGIC>MOL_PROPERTY
Grad RMS
SciTegic.value.DoubleValue
0.000000

@<SCITEGIC>MOL_PROPERTY
U
SciTegic.value.DoubleValue
-0.154

@<SCITEGIC>MOL_PROPERTY
W
SciTegic.value.DoubleValue
-2.989

@<SCITEGIC>MOL_PROPERTY
W(PB)
SciTegic.value.DoubleValue
-4.588

@<SCITEGIC>MOL_PROPERTY
W(SA)
SciTegic.value.DoubleValue
1.599

@<SCITEGIC>MOL_PROPERTY
Valence
SciTegic.value.DoubleValue
6.334

@<SCITEGIC>MOL_PROPERTY
Coulomb
SciTegic.value.DoubleValue
-7.439

@<SCITEGIC>MOL_PROPERTY
VdW
SciTegic.value.DoubleValue
0.951

@<SCITEGIC>MOL_PROPERTY
VdW6
SciTegic.value.DoubleValue
-2.120

@<SCITEGIC>MOL_PROPERTY
VdW12
SciTegic.value.DoubleValue
3.072

@<SCITEGIC>MOL_PROPERTY
Bond
SciTegic.value.DoubleValue
0.065

@<SCITEGIC>MOL_PROPERTY
Angle
SciTegic.value.DoubleValue
0.930

@<SCITEGIC>MOL_PROPERTY
Pdih
SciTegic.value.DoubleValue
5.339

@<SCITEGIC>MOL_PROPERTY
Idih
SciTegic.value.DoubleValue
0.000

@<SCITEGIC>MOL_PROPERTY
Tether
SciTegic.value.DoubleValue
0.000

@<TRIPOS>MOLECULE
guest-s16_confgen4.mol2 : confsearch ligand conformer 853
          13          13           1
SMALL
USER_CHARGES
 
@<TRIPOS>ATOM
       1    C1      18.995856   18.184666   21.682898 C.3        1 MOL1        -0.1693
       2    H1      18.263064   17.375693   21.785636 H          1 MOL1         0.0829
       3    H2      19.220973   18.321197   20.617117 H          1 MOL1         0.0829
       4    C2      20.255932   18.093620   22.606418 C.3        1 MOL1        -0.1768
       5    H3      20.077151   17.608324   23.573523 H          1 MOL1         0.0829
       6    H4      21.152810   17.655336   22.154853 H          1 MOL1         0.0829
       7    C3      20.214735   19.652869   22.656158 C.3        1 MOL1         0.1211
       8    H5      20.513474   20.087559   23.618765 H          1 MOL1         0.0786
       9    C4      18.673880   19.507510   22.454335 C.3        1 MOL1        -0.1768
      10    H6      18.189600   20.298207   21.870706 H          1 MOL1         0.0829
      11    H7      18.110843   19.364796   23.384710 H          1 MOL1         0.0829
      12    O1      20.896942   20.299859   21.600629 O.3        1 MOL1        -0.5515
      13    H8      20.656427   21.250061   21.638353 H          1 MOL1         0.3773
@<TRIPOS>BOND
    1     1     2    1
    2     1     3    1
    3     1     4    1
    4     4     5    1
    5     4     6    1
    6     4     7    1
    7     7     8    1
    8     1     9    1
    9     7     9    1
   10     9    10    1
   11     9    11    1
   12     7    12    1
   13    12    13    1
@<TRIPOS>SUBSTRUCTURE
       1 MOL1            1 RESIDUE      1      MOL     
@<SCITEGIC>MOL_PROPERTY
VConf Rank
SciTegic.value.IntegerValue
853

@<SCITEGIC>MOL_PROPERTY
Conf_Id
SciTegic.value.IntegerValue
20

@<SCITEGIC>MOL_PROPERTY
Delta U+W
SciTegic.value.DoubleValue
1.030

@<SCITEGIC>MOL_PROPERTY
U+W
SciTegic.value.DoubleValue
-2.101

@<SCITEGIC>MOL_PROPERTY
Grad RMS
SciTegic.value.DoubleValue
0.000000

@<SCITEGIC>MOL_PROPERTY
U
SciTegic.value.DoubleValue
0.841

@<SCITEGIC>MOL_PROPERTY
W
SciTegic.value.DoubleValue
-2.942

@<SCITEGIC>MOL_PROPERTY
W(PB)
SciTegic.value.DoubleValue
-4.530

@<SCITEGIC>MOL_PROPERTY
W(SA)
SciTegic.value.DoubleValue
1.587

@<SCITEGIC>MOL_PROPERTY
Valence
SciTegic.value.DoubleValue
6.736

@<SCITEGIC>MOL_PROPERTY
Coulomb
SciTegic.value.DoubleValue
-7.246

@<SCITEGIC>MOL_PROPERTY
VdW
SciTegic.value.DoubleValue
1.352

@<SCITEGIC>MOL_PROPERTY
VdW6
SciTegic.value.DoubleValue
-2.500

@<SCITEGIC>MOL_PROPERTY
VdW12
SciTegic.value.DoubleValue
3.851

@<SCITEGIC>MOL_PROPERTY
Bond
SciTegic.value.DoubleValue
0.063

@<SCITEGIC>MOL_PROPERTY
Angle
SciTegic.value.DoubleValue
0.687

@<SCITEGIC>MOL_PROPERTY
Pdih
SciTegic.value.DoubleValue
5.986

@<SCITEGIC>MOL_PROPERTY
Idih
SciTegic.value.DoubleValue
0.000

@<SCITEGIC>MOL_PROPERTY
Tether
SciTegic.value.DoubleValue
0.000

@<TRIPOS>MOLECULE
guest-s16_confgen4.mol2 : confsearch ligand conformer 854
          13          13           1
SMALL
USER_CHARGES
 
@<TRIPOS>ATOM
       1    C1      19.372375   17.783363   22.578005 C.3        1 MOL1        -0.1693
       2    H1      20.149029   17.046726   22.822636 H          1 MOL1         0.0829
       3    H2      18.390363   17.314454   22.712905 H          1 MOL1         0.0829
       4    C2      19.592214   18.541427   21.227314 C.3        1 MOL1        -0.1768
       5    H3      20.086618   17.974206   20.430999 H          1 MOL1         0.0829
       6    H4      18.691618   19.013746   20.815940 H          1 MOL1         0.0829
       7    C3      20.511604   19.492070   22.052029 C.3        1 MOL1         0.1211
       8    H5      21.534435   19.114569   22.186210 H          1 MOL1         0.0786
       9    C4      19.563683   19.183073   23.249994 C.3        1 MOL1        -0.1768
      10    H6      18.656708   19.798807   23.290714 H          1 MOL1         0.0829
      11    H7      20.032888   19.182525   24.240013 H          1 MOL1         0.0829
      12    O1      20.530405   20.833898   21.626634 O.3        1 MOL1        -0.5515
      13    H8      19.596662   21.113973   21.524642 H          1 MOL1         0.3773
@<TRIPOS>BOND
    1     1     2    1
    2     1     3    1
    3     1     4    1
    4     4     5    1
    5     4     6    1
    6     4     7    1
    7     7     8    1
    8     1     9    1
    9     7     9    1
   10     9    10    1
   11     9    11    1
   12     7    12    1
   13    12    13    1
@<TRIPOS>SUBSTRUCTURE
       1 MOL1            1 RESIDUE      1      MOL     
@<SCITEGIC>MOL_PROPERTY
VConf Rank
SciTegic.value.IntegerValue
854

@<SCITEGIC>MOL_PROPERTY
Conf_Id
SciTegic.value.IntegerValue
24

@<SCITEGIC>MOL_PROPERTY
Delta U+W
SciTegic.value.DoubleValue
0.356

@<SCITEGIC>MOL_PROPERTY
U+W
SciTegic.value.DoubleValue
-2.775

@<SCITEGIC>MOL_PROPERTY
Grad RMS
SciTegic.value.DoubleValue
0.000000

@<SCITEGIC>MOL_PROPERTY
U
SciTegic.value.DoubleValue
-0.184

@<SCITEGIC>MOL_PROPERTY
W
SciTegic.value.DoubleValue
-2.591

@<SCITEGIC>MOL_PROPERTY
W(PB)
SciTegic.value.DoubleValue
-4.184

@<SCITEGIC>MOL_PROPERTY
W(SA)
SciTegic.value.DoubleValue
1.593

@<SCITEGIC>MOL_PROPERTY
Valence
SciTegic.value.DoubleValue
6.840

@<SCITEGIC>MOL_PROPERTY
Coulomb
SciTegic.value.DoubleValue
-7.916

@<SCITEGIC>MOL_PROPERTY
VdW
SciTegic.value.DoubleValue
0.893

@<SCITEGIC>MOL_PROPERTY
VdW6
SciTegic.value.DoubleValue
-2.167

@<SCITEGIC>MOL_PROPERTY
VdW12
SciTegic.value.DoubleValue
3.060

@<SCITEGIC>MOL_PROPERTY
Bond
SciTegic.value.DoubleValue
0.059

@<SCITEGIC>MOL_PROPERTY
Angle
SciTegic.value.DoubleValue
0.918

@<SCITEGIC>MOL_PROPERTY
Pdih
SciTegic.value.DoubleValue
5.862

@<SCITEGIC>MOL_PROPERTY
Idih
SciTegic.value.DoubleValue
0.000

@<SCITEGIC>MOL_PROPERTY
Tether
SciTegic.value.DoubleValue
0.000

@<TRIPOS>MOLECULE
guest-s16_confgen4.mol2 : confsearch ligand conformer 855
          13          13           1
SMALL
USER_CHARGES
 
@<TRIPOS>ATOM
       1    C1      18.573409   18.902441   22.295206 C.3        1 MOL1        -0.1693
       2    H1      17.611517   19.109949   21.811391 H          1 MOL1         0.0829
       3    H2      18.378026   18.433585   23.267983 H          1 MOL1         0.0829
       4    C2      19.592312   20.090211   22.329525 C.3        1 MOL1        -0.1768
       5    H3      19.511147   20.781752   21.482059 H          1 MOL1         0.0829
       6    H4      19.620799   20.675845   23.255230 H          1 MOL1         0.0829
       7    C3      20.710995   19.014767   22.168406 C.3        1 MOL1         0.1211
       8    H5      21.566167   19.327749   21.555862 H          1 MOL1         0.0786
       9    C4      19.638878   18.169639   21.413213 C.3        1 MOL1        -0.1768
      10    H6      19.569130   18.390284   20.341081 H          1 MOL1         0.0829
      11    H7      19.707896   17.083579   21.541345 H          1 MOL1         0.0829
      12    O1      21.165925   18.448504   23.378411 O.3        1 MOL1        -0.5515
      13    H8      20.365656   18.189667   23.880294 H          1 MOL1         0.3773
@<TRIPOS>BOND
    1     1     2    1
    2     1     3    1
    3     1     4    1
    4     4     5    1
    5     4     6    1
    6     4     7    1
    7     7     8    1
    8     1     9    1
    9     7     9    1
   10     9    10    1
   11     9    11    1
   12     7    12    1
   13    12    13    1
@<TRIPOS>SUBSTRUCTURE
       1 MOL1            1 RESIDUE      1      MOL     
@<SCITEGIC>MOL_PROPERTY
VConf Rank
SciTegic.value.IntegerValue
855

@<SCITEGIC>MOL_PROPERTY
Conf_Id
SciTegic.value.IntegerValue
44

@<SCITEGIC>MOL_PROPERTY
Delta U+W
SciTegic.value.DoubleValue
0.823

@<SCITEGIC>MOL_PROPERTY
U+W
SciTegic.value.DoubleValue
-2.308

@<SCITEGIC>MOL_PROPERTY
Grad RMS
SciTegic.value.DoubleValue
0.000000

@<SCITEGIC>MOL_PROPERTY
U
SciTegic.value.DoubleValue
0.039

@<SCITEGIC>MOL_PROPERTY
W
SciTegic.value.DoubleValue
-2.348

@<SCITEGIC>MOL_PROPERTY
W(PB)
SciTegic.value.DoubleValue
-3.918

@<SCITEGIC>MOL_PROPERTY
W(SA)
SciTegic.value.DoubleValue
1.571

@<SCITEGIC>MOL_PROPERTY
Valence
SciTegic.value.DoubleValue
7.320

@<SCITEGIC>MOL_PROPERTY
Coulomb
SciTegic.value.DoubleValue
-8.530

@<SCITEGIC>MOL_PROPERTY
VdW
SciTegic.value.DoubleValue
1.249

@<SCITEGIC>MOL_PROPERTY
VdW6
SciTegic.value.DoubleValue
-2.615

@<SCITEGIC>MOL_PROPERTY
VdW12
SciTegic.value.DoubleValue
3.864

@<SCITEGIC>MOL_PROPERTY
Bond
SciTegic.value.DoubleValue
0.056

@<SCITEGIC>MOL_PROPERTY
Angle
SciTegic.value.DoubleValue
0.694

@<SCITEGIC>MOL_PROPERTY
Pdih
SciTegic.value.DoubleValue
6.570

@<SCITEGIC>MOL_PROPERTY
Idih
SciTegic.value.DoubleValue
0.000

@<SCITEGIC>MOL_PROPERTY
Tether
SciTegic.value.DoubleValue
0.000

@<TRIPOS>MOLECULE
guest-s16_confgen4.mol2 : confsearch ligand conformer 856
          13          13           1
SMALL
USER_CHARGES
 
@<TRIPOS>ATOM
       1    C1      20.311294   19.919092   22.995770 C.3        1 MOL1        -0.1693
       2    H1      20.668211   19.502941   23.947092 H          1 MOL1         0.0829
       3    H2      20.648569   20.959690   22.920006 H          1 MOL1         0.0829
       4    C2      18.796959   19.664289   22.697154 C.3        1 MOL1        -0.1768
       5    H3      18.131624   19.629879   23.566698 H          1 MOL1         0.0829
       6    H4      18.358561   20.330123   21.943458 H          1 MOL1         0.0829
       7    C3      19.263156   18.283246   22.145585 C.3        1 MOL1         0.1211
       8    H5      19.398026   17.518609   22.922890 H          1 MOL1         0.0786
       9    C4      20.578488   19.017467   21.745567 C.3        1 MOL1        -0.1768
      10    H6      21.491203   18.412214   21.773708 H          1 MOL1         0.0829
      11    H7      20.532671   19.543005   20.783535 H          1 MOL1         0.0829
      12    O1      18.505130   17.776623   21.071679 O.3        1 MOL1        -0.5515
      13    H8      18.988836   17.000729   20.715000 H          1 MOL1         0.3773
@<TRIPOS>BOND
    1     1     2    1
    2     1     3    1
    3     1     4    1
    4     4     5    1
    5     4     6    1
    6     4     7    1
    7     7     8    1
    8     1     9    1
    9     7     9    1
   10     9    10    1
   11     9    11    1
   12     7    12    1
   13    12    13    1
@<TRIPOS>SUBSTRUCTURE
       1 MOL1            1 RESIDUE      1      MOL     
@<SCITEGIC>MOL_PROPERTY
VConf Rank
SciTegic.value.IntegerValue
856

@<SCITEGIC>MOL_PROPERTY
Conf_Id
SciTegic.value.IntegerValue
22

@<SCITEGIC>MOL_PROPERTY
Delta U+W
SciTegic.value.DoubleValue
0.000

@<SCITEGIC>MOL_PROPERTY
U+W
SciTegic.value.DoubleValue
-3.131

@<SCITEGIC>MOL_PROPERTY
Grad RMS
SciTegic.value.DoubleValue
0.000000

@<SCITEGIC>MOL_PROPERTY
U
SciTegic.value.DoubleValue
-0.154

@<SCITEGIC>MOL_PROPERTY
W
SciTegic.value.DoubleValue
-2.978

@<SCITEGIC>MOL_PROPERTY
W(PB)
SciTegic.value.DoubleValue
-4.579

@<SCITEGIC>MOL_PROPERTY
W(SA)
SciTegic.value.DoubleValue
1.601

@<SCITEGIC>MOL_PROPERTY
Valence
SciTegic.value.DoubleValue
6.333

@<SCITEGIC>MOL_PROPERTY
Coulomb
SciTegic.value.DoubleValue
-7.439

@<SCITEGIC>MOL_PROPERTY
VdW
SciTegic.value.DoubleValue
0.952

@<SCITEGIC>MOL_PROPERTY
VdW6
SciTegic.value.DoubleValue
-2.120

@<SCITEGIC>MOL_PROPERTY
VdW12
SciTegic.value.DoubleValue
3.072

@<SCITEGIC>MOL_PROPERTY
Bond
SciTegic.value.DoubleValue
0.065

@<SCITEGIC>MOL_PROPERTY
Angle
SciTegic.value.DoubleValue
0.931

@<SCITEGIC>MOL_PROPERTY
Pdih
SciTegic.value.DoubleValue
5.338

@<SCITEGIC>MOL_PROPERTY
Idih
SciTegic.value.DoubleValue
0.000

@<SCITEGIC>MOL_PROPERTY
Tether
SciTegic.value.DoubleValue
0.000

@<TRIPOS>MOLECULE
guest-s16_confgen4.mol2 : confsearch ligand conformer 857
          13          13           1
SMALL
USER_CHARGES
 
@<TRIPOS>ATOM
       1    C1      18.313624   18.923219   22.346238 C.3        1 MOL1        -0.1693
       2    H1      17.929192   19.656016   23.067907 H          1 MOL1         0.0829
       3    H2      17.469068   18.350865   21.944398 H          1 MOL1         0.0829
       4    C2      19.533557   18.084466   22.851793 C.3        1 MOL1        -0.1768
       5    H3      19.711986   17.155008   22.296756 H          1 MOL1         0.0829
       6    H4      19.555988   17.864388   23.924749 H          1 MOL1         0.0829
       7    C3      20.401479   19.292823   22.387272 C.3        1 MOL1         0.1211
       8    H5      20.457395   20.109486   23.120072 H          1 MOL1         0.0786
       9    C4      19.312855   19.504759   21.292363 C.3        1 MOL1        -0.1768
      10    H6      19.444996   18.887950   20.394772 H          1 MOL1         0.0829
      11    H7      19.142126   20.542229   20.985006 H          1 MOL1         0.0829
      12    O1      21.683914   18.964060   21.905789 O.3        1 MOL1        -0.5515
      13    H8      22.225918   18.699112   22.679893 H          1 MOL1         0.3773
@<TRIPOS>BOND
    1     1     2    1
    2     1     3    1
    3     1     4    1
    4     4     5    1
    5     4     6    1
    6     4     7    1
    7     7     8    1
    8     1     9    1
    9     7     9    1
   10     9    10    1
   11     9    11    1
   12     7    12    1
   13    12    13    1
@<TRIPOS>SUBSTRUCTURE
       1 MOL1            1 RESIDUE      1      MOL     
@<SCITEGIC>MOL_PROPERTY
VConf Rank
SciTegic.value.IntegerValue
857

@<SCITEGIC>MOL_PROPERTY
Conf_Id
SciTegic.value.IntegerValue
19

@<SCITEGIC>MOL_PROPERTY
Delta U+W
SciTegic.value.DoubleValue
-0.011

@<SCITEGIC>MOL_PROPERTY
U+W
SciTegic.value.DoubleValue
-3.142

@<SCITEGIC>MOL_PROPERTY
Grad RMS
SciTegic.value.DoubleValue
0.000000

@<SCITEGIC>MOL_PROPERTY
U
SciTegic.value.DoubleValue
-0.154

@<SCITEGIC>MOL_PROPERTY
W
SciTegic.value.DoubleValue
-2.989

@<SCITEGIC>MOL_PROPERTY
W(PB)
SciTegic.value.DoubleValue
-4.588

@<SCITEGIC>MOL_PROPERTY
W(SA)
SciTegic.value.DoubleValue
1.599

@<SCITEGIC>MOL_PROPERTY
Valence
SciTegic.value.DoubleValue
6.334

@<SCITEGIC>MOL_PROPERTY
Coulomb
SciTegic.value.DoubleValue
-7.439

@<SCITEGIC>MOL_PROPERTY
VdW
SciTegic.value.DoubleValue
0.951

@<SCITEGIC>MOL_PROPERTY
VdW6
SciTegic.value.DoubleValue
-2.120

@<SCITEGIC>MOL_PROPERTY
VdW12
SciTegic.value.DoubleValue
3.072

@<SCITEGIC>MOL_PROPERTY
Bond
SciTegic.value.DoubleValue
0.065

@<SCITEGIC>MOL_PROPERTY
Angle
SciTegic.value.DoubleValue
0.930

@<SCITEGIC>MOL_PROPERTY
Pdih
SciTegic.value.DoubleValue
5.339

@<SCITEGIC>MOL_PROPERTY
Idih
SciTegic.value.DoubleValue
0.000

@<SCITEGIC>MOL_PROPERTY
Tether
SciTegic.value.DoubleValue
0.000

@<TRIPOS>MOLECULE
guest-s16_confgen4.mol2 : confsearch ligand conformer 858
          13          13           1
SMALL
USER_CHARGES
 
@<TRIPOS>ATOM
       1    C1      18.780028   18.656459   21.484654 C.3        1 MOL1        -0.1693
       2    H1      18.569654   18.421092   20.434739 H          1 MOL1         0.0829
       3    H2      17.905297   18.381242   22.088234 H          1 MOL1         0.0829
       4    C2      19.341291   20.089131   21.769972 C.3        1 MOL1        -0.1768
       5    H3      19.950842   20.508554   20.960468 H          1 MOL1         0.0829
       6    H4      18.607027   20.840412   22.081142 H          1 MOL1         0.0829
       7    C3      20.168515   19.432941   22.919122 C.3        1 MOL1         0.1211
       8    H5      21.164699   19.868020   23.071225 H          1 MOL1         0.0786
       9    C4      20.146232   18.139498   22.045850 C.3        1 MOL1        -0.1768
      10    H6      20.112617   17.191195   22.593520 H          1 MOL1         0.0829
      11    H7      20.951053   18.085807   21.302645 H          1 MOL1         0.0829
      12    O1      19.491428   19.330421   24.155725 O.3        1 MOL1        -0.5515
      13    H8      20.033003   18.754923   24.736805 H          1 MOL1         0.3773
@<TRIPOS>BOND
    1     1     2    1
    2     1     3    1
    3     1     4    1
    4     4     5    1
    5     4     6    1
    6     4     7    1
    7     7     8    1
    8     1     9    1
    9     7     9    1
   10     9    10    1
   11     9    11    1
   12     7    12    1
   13    12    13    1
@<TRIPOS>SUBSTRUCTURE
       1 MOL1            1 RESIDUE      1      MOL     
@<SCITEGIC>MOL_PROPERTY
VConf Rank
SciTegic.value.IntegerValue
858

@<SCITEGIC>MOL_PROPERTY
Conf_Id
SciTegic.value.IntegerValue
20

@<SCITEGIC>MOL_PROPERTY
Delta U+W
SciTegic.value.DoubleValue
1.030

@<SCITEGIC>MOL_PROPERTY
U+W
SciTegic.value.DoubleValue
-2.101

@<SCITEGIC>MOL_PROPERTY
Grad RMS
SciTegic.value.DoubleValue
0.000000

@<SCITEGIC>MOL_PROPERTY
U
SciTegic.value.DoubleValue
0.841

@<SCITEGIC>MOL_PROPERTY
W
SciTegic.value.DoubleValue
-2.942

@<SCITEGIC>MOL_PROPERTY
W(PB)
SciTegic.value.DoubleValue
-4.530

@<SCITEGIC>MOL_PROPERTY
W(SA)
SciTegic.value.DoubleValue
1.587

@<SCITEGIC>MOL_PROPERTY
Valence
SciTegic.value.DoubleValue
6.736

@<SCITEGIC>MOL_PROPERTY
Coulomb
SciTegic.value.DoubleValue
-7.246

@<SCITEGIC>MOL_PROPERTY
VdW
SciTegic.value.DoubleValue
1.352

@<SCITEGIC>MOL_PROPERTY
VdW6
SciTegic.value.DoubleValue
-2.500

@<SCITEGIC>MOL_PROPERTY
VdW12
SciTegic.value.DoubleValue
3.851

@<SCITEGIC>MOL_PROPERTY
Bond
SciTegic.value.DoubleValue
0.063

@<SCITEGIC>MOL_PROPERTY
Angle
SciTegic.value.DoubleValue
0.687

@<SCITEGIC>MOL_PROPERTY
Pdih
SciTegic.value.DoubleValue
5.986

@<SCITEGIC>MOL_PROPERTY
Idih
SciTegic.value.DoubleValue
0.000

@<SCITEGIC>MOL_PROPERTY
Tether
SciTegic.value.DoubleValue
0.000

@<TRIPOS>MOLECULE
guest-s16_confgen4.mol2 : confsearch ligand conformer 859
          13          13           1
SMALL
USER_CHARGES
 
@<TRIPOS>ATOM
       1    C1      20.361984   18.238664   23.080294 C.3        1 MOL1        -0.1693
       2    H1      19.929371   17.265131   23.346283 H          1 MOL1         0.0829
       3    H2      21.282322   18.382475   23.658842 H          1 MOL1         0.0829
       4    C2      19.348519   19.430328   23.093775 C.3        1 MOL1        -0.1768
       5    H3      18.540021   19.367357   23.830428 H          1 MOL1         0.0829
       6    H4      19.810425   20.422978   23.162159 H          1 MOL1         0.0829
       7    C3      18.983778   18.976061   21.648174 C.3        1 MOL1         0.1211
       8    H5      18.256043   18.154030   21.611292 H          1 MOL1         0.0786
       9    C4      20.467184   18.509560   21.543120 C.3        1 MOL1        -0.1768
      10    H6      21.179127   19.296406   21.264913 H          1 MOL1         0.0829
      11    H7      20.646638   17.633412   20.910306 H          1 MOL1         0.0829
      12    O1      18.610809   20.008064   20.766311 O.3        1 MOL1        -0.5515
      13    H8      19.292382   20.708370   20.842137 H          1 MOL1         0.3773
@<TRIPOS>BOND
    1     1     2    1
    2     1     3    1
    3     1     4    1
    4     4     5    1
    5     4     6    1
    6     4     7    1
    7     7     8    1
    8     1     9    1
    9     7     9    1
   10     9    10    1
   11     9    11    1
   12     7    12    1
   13    12    13    1
@<TRIPOS>SUBSTRUCTURE
       1 MOL1            1 RESIDUE      1      MOL     
@<SCITEGIC>MOL_PROPERTY
VConf Rank
SciTegic.value.IntegerValue
859

@<SCITEGIC>MOL_PROPERTY
Conf_Id
SciTegic.value.IntegerValue
24

@<SCITEGIC>MOL_PROPERTY
Delta U+W
SciTegic.value.DoubleValue
0.356

@<SCITEGIC>MOL_PROPERTY
U+W
SciTegic.value.DoubleValue
-2.775

@<SCITEGIC>MOL_PROPERTY
Grad RMS
SciTegic.value.DoubleValue
0.000000

@<SCITEGIC>MOL_PROPERTY
U
SciTegic.value.DoubleValue
-0.184

@<SCITEGIC>MOL_PROPERTY
W
SciTegic.value.DoubleValue
-2.591

@<SCITEGIC>MOL_PROPERTY
W(PB)
SciTegic.value.DoubleValue
-4.184

@<SCITEGIC>MOL_PROPERTY
W(SA)
SciTegic.value.DoubleValue
1.593

@<SCITEGIC>MOL_PROPERTY
Valence
SciTegic.value.DoubleValue
6.840

@<SCITEGIC>MOL_PROPERTY
Coulomb
SciTegic.value.DoubleValue
-7.916

@<SCITEGIC>MOL_PROPERTY
VdW
SciTegic.value.DoubleValue
0.893

@<SCITEGIC>MOL_PROPERTY
VdW6
SciTegic.value.DoubleValue
-2.167

@<SCITEGIC>MOL_PROPERTY
VdW12
SciTegic.value.DoubleValue
3.060

@<SCITEGIC>MOL_PROPERTY
Bond
SciTegic.value.DoubleValue
0.059

@<SCITEGIC>MOL_PROPERTY
Angle
SciTegic.value.DoubleValue
0.918

@<SCITEGIC>MOL_PROPERTY
Pdih
SciTegic.value.DoubleValue
5.862

@<SCITEGIC>MOL_PROPERTY
Idih
SciTegic.value.DoubleValue
0.000

@<SCITEGIC>MOL_PROPERTY
Tether
SciTegic.value.DoubleValue
0.000

@<TRIPOS>MOLECULE
guest-s16_confgen4.mol2 : confsearch ligand conformer 860
          13          13           1
SMALL
USER_CHARGES
 
@<TRIPOS>ATOM
       1    C1      20.460690   19.626815   22.705622 C.3        1 MOL1        -0.1693
       2    H1      20.833223   20.650014   22.834679 H          1 MOL1         0.0829
       3    H2      21.087010   18.952065   23.302892 H          1 MOL1         0.0829
       4    C2      20.220452   19.167371   21.228688 C.3        1 MOL1        -0.1768
       5    H3      19.935299   19.974894   20.543407 H          1 MOL1         0.0829
       6    H4      21.026327   18.586577   20.766139 H          1 MOL1         0.0829
       7    C3      19.014864   18.343453   21.777969 C.3        1 MOL1         0.1211
       8    H5      18.147598   18.292984   21.107306 H          1 MOL1         0.0786
       9    C4      18.918856   19.431474   22.891965 C.3        1 MOL1        -0.1768
      10    H6      18.314572   20.303751   22.614496 H          1 MOL1         0.0829
      11    H7      18.591803   19.080561   23.877158 H          1 MOL1         0.0829
      12    O1      19.343123   17.050998   22.240065 O.3        1 MOL1        -0.5515
      13    H8      20.118040   17.157014   22.829622 H          1 MOL1         0.3773
@<TRIPOS>BOND
    1     1     2    1
    2     1     3    1
    3     1     4    1
    4     4     5    1
    5     4     6    1
    6     4     7    1
    7     7     8    1
    8     1     9    1
    9     7     9    1
   10     9    10    1
   11     9    11    1
   12     7    12    1
   13    12    13    1
@<TRIPOS>SUBSTRUCTURE
       1 MOL1            1 RESIDUE      1      MOL     
@<SCITEGIC>MOL_PROPERTY
VConf Rank
SciTegic.value.IntegerValue
860

@<SCITEGIC>MOL_PROPERTY
Conf_Id
SciTegic.value.IntegerValue
44

@<SCITEGIC>MOL_PROPERTY
Delta U+W
SciTegic.value.DoubleValue
0.823

@<SCITEGIC>MOL_PROPERTY
U+W
SciTegic.value.DoubleValue
-2.308

@<SCITEGIC>MOL_PROPERTY
Grad RMS
SciTegic.value.DoubleValue
0.000000

@<SCITEGIC>MOL_PROPERTY
U
SciTegic.value.DoubleValue
0.039

@<SCITEGIC>MOL_PROPERTY
W
SciTegic.value.DoubleValue
-2.348

@<SCITEGIC>MOL_PROPERTY
W(PB)
SciTegic.value.DoubleValue
-3.918

@<SCITEGIC>MOL_PROPERTY
W(SA)
SciTegic.value.DoubleValue
1.571

@<SCITEGIC>MOL_PROPERTY
Valence
SciTegic.value.DoubleValue
7.320

@<SCITEGIC>MOL_PROPERTY
Coulomb
SciTegic.value.DoubleValue
-8.530

@<SCITEGIC>MOL_PROPERTY
VdW
SciTegic.value.DoubleValue
1.249

@<SCITEGIC>MOL_PROPERTY
VdW6
SciTegic.value.DoubleValue
-2.615

@<SCITEGIC>MOL_PROPERTY
VdW12
SciTegic.value.DoubleValue
3.864

@<SCITEGIC>MOL_PROPERTY
Bond
SciTegic.value.DoubleValue
0.056

@<SCITEGIC>MOL_PROPERTY
Angle
SciTegic.value.DoubleValue
0.694

@<SCITEGIC>MOL_PROPERTY
Pdih
SciTegic.value.DoubleValue
6.570

@<SCITEGIC>MOL_PROPERTY
Idih
SciTegic.value.DoubleValue
0.000

@<SCITEGIC>MOL_PROPERTY
Tether
SciTegic.value.DoubleValue
0.000

@<TRIPOS>MOLECULE
guest-s16_confgen4.mol2 : confsearch ligand conformer 861
          13          13           1
SMALL
USER_CHARGES
 
@<TRIPOS>ATOM
       1    C1      19.698507   19.735935   23.370839 C.3        1 MOL1        -0.1693
       2    H1      18.702453   19.946907   23.781878 H          1 MOL1         0.0829
       3    H2      20.453312   20.131367   24.060941 H          1 MOL1         0.0829
       4    C2      19.878723   20.116423   21.864168 C.3        1 MOL1        -0.1768
       5    H3      19.311748   20.985708   21.513677 H          1 MOL1         0.0829
       6    H4      20.920937   20.219751   21.537520 H          1 MOL1         0.0829
       7    C3      19.242543   18.726026   21.562640 C.3        1 MOL1         0.1211
       8    H5      18.144259   18.725923   21.591548 H          1 MOL1         0.0786
       9    C4      19.910341   18.261713   22.892171 C.3        1 MOL1        -0.1768
      10    H6      19.371807   17.490333   23.453533 H          1 MOL1         0.0829
      11    H7      20.960153   17.958530   22.793334 H          1 MOL1         0.0829
      12    O1      19.712358   18.088675   20.397478 O.3        1 MOL1        -0.5515
      13    H8      19.365585   17.170616   20.408416 H          1 MOL1         0.3773
@<TRIPOS>BOND
    1     1     2    1
    2     1     3    1
    3     1     4    1
    4     4     5    1
    5     4     6    1
    6     4     7    1
    7     7     8    1
    8     1     9    1
    9     7     9    1
   10     9    10    1
   11     9    11    1
   12     7    12    1
   13    12    13    1
@<TRIPOS>SUBSTRUCTURE
       1 MOL1            1 RESIDUE      1      MOL     
@<SCITEGIC>MOL_PROPERTY
VConf Rank
SciTegic.value.IntegerValue
861

@<SCITEGIC>MOL_PROPERTY
Conf_Id
SciTegic.value.IntegerValue
22

@<SCITEGIC>MOL_PROPERTY
Delta U+W
SciTegic.value.DoubleValue
0.000

@<SCITEGIC>MOL_PROPERTY
U+W
SciTegic.value.DoubleValue
-3.131

@<SCITEGIC>MOL_PROPERTY
Grad RMS
SciTegic.value.DoubleValue
0.000000

@<SCITEGIC>MOL_PROPERTY
U
SciTegic.value.DoubleValue
-0.154

@<SCITEGIC>MOL_PROPERTY
W
SciTegic.value.DoubleValue
-2.978

@<SCITEGIC>MOL_PROPERTY
W(PB)
SciTegic.value.DoubleValue
-4.579

@<SCITEGIC>MOL_PROPERTY
W(SA)
SciTegic.value.DoubleValue
1.601

@<SCITEGIC>MOL_PROPERTY
Valence
SciTegic.value.DoubleValue
6.333

@<SCITEGIC>MOL_PROPERTY
Coulomb
SciTegic.value.DoubleValue
-7.439

@<SCITEGIC>MOL_PROPERTY
VdW
SciTegic.value.DoubleValue
0.952

@<SCITEGIC>MOL_PROPERTY
VdW6
SciTegic.value.DoubleValue
-2.120

@<SCITEGIC>MOL_PROPERTY
VdW12
SciTegic.value.DoubleValue
3.072

@<SCITEGIC>MOL_PROPERTY
Bond
SciTegic.value.DoubleValue
0.065

@<SCITEGIC>MOL_PROPERTY
Angle
SciTegic.value.DoubleValue
0.931

@<SCITEGIC>MOL_PROPERTY
Pdih
SciTegic.value.DoubleValue
5.338

@<SCITEGIC>MOL_PROPERTY
Idih
SciTegic.value.DoubleValue
0.000

@<SCITEGIC>MOL_PROPERTY
Tether
SciTegic.value.DoubleValue
0.000

@<TRIPOS>MOLECULE
guest-s16_confgen4.mol2 : confsearch ligand conformer 862
          13          13           1
SMALL
USER_CHARGES
 
@<TRIPOS>ATOM
       1    C1      19.886944   19.797970   21.289803 C.3        1 MOL1        -0.1693
       2    H1      20.451508   19.371632   20.450107 H          1 MOL1         0.0829
       3    H2      19.741313   20.869148   21.106212 H          1 MOL1         0.0829
       4    C2      20.427580   19.410842   22.705845 C.3        1 MOL1        -0.1768
       5    H3      20.096052   20.069218   23.518510 H          1 MOL1         0.0829
       6    H4      21.510942   19.269316   22.786281 H          1 MOL1         0.0829
       7    C3      19.582671   18.111756   22.539416 C.3        1 MOL1         0.1211
       8    H5      20.084017   17.325091   21.959009 H          1 MOL1         0.0786
       9    C4      18.610098   18.990921   21.696793 C.3        1 MOL1        -0.1768
      10    H6      17.878903   19.555111   22.288933 H          1 MOL1         0.0829
      11    H7      18.084372   18.475946   20.885390 H          1 MOL1         0.0829
      12    O1      19.042265   17.587527   23.730086 O.3        1 MOL1        -0.5515
      13    H8      19.785435   17.199902   24.240624 H          1 MOL1         0.3773
@<TRIPOS>BOND
    1     1     2    1
    2     1     3    1
    3     1     4    1
    4     4     5    1
    5     4     6    1
    6     4     7    1
    7     7     8    1
    8     1     9    1
    9     7     9    1
   10     9    10    1
   11     9    11    1
   12     7    12    1
   13    12    13    1
@<TRIPOS>SUBSTRUCTURE
       1 MOL1            1 RESIDUE      1      MOL     
@<SCITEGIC>MOL_PROPERTY
VConf Rank
SciTegic.value.IntegerValue
862

@<SCITEGIC>MOL_PROPERTY
Conf_Id
SciTegic.value.IntegerValue
19

@<SCITEGIC>MOL_PROPERTY
Delta U+W
SciTegic.value.DoubleValue
-0.011

@<SCITEGIC>MOL_PROPERTY
U+W
SciTegic.value.DoubleValue
-3.142

@<SCITEGIC>MOL_PROPERTY
Grad RMS
SciTegic.value.DoubleValue
0.000000

@<SCITEGIC>MOL_PROPERTY
U
SciTegic.value.DoubleValue
-0.154

@<SCITEGIC>MOL_PROPERTY
W
SciTegic.value.DoubleValue
-2.989

@<SCITEGIC>MOL_PROPERTY
W(PB)
SciTegic.value.DoubleValue
-4.588

@<SCITEGIC>MOL_PROPERTY
W(SA)
SciTegic.value.DoubleValue
1.599

@<SCITEGIC>MOL_PROPERTY
Valence
SciTegic.value.DoubleValue
6.334

@<SCITEGIC>MOL_PROPERTY
Coulomb
SciTegic.value.DoubleValue
-7.439

@<SCITEGIC>MOL_PROPERTY
VdW
SciTegic.value.DoubleValue
0.951

@<SCITEGIC>MOL_PROPERTY
VdW6
SciTegic.value.DoubleValue
-2.120

@<SCITEGIC>MOL_PROPERTY
VdW12
SciTegic.value.DoubleValue
3.072

@<SCITEGIC>MOL_PROPERTY
Bond
SciTegic.value.DoubleValue
0.065

@<SCITEGIC>MOL_PROPERTY
Angle
SciTegic.value.DoubleValue
0.930

@<SCITEGIC>MOL_PROPERTY
Pdih
SciTegic.value.DoubleValue
5.339

@<SCITEGIC>MOL_PROPERTY
Idih
SciTegic.value.DoubleValue
0.000

@<SCITEGIC>MOL_PROPERTY
Tether
SciTegic.value.DoubleValue
0.000

@<TRIPOS>MOLECULE
guest-s16_confgen4.mol2 : confsearch ligand conformer 863
          13          13           1
SMALL
USER_CHARGES
 
@<TRIPOS>ATOM
       1    C1      20.680442   18.920696   22.913988 C.3        1 MOL1        -0.1693
       2    H1      21.760476   18.747304   22.840235 H          1 MOL1         0.0829
       3    H2      20.425426   19.104734   23.965797 H          1 MOL1         0.0829
       4    C2      19.764500   17.873683   22.197198 C.3        1 MOL1        -0.1768
       5    H3      20.207164   17.418566   21.302948 H          1 MOL1         0.0829
       6    H4      19.356763   17.077807   22.830227 H          1 MOL1         0.0829
       7    C3      18.799869   19.063467   21.898321 C.3        1 MOL1         0.1211
       8    H5      18.287476   19.004223   20.929426 H          1 MOL1         0.0786
       9    C4      20.079192   19.957522   21.907911 C.3        1 MOL1        -0.1768
      10    H6      19.949613   20.976681   22.288538 H          1 MOL1         0.0829
      11    H7      20.598819   20.007869   20.943325 H          1 MOL1         0.0829
      12    O1      17.867052   19.344606   22.922507 O.3        1 MOL1        -0.5515
      13    H8      17.444894   20.202540   22.703678 H          1 MOL1         0.3773
@<TRIPOS>BOND
    1     1     2    1
    2     1     3    1
    3     1     4    1
    4     4     5    1
    5     4     6    1
    6     4     7    1
    7     7     8    1
    8     1     9    1
    9     7     9    1
   10     9    10    1
   11     9    11    1
   12     7    12    1
   13    12    13    1
@<TRIPOS>SUBSTRUCTURE
       1 MOL1            1 RESIDUE      1      MOL     
@<SCITEGIC>MOL_PROPERTY
VConf Rank
SciTegic.value.IntegerValue
863

@<SCITEGIC>MOL_PROPERTY
Conf_Id
SciTegic.value.IntegerValue
20

@<SCITEGIC>MOL_PROPERTY
Delta U+W
SciTegic.value.DoubleValue
1.030

@<SCITEGIC>MOL_PROPERTY
U+W
SciTegic.value.DoubleValue
-2.101

@<SCITEGIC>MOL_PROPERTY
Grad RMS
SciTegic.value.DoubleValue
0.000000

@<SCITEGIC>MOL_PROPERTY
U
SciTegic.value.DoubleValue
0.841

@<SCITEGIC>MOL_PROPERTY
W
SciTegic.value.DoubleValue
-2.942

@<SCITEGIC>MOL_PROPERTY
W(PB)
SciTegic.value.DoubleValue
-4.530

@<SCITEGIC>MOL_PROPERTY
W(SA)
SciTegic.value.DoubleValue
1.587

@<SCITEGIC>MOL_PROPERTY
Valence
SciTegic.value.DoubleValue
6.736

@<SCITEGIC>MOL_PROPERTY
Coulomb
SciTegic.value.DoubleValue
-7.246

@<SCITEGIC>MOL_PROPERTY
VdW
SciTegic.value.DoubleValue
1.352

@<SCITEGIC>MOL_PROPERTY
VdW6
SciTegic.value.DoubleValue
-2.500

@<SCITEGIC>MOL_PROPERTY
VdW12
SciTegic.value.DoubleValue
3.851

@<SCITEGIC>MOL_PROPERTY
Bond
SciTegic.value.DoubleValue
0.063

@<SCITEGIC>MOL_PROPERTY
Angle
SciTegic.value.DoubleValue
0.687

@<SCITEGIC>MOL_PROPERTY
Pdih
SciTegic.value.DoubleValue
5.986

@<SCITEGIC>MOL_PROPERTY
Idih
SciTegic.value.DoubleValue
0.000

@<SCITEGIC>MOL_PROPERTY
Tether
SciTegic.value.DoubleValue
0.000

@<TRIPOS>MOLECULE
guest-s16_confgen4.mol2 : confsearch ligand conformer 864
          13          13           1
SMALL
USER_CHARGES
 
@<TRIPOS>ATOM
       1    C1      20.867287   18.380073   21.969769 C.3        1 MOL1        -0.1693
       2    H1      21.281265   17.712564   22.737052 H          1 MOL1         0.0829
       3    H2      21.555920   18.402255   21.116707 H          1 MOL1         0.0829
       4    C2      20.387935   19.770741   22.502330 C.3        1 MOL1        -0.1768
       5    H3      20.948592   20.182183   23.348894 H          1 MOL1         0.0829
       6    H4      20.292096   20.546934   21.733091 H          1 MOL1         0.0829
       7    C3      19.060257   19.037897   22.862003 C.3        1 MOL1         0.1211
       8    H5      19.092494   18.506606   23.822932 H          1 MOL1         0.0786
       9    C4      19.360556   18.131263   21.630341 C.3        1 MOL1        -0.1768
      10    H6      19.035086   18.541012   20.666203 H          1 MOL1         0.0829
      11    H7      19.013878   17.094798   21.706807 H          1 MOL1         0.0829
      12    O1      17.893401   19.819700   22.766876 O.3        1 MOL1        -0.5515
      13    H8      17.919835   20.266811   21.895032 H          1 MOL1         0.3773
@<TRIPOS>BOND
    1     1     2    1
    2     1     3    1
    3     1     4    1
    4     4     5    1
    5     4     6    1
    6     4     7    1
    7     7     8    1
    8     1     9    1
    9     7     9    1
   10     9    10    1
   11     9    11    1
   12     7    12    1
   13    12    13    1
@<TRIPOS>SUBSTRUCTURE
       1 MOL1            1 RESIDUE      1      MOL     
@<SCITEGIC>MOL_PROPERTY
VConf Rank
SciTegic.value.IntegerValue
864

@<SCITEGIC>MOL_PROPERTY
Conf_Id
SciTegic.value.IntegerValue
24

@<SCITEGIC>MOL_PROPERTY
Delta U+W
SciTegic.value.DoubleValue
0.356

@<SCITEGIC>MOL_PROPERTY
U+W
SciTegic.value.DoubleValue
-2.775

@<SCITEGIC>MOL_PROPERTY
Grad RMS
SciTegic.value.DoubleValue
0.000000

@<SCITEGIC>MOL_PROPERTY
U
SciTegic.value.DoubleValue
-0.184

@<SCITEGIC>MOL_PROPERTY
W
SciTegic.value.DoubleValue
-2.591

@<SCITEGIC>MOL_PROPERTY
W(PB)
SciTegic.value.DoubleValue
-4.184

@<SCITEGIC>MOL_PROPERTY
W(SA)
SciTegic.value.DoubleValue
1.593

@<SCITEGIC>MOL_PROPERTY
Valence
SciTegic.value.DoubleValue
6.840

@<SCITEGIC>MOL_PROPERTY
Coulomb
SciTegic.value.DoubleValue
-7.916

@<SCITEGIC>MOL_PROPERTY
VdW
SciTegic.value.DoubleValue
0.893

@<SCITEGIC>MOL_PROPERTY
VdW6
SciTegic.value.DoubleValue
-2.167

@<SCITEGIC>MOL_PROPERTY
VdW12
SciTegic.value.DoubleValue
3.060

@<SCITEGIC>MOL_PROPERTY
Bond
SciTegic.value.DoubleValue
0.059

@<SCITEGIC>MOL_PROPERTY
Angle
SciTegic.value.DoubleValue
0.918

@<SCITEGIC>MOL_PROPERTY
Pdih
SciTegic.value.DoubleValue
5.862

@<SCITEGIC>MOL_PROPERTY
Idih
SciTegic.value.DoubleValue
0.000

@<SCITEGIC>MOL_PROPERTY
Tether
SciTegic.value.DoubleValue
0.000

@<TRIPOS>MOLECULE
guest-s16_confgen4.mol2 : confsearch ligand conformer 865
          13          13           1
SMALL
USER_CHARGES
 
@<TRIPOS>ATOM
       1    C1      20.257018   19.891326   22.526147 C.3        1 MOL1        -0.1693
       2    H1      20.184500   20.950027   22.802311 H          1 MOL1         0.0829
       3    H2      21.311690   19.591980   22.574675 H          1 MOL1         0.0829
       4    C2      19.513950   19.474329   21.213096 C.3        1 MOL1        -0.1768
       5    H3      18.618470   20.067480   20.991056 H          1 MOL1         0.0829
       6    H4      20.127999   19.418543   20.307259 H          1 MOL1         0.0829
       7    C3      19.218053   18.115871   21.920931 C.3        1 MOL1         0.1211
       8    H5      18.241451   17.675398   21.682778 H          1 MOL1         0.0786
       9    C4      19.264070   18.924797   23.254167 C.3        1 MOL1        -0.1768
      10    H6      18.307323   19.383212   23.532567 H          1 MOL1         0.0829
      11    H7      19.660618   18.390693   24.124908 H          1 MOL1         0.0829
      12    O1      20.232021   17.143927   21.783380 O.3        1 MOL1        -0.5515
      13    H8      21.074695   17.590388   22.006733 H          1 MOL1         0.3773
@<TRIPOS>BOND
    1     1     2    1
    2     1     3    1
    3     1     4    1
    4     4     5    1
    5     4     6    1
    6     4     7    1
    7     7     8    1
    8     1     9    1
    9     7     9    1
   10     9    10    1
   11     9    11    1
   12     7    12    1
   13    12    13    1
@<TRIPOS>SUBSTRUCTURE
       1 MOL1            1 RESIDUE      1      MOL     
@<SCITEGIC>MOL_PROPERTY
VConf Rank
SciTegic.value.IntegerValue
865

@<SCITEGIC>MOL_PROPERTY
Conf_Id
SciTegic.value.IntegerValue
44

@<SCITEGIC>MOL_PROPERTY
Delta U+W
SciTegic.value.DoubleValue
0.823

@<SCITEGIC>MOL_PROPERTY
U+W
SciTegic.value.DoubleValue
-2.308

@<SCITEGIC>MOL_PROPERTY
Grad RMS
SciTegic.value.DoubleValue
0.000000

@<SCITEGIC>MOL_PROPERTY
U
SciTegic.value.DoubleValue
0.039

@<SCITEGIC>MOL_PROPERTY
W
SciTegic.value.DoubleValue
-2.348

@<SCITEGIC>MOL_PROPERTY
W(PB)
SciTegic.value.DoubleValue
-3.918

@<SCITEGIC>MOL_PROPERTY
W(SA)
SciTegic.value.DoubleValue
1.571

@<SCITEGIC>MOL_PROPERTY
Valence
SciTegic.value.DoubleValue
7.320

@<SCITEGIC>MOL_PROPERTY
Coulomb
SciTegic.value.DoubleValue
-8.530

@<SCITEGIC>MOL_PROPERTY
VdW
SciTegic.value.DoubleValue
1.249

@<SCITEGIC>MOL_PROPERTY
VdW6
SciTegic.value.DoubleValue
-2.615

@<SCITEGIC>MOL_PROPERTY
VdW12
SciTegic.value.DoubleValue
3.864

@<SCITEGIC>MOL_PROPERTY
Bond
SciTegic.value.DoubleValue
0.056

@<SCITEGIC>MOL_PROPERTY
Angle
SciTegic.value.DoubleValue
0.694

@<SCITEGIC>MOL_PROPERTY
Pdih
SciTegic.value.DoubleValue
6.570

@<SCITEGIC>MOL_PROPERTY
Idih
SciTegic.value.DoubleValue
0.000

@<SCITEGIC>MOL_PROPERTY
Tether
SciTegic.value.DoubleValue
0.000

@<TRIPOS>MOLECULE
guest-s16_confgen4.mol2 : confsearch ligand conformer 866
          13          13           1
SMALL
USER_CHARGES
 
@<TRIPOS>ATOM
       1    C1      20.584861   18.177369   21.861130 C.3        1 MOL1        -0.1693
       2    H1      20.194898   17.395450   21.196211 H          1 MOL1         0.0829
       3    H2      21.666484   18.035580   21.972147 H          1 MOL1         0.0829
       4    C2      19.777749   18.371240   23.187135 C.3        1 MOL1        -0.1768
       5    H3      19.315185   17.471738   23.607719 H          1 MOL1         0.0829
       6    H4      20.321183   18.894129   23.983911 H          1 MOL1         0.0829
       7    C3      18.839542   19.282796   22.339974 C.3        1 MOL1         0.1211
       8    H5      18.077035   18.729642   21.774585 H          1 MOL1         0.0786
       9    C4      20.114285   19.627950   21.512272 C.3        1 MOL1        -0.1768
      10    H6      19.951429   19.839669   20.449811 H          1 MOL1         0.0829
      11    H7      20.733635   20.425921   21.940574 H          1 MOL1         0.0829
      12    O1      18.261285   20.363171   23.034924 O.3        1 MOL1        -0.5515
      13    H8      17.835156   20.943252   22.367748 H          1 MOL1         0.3773
@<TRIPOS>BOND
    1     1     2    1
    2     1     3    1
    3     1     4    1
    4     4     5    1
    5     4     6    1
    6     4     7    1
    7     7     8    1
    8     1     9    1
    9     7     9    1
   10     9    10    1
   11     9    11    1
   12     7    12    1
   13    12    13    1
@<TRIPOS>SUBSTRUCTURE
       1 MOL1            1 RESIDUE      1      MOL     
@<SCITEGIC>MOL_PROPERTY
VConf Rank
SciTegic.value.IntegerValue
866

@<SCITEGIC>MOL_PROPERTY
Conf_Id
SciTegic.value.IntegerValue
22

@<SCITEGIC>MOL_PROPERTY
Delta U+W
SciTegic.value.DoubleValue
0.000

@<SCITEGIC>MOL_PROPERTY
U+W
SciTegic.value.DoubleValue
-3.131

@<SCITEGIC>MOL_PROPERTY
Grad RMS
SciTegic.value.DoubleValue
0.000000

@<SCITEGIC>MOL_PROPERTY
U
SciTegic.value.DoubleValue
-0.154

@<SCITEGIC>MOL_PROPERTY
W
SciTegic.value.DoubleValue
-2.978

@<SCITEGIC>MOL_PROPERTY
W(PB)
SciTegic.value.DoubleValue
-4.579

@<SCITEGIC>MOL_PROPERTY
W(SA)
SciTegic.value.DoubleValue
1.601

@<SCITEGIC>MOL_PROPERTY
Valence
SciTegic.value.DoubleValue
6.333

@<SCITEGIC>MOL_PROPERTY
Coulomb
SciTegic.value.DoubleValue
-7.439

@<SCITEGIC>MOL_PROPERTY
VdW
SciTegic.value.DoubleValue
0.952

@<SCITEGIC>MOL_PROPERTY
VdW6
SciTegic.value.DoubleValue
-2.120

@<SCITEGIC>MOL_PROPERTY
VdW12
SciTegic.value.DoubleValue
3.072

@<SCITEGIC>MOL_PROPERTY
Bond
SciTegic.value.DoubleValue
0.065

@<SCITEGIC>MOL_PROPERTY
Angle
SciTegic.value.DoubleValue
0.931

@<SCITEGIC>MOL_PROPERTY
Pdih
SciTegic.value.DoubleValue
5.338

@<SCITEGIC>MOL_PROPERTY
Idih
SciTegic.value.DoubleValue
0.000

@<SCITEGIC>MOL_PROPERTY
Tether
SciTegic.value.DoubleValue
0.000

@<TRIPOS>MOLECULE
guest-s16_confgen4.mol2 : confsearch ligand conformer 867
          13          13           1
SMALL
USER_CHARGES
 
@<TRIPOS>ATOM
       1    C1      18.523678   19.280536   21.619171 C.3        1 MOL1        -0.1693
       2    H1      18.496304   20.344746   21.350295 H          1 MOL1         0.0829
       3    H2      17.573287   18.820028   21.324167 H          1 MOL1         0.0829
       4    C2      19.006295   18.986080   23.077837 C.3        1 MOL1        -0.1768
       5    H3      18.732300   17.994653   23.459665 H          1 MOL1         0.0829
       6    H4      18.748968   19.737941   23.831933 H          1 MOL1         0.0829
       7    C3      20.446786   19.078105   22.489865 C.3        1 MOL1         0.1211
       8    H5      20.827850   20.104831   22.402197 H          1 MOL1         0.0786
       9    C4      19.819913   18.526240   21.174068 C.3        1 MOL1        -0.1768
      10    H6      19.726815   17.433699   21.138418 H          1 MOL1         0.0829
      11    H7      20.284779   18.870832   20.243952 H          1 MOL1         0.0829
      12    O1      21.401372   18.240579   23.099672 O.3        1 MOL1        -0.5515
      13    H8      21.593752   18.616113   23.985770 H          1 MOL1         0.3773
@<TRIPOS>BOND
    1     1     2    1
    2     1     3    1
    3     1     4    1
    4     4     5    1
    5     4     6    1
    6     4     7    1
    7     7     8    1
    8     1     9    1
    9     7     9    1
   10     9    10    1
   11     9    11    1
   12     7    12    1
   13    12    13    1
@<TRIPOS>SUBSTRUCTURE
       1 MOL1            1 RESIDUE      1      MOL     
@<SCITEGIC>MOL_PROPERTY
VConf Rank
SciTegic.value.IntegerValue
867

@<SCITEGIC>MOL_PROPERTY
Conf_Id
SciTegic.value.IntegerValue
19

@<SCITEGIC>MOL_PROPERTY
Delta U+W
SciTegic.value.DoubleValue
-0.011

@<SCITEGIC>MOL_PROPERTY
U+W
SciTegic.value.DoubleValue
-3.142

@<SCITEGIC>MOL_PROPERTY
Grad RMS
SciTegic.value.DoubleValue
0.000000

@<SCITEGIC>MOL_PROPERTY
U
SciTegic.value.DoubleValue
-0.154

@<SCITEGIC>MOL_PROPERTY
W
SciTegic.value.DoubleValue
-2.989

@<SCITEGIC>MOL_PROPERTY
W(PB)
SciTegic.value.DoubleValue
-4.588

@<SCITEGIC>MOL_PROPERTY
W(SA)
SciTegic.value.DoubleValue
1.599

@<SCITEGIC>MOL_PROPERTY
Valence
SciTegic.value.DoubleValue
6.334

@<SCITEGIC>MOL_PROPERTY
Coulomb
SciTegic.value.DoubleValue
-7.439

@<SCITEGIC>MOL_PROPERTY
VdW
SciTegic.value.DoubleValue
0.951

@<SCITEGIC>MOL_PROPERTY
VdW6
SciTegic.value.DoubleValue
-2.120

@<SCITEGIC>MOL_PROPERTY
VdW12
SciTegic.value.DoubleValue
3.072

@<SCITEGIC>MOL_PROPERTY
Bond
SciTegic.value.DoubleValue
0.065

@<SCITEGIC>MOL_PROPERTY
Angle
SciTegic.value.DoubleValue
0.930

@<SCITEGIC>MOL_PROPERTY
Pdih
SciTegic.value.DoubleValue
5.339

@<SCITEGIC>MOL_PROPERTY
Idih
SciTegic.value.DoubleValue
0.000

@<SCITEGIC>MOL_PROPERTY
Tether
SciTegic.value.DoubleValue
0.000

@<TRIPOS>MOLECULE
guest-s16_confgen4.mol2 : confsearch ligand conformer 868
          13          13           1
SMALL
USER_CHARGES
 
@<TRIPOS>ATOM
       1    C1      19.072074   19.800147   23.084411 C.3        1 MOL1        -0.1693
       2    H1      18.993724   20.090260   24.138770 H          1 MOL1         0.0829
       3    H2      18.443609   20.473723   22.487306 H          1 MOL1         0.0829
       4    C2      18.873644   18.279595   22.772132 C.3        1 MOL1        -0.1768
       5    H3      19.198733   17.604433   23.572906 H          1 MOL1         0.0829
       6    H4      17.870182   17.981803   22.448440 H          1 MOL1         0.0829
       7    C3      19.923468   18.473656   21.633870 C.3        1 MOL1         0.1211
       8    H5      20.586700   17.614100   21.472315 H          1 MOL1         0.0786
       9    C4      20.522184   19.602130   22.530631 C.3        1 MOL1        -0.1768
      10    H6      20.954876   20.457696   22.000408 H          1 MOL1         0.0829
      11    H7      21.247261   19.247925   23.273448 H          1 MOL1         0.0829
      12    O1      19.389367   18.911159   20.400391 O.3        1 MOL1        -0.5515
      13    H8      20.145867   19.163069   19.829073 H          1 MOL1         0.3773
@<TRIPOS>BOND
    1     1     2    1
    2     1     3    1
    3     1     4    1
    4     4     5    1
    5     4     6    1
    6     4     7    1
    7     7     8    1
    8     1     9    1
    9     7     9    1
   10     9    10    1
   11     9    11    1
   12     7    12    1
   13    12    13    1
@<TRIPOS>SUBSTRUCTURE
       1 MOL1            1 RESIDUE      1      MOL     
@<SCITEGIC>MOL_PROPERTY
VConf Rank
SciTegic.value.IntegerValue
868

@<SCITEGIC>MOL_PROPERTY
Conf_Id
SciTegic.value.IntegerValue
20

@<SCITEGIC>MOL_PROPERTY
Delta U+W
SciTegic.value.DoubleValue
1.030

@<SCITEGIC>MOL_PROPERTY
U+W
SciTegic.value.DoubleValue
-2.101

@<SCITEGIC>MOL_PROPERTY
Grad RMS
SciTegic.value.DoubleValue
0.000000

@<SCITEGIC>MOL_PROPERTY
U
SciTegic.value.DoubleValue
0.841

@<SCITEGIC>MOL_PROPERTY
W
SciTegic.value.DoubleValue
-2.942

@<SCITEGIC>MOL_PROPERTY
W(PB)
SciTegic.value.DoubleValue
-4.530

@<SCITEGIC>MOL_PROPERTY
W(SA)
SciTegic.value.DoubleValue
1.587

@<SCITEGIC>MOL_PROPERTY
Valence
SciTegic.value.DoubleValue
6.736

@<SCITEGIC>MOL_PROPERTY
Coulomb
SciTegic.value.DoubleValue
-7.246

@<SCITEGIC>MOL_PROPERTY
VdW
SciTegic.value.DoubleValue
1.352

@<SCITEGIC>MOL_PROPERTY
VdW6
SciTegic.value.DoubleValue
-2.500

@<SCITEGIC>MOL_PROPERTY
VdW12
SciTegic.value.DoubleValue
3.851

@<SCITEGIC>MOL_PROPERTY
Bond
SciTegic.value.DoubleValue
0.063

@<SCITEGIC>MOL_PROPERTY
Angle
SciTegic.value.DoubleValue
0.687

@<SCITEGIC>MOL_PROPERTY
Pdih
SciTegic.value.DoubleValue
5.986

@<SCITEGIC>MOL_PROPERTY
Idih
SciTegic.value.DoubleValue
0.000

@<SCITEGIC>MOL_PROPERTY
Tether
SciTegic.value.DoubleValue
0.000

@<TRIPOS>MOLECULE
guest-s16_confgen4.mol2 : confsearch ligand conformer 869
          13          13           1
SMALL
USER_CHARGES
 
@<TRIPOS>ATOM
       1    C1      18.895494   19.792546   22.674436 C.3        1 MOL1        -0.1693
       2    H1      19.264622   20.594076   23.327859 H          1 MOL1         0.0829
       3    H2      17.810489   19.904501   22.561957 H          1 MOL1         0.0829
       4    C2      19.403781   18.360245   23.045266 C.3        1 MOL1        -0.1768
       5    H3      19.575082   18.170227   24.110555 H          1 MOL1         0.0829
       6    H4      18.802006   17.540489   22.633858 H          1 MOL1         0.0829
       7    C3      20.668459   18.726593   22.211279 C.3        1 MOL1         0.1211
       8    H5      21.416249   19.305901   22.769765 H          1 MOL1         0.0786
       9    C4      19.707501   19.601579   21.350980 C.3        1 MOL1        -0.1768
      10    H6      19.173611   19.059278   20.560880 H          1 MOL1         0.0829
      11    H7      20.147035   20.507847   20.919957 H          1 MOL1         0.0829
      12    O1      21.277715   17.653255   21.534102 O.3        1 MOL1        -0.5515
      13    H8      20.566560   17.176300   21.057142 H          1 MOL1         0.3773
@<TRIPOS>BOND
    1     1     2    1
    2     1     3    1
    3     1     4    1
    4     4     5    1
    5     4     6    1
    6     4     7    1
    7     7     8    1
    8     1     9    1
    9     7     9    1
   10     9    10    1
   11     9    11    1
   12     7    12    1
   13    12    13    1
@<TRIPOS>SUBSTRUCTURE
       1 MOL1            1 RESIDUE      1      MOL     
@<SCITEGIC>MOL_PROPERTY
VConf Rank
SciTegic.value.IntegerValue
869

@<SCITEGIC>MOL_PROPERTY
Conf_Id
SciTegic.value.IntegerValue
24

@<SCITEGIC>MOL_PROPERTY
Delta U+W
SciTegic.value.DoubleValue
0.356

@<SCITEGIC>MOL_PROPERTY
U+W
SciTegic.value.DoubleValue
-2.775

@<SCITEGIC>MOL_PROPERTY
Grad RMS
SciTegic.value.DoubleValue
0.000000

@<SCITEGIC>MOL_PROPERTY
U
SciTegic.value.DoubleValue
-0.184

@<SCITEGIC>MOL_PROPERTY
W
SciTegic.value.DoubleValue
-2.591

@<SCITEGIC>MOL_PROPERTY
W(PB)
SciTegic.value.DoubleValue
-4.184

@<SCITEGIC>MOL_PROPERTY
W(SA)
SciTegic.value.DoubleValue
1.593

@<SCITEGIC>MOL_PROPERTY
Valence
SciTegic.value.DoubleValue
6.840

@<SCITEGIC>MOL_PROPERTY
Coulomb
SciTegic.value.DoubleValue
-7.916

@<SCITEGIC>MOL_PROPERTY
VdW
SciTegic.value.DoubleValue
0.893

@<SCITEGIC>MOL_PROPERTY
VdW6
SciTegic.value.DoubleValue
-2.167

@<SCITEGIC>MOL_PROPERTY
VdW12
SciTegic.value.DoubleValue
3.060

@<SCITEGIC>MOL_PROPERTY
Bond
SciTegic.value.DoubleValue
0.059

@<SCITEGIC>MOL_PROPERTY
Angle
SciTegic.value.DoubleValue
0.918

@<SCITEGIC>MOL_PROPERTY
Pdih
SciTegic.value.DoubleValue
5.862

@<SCITEGIC>MOL_PROPERTY
Idih
SciTegic.value.DoubleValue
0.000

@<SCITEGIC>MOL_PROPERTY
Tether
SciTegic.value.DoubleValue
0.000

@<TRIPOS>MOLECULE
guest-s16_confgen4.mol2 : confsearch ligand conformer 870
          13          13           1
SMALL
USER_CHARGES
 
@<TRIPOS>ATOM
       1    C1      18.670432   18.583659   21.944305 C.3        1 MOL1        -0.1693
       2    H1      17.638947   18.849013   21.683538 H          1 MOL1         0.0829
       3    H2      18.754635   17.489544   21.955102 H          1 MOL1         0.0829
       4    C2      19.264766   19.302235   23.201505 C.3        1 MOL1        -0.1768
       5    H3      18.866499   20.308665   23.378976 H          1 MOL1         0.0829
       6    H4      19.225673   18.741512   24.142127 H          1 MOL1         0.0829
       7    C3      20.633048   19.282310   22.452238 C.3        1 MOL1         0.1211
       8    H5      21.264150   20.164002   22.621993 H          1 MOL1         0.0786
       9    C4      19.791298   19.322400   21.139285 C.3        1 MOL1        -0.1768
      10    H6      19.522128   20.333773   20.811130 H          1 MOL1         0.0829
      11    H7      20.210504   18.779229   20.284920 H          1 MOL1         0.0829
      12    O1      21.389966   18.105124   22.633990 O.3        1 MOL1        -0.5515
      13    H8      20.779814   17.356506   22.470899 H          1 MOL1         0.3773
@<TRIPOS>BOND
    1     1     2    1
    2     1     3    1
    3     1     4    1
    4     4     5    1
    5     4     6    1
    6     4     7    1
    7     7     8    1
    8     1     9    1
    9     7     9    1
   10     9    10    1
   11     9    11    1
   12     7    12    1
   13    12    13    1
@<TRIPOS>SUBSTRUCTURE
       1 MOL1            1 RESIDUE      1      MOL     
@<SCITEGIC>MOL_PROPERTY
VConf Rank
SciTegic.value.IntegerValue
870

@<SCITEGIC>MOL_PROPERTY
Conf_Id
SciTegic.value.IntegerValue
44

@<SCITEGIC>MOL_PROPERTY
Delta U+W
SciTegic.value.DoubleValue
0.823

@<SCITEGIC>MOL_PROPERTY
U+W
SciTegic.value.DoubleValue
-2.308

@<SCITEGIC>MOL_PROPERTY
Grad RMS
SciTegic.value.DoubleValue
0.000000

@<SCITEGIC>MOL_PROPERTY
U
SciTegic.value.DoubleValue
0.039

@<SCITEGIC>MOL_PROPERTY
W
SciTegic.value.DoubleValue
-2.348

@<SCITEGIC>MOL_PROPERTY
W(PB)
SciTegic.value.DoubleValue
-3.918

@<SCITEGIC>MOL_PROPERTY
W(SA)
SciTegic.value.DoubleValue
1.571

@<SCITEGIC>MOL_PROPERTY
Valence
SciTegic.value.DoubleValue
7.320

@<SCITEGIC>MOL_PROPERTY
Coulomb
SciTegic.value.DoubleValue
-8.530

@<SCITEGIC>MOL_PROPERTY
VdW
SciTegic.value.DoubleValue
1.249

@<SCITEGIC>MOL_PROPERTY
VdW6
SciTegic.value.DoubleValue
-2.615

@<SCITEGIC>MOL_PROPERTY
VdW12
SciTegic.value.DoubleValue
3.864

@<SCITEGIC>MOL_PROPERTY
Bond
SciTegic.value.DoubleValue
0.056

@<SCITEGIC>MOL_PROPERTY
Angle
SciTegic.value.DoubleValue
0.694

@<SCITEGIC>MOL_PROPERTY
Pdih
SciTegic.value.DoubleValue
6.570

@<SCITEGIC>MOL_PROPERTY
Idih
SciTegic.value.DoubleValue
0.000

@<SCITEGIC>MOL_PROPERTY
Tether
SciTegic.value.DoubleValue
0.000

@<TRIPOS>MOLECULE
guest-s16_confgen4.mol2 : confsearch ligand conformer 871
          13          13           1
SMALL
USER_CHARGES
 
@<TRIPOS>ATOM
       1    C1      20.498352   19.986372   22.648664 C.3        1 MOL1        -0.1693
       2    H1      21.445309   19.998737   22.093052 H          1 MOL1         0.0829
       3    H2      20.499613   20.819291   23.361814 H          1 MOL1         0.0829
       4    C2      20.096162   18.588868   23.225322 C.3        1 MOL1        -0.1768
       5    H3      20.921136   17.935581   23.529617 H          1 MOL1         0.0829
       6    H4      19.354878   18.620964   24.033439 H          1 MOL1         0.0829
       7    C3      19.499238   18.313128   21.812347 C.3        1 MOL1         0.1211
       8    H5      20.240502   17.969531   21.077820 H          1 MOL1         0.0786
       9    C4      19.219230   19.845431   21.759109 C.3        1 MOL1        -0.1768
      10    H6      19.269039   20.306159   20.766425 H          1 MOL1         0.0829
      11    H7      18.286179   20.155479   22.246018 H          1 MOL1         0.0829
      12    O1      18.355905   17.490385   21.791635 O.3        1 MOL1        -0.5515
      13    H8      17.987183   17.527981   20.882881 H          1 MOL1         0.3773
@<TRIPOS>BOND
    1     1     2    1
    2     1     3    1
    3     1     4    1
    4     4     5    1
    5     4     6    1
    6     4     7    1
    7     7     8    1
    8     1     9    1
    9     7     9    1
   10     9    10    1
   11     9    11    1
   12     7    12    1
   13    12    13    1
@<TRIPOS>SUBSTRUCTURE
       1 MOL1            1 RESIDUE      1      MOL     
@<SCITEGIC>MOL_PROPERTY
VConf Rank
SciTegic.value.IntegerValue
871

@<SCITEGIC>MOL_PROPERTY
Conf_Id
SciTegic.value.IntegerValue
22

@<SCITEGIC>MOL_PROPERTY
Delta U+W
SciTegic.value.DoubleValue
0.000

@<SCITEGIC>MOL_PROPERTY
U+W
SciTegic.value.DoubleValue
-3.131

@<SCITEGIC>MOL_PROPERTY
Grad RMS
SciTegic.value.DoubleValue
0.000000

@<SCITEGIC>MOL_PROPERTY
U
SciTegic.value.DoubleValue
-0.154

@<SCITEGIC>MOL_PROPERTY
W
SciTegic.value.DoubleValue
-2.978

@<SCITEGIC>MOL_PROPERTY
W(PB)
SciTegic.value.DoubleValue
-4.579

@<SCITEGIC>MOL_PROPERTY
W(SA)
SciTegic.value.DoubleValue
1.601

@<SCITEGIC>MOL_PROPERTY
Valence
SciTegic.value.DoubleValue
6.333

@<SCITEGIC>MOL_PROPERTY
Coulomb
SciTegic.value.DoubleValue
-7.439

@<SCITEGIC>MOL_PROPERTY
VdW
SciTegic.value.DoubleValue
0.952

@<SCITEGIC>MOL_PROPERTY
VdW6
SciTegic.value.DoubleValue
-2.120

@<SCITEGIC>MOL_PROPERTY
VdW12
SciTegic.value.DoubleValue
3.072

@<SCITEGIC>MOL_PROPERTY
Bond
SciTegic.value.DoubleValue
0.065

@<SCITEGIC>MOL_PROPERTY
Angle
SciTegic.value.DoubleValue
0.931

@<SCITEGIC>MOL_PROPERTY
Pdih
SciTegic.value.DoubleValue
5.338

@<SCITEGIC>MOL_PROPERTY
Idih
SciTegic.value.DoubleValue
0.000

@<SCITEGIC>MOL_PROPERTY
Tether
SciTegic.value.DoubleValue
0.000

@<TRIPOS>MOLECULE
guest-s16_confgen4.mol2 : confsearch ligand conformer 872
          13          13           1
SMALL
USER_CHARGES
 
@<TRIPOS>ATOM
       1    C1      20.032266   19.216463   21.023435 C.3        1 MOL1        -0.1693
       2    H1      19.251038   19.676210   20.403837 H          1 MOL1         0.0829
       3    H2      20.931896   19.082853   20.410939 H          1 MOL1         0.0829
       4    C2      19.567382   17.967690   21.843056 C.3        1 MOL1        -0.1768
       5    H3      20.381302   17.320522   22.193056 H          1 MOL1         0.0829
       6    H4      18.796826   17.344210   21.376484 H          1 MOL1         0.0829
       7    C3      19.061673   18.999115   22.896438 C.3        1 MOL1         0.1211
       8    H5      18.070994   19.417267   22.671128 H          1 MOL1         0.0786
       9    C4      20.244723   19.893527   22.417620 C.3        1 MOL1        -0.1768
      10    H6      21.206322   19.669427   22.895836 H          1 MOL1         0.0829
      11    H7      20.072723   20.974472   22.461605 H          1 MOL1         0.0829
      12    O1      19.132185   18.574565   24.237831 O.3        1 MOL1        -0.5515
      13    H8      18.432768   17.898061   24.365743 H          1 MOL1         0.3773
@<TRIPOS>BOND
    1     1     2    1
    2     1     3    1
    3     1     4    1
    4     4     5    1
    5     4     6    1
    6     4     7    1
    7     7     8    1
    8     1     9    1
    9     7     9    1
   10     9    10    1
   11     9    11    1
   12     7    12    1
   13    12    13    1
@<TRIPOS>SUBSTRUCTURE
       1 MOL1            1 RESIDUE      1      MOL     
@<SCITEGIC>MOL_PROPERTY
VConf Rank
SciTegic.value.IntegerValue
872

@<SCITEGIC>MOL_PROPERTY
Conf_Id
SciTegic.value.IntegerValue
19

@<SCITEGIC>MOL_PROPERTY
Delta U+W
SciTegic.value.DoubleValue
-0.011

@<SCITEGIC>MOL_PROPERTY
U+W
SciTegic.value.DoubleValue
-3.142

@<SCITEGIC>MOL_PROPERTY
Grad RMS
SciTegic.value.DoubleValue
0.000000

@<SCITEGIC>MOL_PROPERTY
U
SciTegic.value.DoubleValue
-0.154

@<SCITEGIC>MOL_PROPERTY
W
SciTegic.value.DoubleValue
-2.989

@<SCITEGIC>MOL_PROPERTY
W(PB)
SciTegic.value.DoubleValue
-4.588

@<SCITEGIC>MOL_PROPERTY
W(SA)
SciTegic.value.DoubleValue
1.599

@<SCITEGIC>MOL_PROPERTY
Valence
SciTegic.value.DoubleValue
6.334

@<SCITEGIC>MOL_PROPERTY
Coulomb
SciTegic.value.DoubleValue
-7.439

@<SCITEGIC>MOL_PROPERTY
VdW
SciTegic.value.DoubleValue
0.951

@<SCITEGIC>MOL_PROPERTY
VdW6
SciTegic.value.DoubleValue
-2.120

@<SCITEGIC>MOL_PROPERTY
VdW12
SciTegic.value.DoubleValue
3.072

@<SCITEGIC>MOL_PROPERTY
Bond
SciTegic.value.DoubleValue
0.065

@<SCITEGIC>MOL_PROPERTY
Angle
SciTegic.value.DoubleValue
0.930

@<SCITEGIC>MOL_PROPERTY
Pdih
SciTegic.value.DoubleValue
5.339

@<SCITEGIC>MOL_PROPERTY
Idih
SciTegic.value.DoubleValue
0.000

@<SCITEGIC>MOL_PROPERTY
Tether
SciTegic.value.DoubleValue
0.000

@<TRIPOS>MOLECULE
guest-s16_confgen4.mol2 : confsearch ligand conformer 873
          13          13           1
SMALL
USER_CHARGES
 
@<TRIPOS>ATOM
       1    C1      18.965683   18.521873   23.169160 C.3        1 MOL1        -0.1693
       2    H1      18.889199   18.334966   24.246747 H          1 MOL1         0.0829
       3    H2      18.065061   18.128626   22.679832 H          1 MOL1         0.0829
       4    C2      20.310853   18.098542   22.490720 C.3        1 MOL1        -0.1768
       5    H3      21.190098   18.165339   23.142818 H          1 MOL1         0.0829
       6    H4      20.313943   17.120300   21.997338 H          1 MOL1         0.0829
       7    C3      20.115432   19.330348   21.552693 C.3        1 MOL1         0.1211
       8    H5      21.044726   19.841292   21.269566 H          1 MOL1         0.0786
       9    C4      19.350697   19.979146   22.748660 C.3        1 MOL1        -0.1768
      10    H6      18.516971   20.638847   22.483994 H          1 MOL1         0.0829
      11    H7      19.997044   20.502150   23.463975 H          1 MOL1         0.0829
      12    O1      19.329257   19.084398   20.403963 O.3        1 MOL1        -0.5515
      13    H8      19.132722   19.953869   19.994635 H          1 MOL1         0.3773
@<TRIPOS>BOND
    1     1     2    1
    2     1     3    1
    3     1     4    1
    4     4     5    1
    5     4     6    1
    6     4     7    1
    7     7     8    1
    8     1     9    1
    9     7     9    1
   10     9    10    1
   11     9    11    1
   12     7    12    1
   13    12    13    1
@<TRIPOS>SUBSTRUCTURE
       1 MOL1            1 RESIDUE      1      MOL     
@<SCITEGIC>MOL_PROPERTY
VConf Rank
SciTegic.value.IntegerValue
873

@<SCITEGIC>MOL_PROPERTY
Conf_Id
SciTegic.value.IntegerValue
20

@<SCITEGIC>MOL_PROPERTY
Delta U+W
SciTegic.value.DoubleValue
1.030

@<SCITEGIC>MOL_PROPERTY
U+W
SciTegic.value.DoubleValue
-2.101

@<SCITEGIC>MOL_PROPERTY
Grad RMS
SciTegic.value.DoubleValue
0.000000

@<SCITEGIC>MOL_PROPERTY
U
SciTegic.value.DoubleValue
0.841

@<SCITEGIC>MOL_PROPERTY
W
SciTegic.value.DoubleValue
-2.942

@<SCITEGIC>MOL_PROPERTY
W(PB)
SciTegic.value.DoubleValue
-4.530

@<SCITEGIC>MOL_PROPERTY
W(SA)
SciTegic.value.DoubleValue
1.587

@<SCITEGIC>MOL_PROPERTY
Valence
SciTegic.value.DoubleValue
6.736

@<SCITEGIC>MOL_PROPERTY
Coulomb
SciTegic.value.DoubleValue
-7.246

@<SCITEGIC>MOL_PROPERTY
VdW
SciTegic.value.DoubleValue
1.352

@<SCITEGIC>MOL_PROPERTY
VdW6
SciTegic.value.DoubleValue
-2.500

@<SCITEGIC>MOL_PROPERTY
VdW12
SciTegic.value.DoubleValue
3.851

@<SCITEGIC>MOL_PROPERTY
Bond
SciTegic.value.DoubleValue
0.063

@<SCITEGIC>MOL_PROPERTY
Angle
SciTegic.value.DoubleValue
0.687

@<SCITEGIC>MOL_PROPERTY
Pdih
SciTegic.value.DoubleValue
5.986

@<SCITEGIC>MOL_PROPERTY
Idih
SciTegic.value.DoubleValue
0.000

@<SCITEGIC>MOL_PROPERTY
Tether
SciTegic.value.DoubleValue
0.000

@<TRIPOS>MOLECULE
guest-s16_confgen4.mol2 : confsearch ligand conformer 874
          13          13           1
SMALL
USER_CHARGES
 
@<TRIPOS>ATOM
       1    C1      19.066925   17.867725   22.257749 C.3        1 MOL1        -0.1693
       2    H1      19.584967   16.947467   22.558459 H          1 MOL1         0.0829
       3    H2      18.016958   17.627166   22.052510 H          1 MOL1         0.0829
       4    C2      19.806234   18.706751   21.163759 C.3        1 MOL1        -0.1768
       5    H3      20.390949   18.137444   20.432807 H          1 MOL1         0.0829
       6    H4      19.169354   19.420076   20.626227 H          1 MOL1         0.0829
       7    C3      20.613486   19.314706   22.350304 C.3        1 MOL1         0.1211
       8    H5      21.462876   18.696999   22.672280 H          1 MOL1         0.0786
       9    C4      19.320421   19.096227   23.192565 C.3        1 MOL1        -0.1768
      10    H6      18.574955   19.896603   23.108496 H          1 MOL1         0.0829
      11    H7      19.476089   18.870887   24.253358 H          1 MOL1         0.0829
      12    O1      21.009505   20.655803   22.187682 O.3        1 MOL1        -0.5515
      13    H8      20.215885   21.154983   21.901840 H          1 MOL1         0.3773
@<TRIPOS>BOND
    1     1     2    1
    2     1     3    1
    3     1     4    1
    4     4     5    1
    5     4     6    1
    6     4     7    1
    7     7     8    1
    8     1     9    1
    9     7     9    1
   10     9    10    1
   11     9    11    1
   12     7    12    1
   13    12    13    1
@<TRIPOS>SUBSTRUCTURE
       1 MOL1            1 RESIDUE      1      MOL     
@<SCITEGIC>MOL_PROPERTY
VConf Rank
SciTegic.value.IntegerValue
874

@<SCITEGIC>MOL_PROPERTY
Conf_Id
SciTegic.value.IntegerValue
24

@<SCITEGIC>MOL_PROPERTY
Delta U+W
SciTegic.value.DoubleValue
0.356

@<SCITEGIC>MOL_PROPERTY
U+W
SciTegic.value.DoubleValue
-2.775

@<SCITEGIC>MOL_PROPERTY
Grad RMS
SciTegic.value.DoubleValue
0.000000

@<SCITEGIC>MOL_PROPERTY
U
SciTegic.value.DoubleValue
-0.184

@<SCITEGIC>MOL_PROPERTY
W
SciTegic.value.DoubleValue
-2.591

@<SCITEGIC>MOL_PROPERTY
W(PB)
SciTegic.value.DoubleValue
-4.184

@<SCITEGIC>MOL_PROPERTY
W(SA)
SciTegic.value.DoubleValue
1.593

@<SCITEGIC>MOL_PROPERTY
Valence
SciTegic.value.DoubleValue
6.840

@<SCITEGIC>MOL_PROPERTY
Coulomb
SciTegic.value.DoubleValue
-7.916

@<SCITEGIC>MOL_PROPERTY
VdW
SciTegic.value.DoubleValue
0.893

@<SCITEGIC>MOL_PROPERTY
VdW6
SciTegic.value.DoubleValue
-2.167

@<SCITEGIC>MOL_PROPERTY
VdW12
SciTegic.value.DoubleValue
3.060

@<SCITEGIC>MOL_PROPERTY
Bond
SciTegic.value.DoubleValue
0.059

@<SCITEGIC>MOL_PROPERTY
Angle
SciTegic.value.DoubleValue
0.918

@<SCITEGIC>MOL_PROPERTY
Pdih
SciTegic.value.DoubleValue
5.862

@<SCITEGIC>MOL_PROPERTY
Idih
SciTegic.value.DoubleValue
0.000

@<SCITEGIC>MOL_PROPERTY
Tether
SciTegic.value.DoubleValue
0.000

@<TRIPOS>MOLECULE
guest-s16_confgen4.mol2 : confsearch ligand conformer 875
          13          13           1
SMALL
USER_CHARGES
 
@<TRIPOS>ATOM
       1    C1      18.864392   18.225520   22.363815 C.3        1 MOL1        -0.1693
       2    H1      18.136797   17.563534   21.879302 H          1 MOL1         0.0829
       3    H2      18.746660   18.133245   23.450976 H          1 MOL1         0.0829
       4    C2      18.913626   19.695894   21.829293 C.3        1 MOL1        -0.1768
       5    H3      18.655987   19.801461   20.768400 H          1 MOL1         0.0829
       6    H4      18.344439   20.437280   22.401204 H          1 MOL1         0.0829
       7    C3      20.447575   19.649283   22.110041 C.3        1 MOL1         0.1211
       8    H5      21.065184   20.196747   21.386625 H          1 MOL1         0.0786
       9    C4      20.338610   18.114942   21.849430 C.3        1 MOL1        -0.1768
      10    H6      20.430356   17.832883   20.793475 H          1 MOL1         0.0829
      11    H7      21.009750   17.480243   22.438867 H          1 MOL1         0.0829
      12    O1      20.819226   20.001027   23.425290 O.3        1 MOL1        -0.5515
      13    H8      20.239256   19.485912   24.023290 H          1 MOL1         0.3773
@<TRIPOS>BOND
    1     1     2    1
    2     1     3    1
    3     1     4    1
    4     4     5    1
    5     4     6    1
    6     4     7    1
    7     7     8    1
    8     1     9    1
    9     7     9    1
   10     9    10    1
   11     9    11    1
   12     7    12    1
   13    12    13    1
@<TRIPOS>SUBSTRUCTURE
       1 MOL1            1 RESIDUE      1      MOL     
@<SCITEGIC>MOL_PROPERTY
VConf Rank
SciTegic.value.IntegerValue
875

@<SCITEGIC>MOL_PROPERTY
Conf_Id
SciTegic.value.IntegerValue
44

@<SCITEGIC>MOL_PROPERTY
Delta U+W
SciTegic.value.DoubleValue
0.823

@<SCITEGIC>MOL_PROPERTY
U+W
SciTegic.value.DoubleValue
-2.308

@<SCITEGIC>MOL_PROPERTY
Grad RMS
SciTegic.value.DoubleValue
0.000000

@<SCITEGIC>MOL_PROPERTY
U
SciTegic.value.DoubleValue
0.039

@<SCITEGIC>MOL_PROPERTY
W
SciTegic.value.DoubleValue
-2.348

@<SCITEGIC>MOL_PROPERTY
W(PB)
SciTegic.value.DoubleValue
-3.918

@<SCITEGIC>MOL_PROPERTY
W(SA)
SciTegic.value.DoubleValue
1.571

@<SCITEGIC>MOL_PROPERTY
Valence
SciTegic.value.DoubleValue
7.320

@<SCITEGIC>MOL_PROPERTY
Coulomb
SciTegic.value.DoubleValue
-8.530

@<SCITEGIC>MOL_PROPERTY
VdW
SciTegic.value.DoubleValue
1.249

@<SCITEGIC>MOL_PROPERTY
VdW6
SciTegic.value.DoubleValue
-2.615

@<SCITEGIC>MOL_PROPERTY
VdW12
SciTegic.value.DoubleValue
3.864

@<SCITEGIC>MOL_PROPERTY
Bond
SciTegic.value.DoubleValue
0.056

@<SCITEGIC>MOL_PROPERTY
Angle
SciTegic.value.DoubleValue
0.694

@<SCITEGIC>MOL_PROPERTY
Pdih
SciTegic.value.DoubleValue
6.570

@<SCITEGIC>MOL_PROPERTY
Idih
SciTegic.value.DoubleValue
0.000

@<SCITEGIC>MOL_PROPERTY
Tether
SciTegic.value.DoubleValue
0.000

@<TRIPOS>MOLECULE
guest-s16_confgen4.mol2 : confsearch ligand conformer 876
          13          13           1
SMALL
USER_CHARGES
 
@<TRIPOS>ATOM
       1    C1      20.951264   18.855695   22.487623 C.3        1 MOL1        -0.1693
       2    H1      21.319257   17.876128   22.155034 H          1 MOL1         0.0829
       3    H2      21.795413   19.429619   22.888075 H          1 MOL1         0.0829
       4    C2      19.669514   18.803695   23.383012 C.3        1 MOL1        -0.1768
       5    H3      19.569482   17.928409   24.034033 H          1 MOL1         0.0829
       6    H4      19.486393   19.707892   23.976711 H          1 MOL1         0.0829
       7    C3      18.881446   18.742771   22.039850 C.3        1 MOL1         0.1211
       8    H5      18.812260   17.733025   21.612430 H          1 MOL1         0.0786
       9    C4      20.043648   19.599703   21.453209 C.3        1 MOL1        -0.1768
      10    H6      20.276957   19.429113   20.396499 H          1 MOL1         0.0829
      11    H7      19.944939   20.679100   21.623369 H          1 MOL1         0.0829
      12    O1      17.619049   19.367845   22.053371 O.3        1 MOL1        -0.5515
      13    H8      17.303104   19.404912   21.124927 H          1 MOL1         0.3773
@<TRIPOS>BOND
    1     1     2    1
    2     1     3    1
    3     1     4    1
    4     4     5    1
    5     4     6    1
    6     4     7    1
    7     7     8    1
    8     1     9    1
    9     7     9    1
   10     9    10    1
   11     9    11    1
   12     7    12    1
   13    12    13    1
@<TRIPOS>SUBSTRUCTURE
       1 MOL1            1 RESIDUE      1      MOL     
@<SCITEGIC>MOL_PROPERTY
VConf Rank
SciTegic.value.IntegerValue
876

@<SCITEGIC>MOL_PROPERTY
Conf_Id
SciTegic.value.IntegerValue
22

@<SCITEGIC>MOL_PROPERTY
Delta U+W
SciTegic.value.DoubleValue
0.000

@<SCITEGIC>MOL_PROPERTY
U+W
SciTegic.value.DoubleValue
-3.131

@<SCITEGIC>MOL_PROPERTY
Grad RMS
SciTegic.value.DoubleValue
0.000000

@<SCITEGIC>MOL_PROPERTY
U
SciTegic.value.DoubleValue
-0.154

@<SCITEGIC>MOL_PROPERTY
W
SciTegic.value.DoubleValue
-2.978

@<SCITEGIC>MOL_PROPERTY
W(PB)
SciTegic.value.DoubleValue
-4.579

@<SCITEGIC>MOL_PROPERTY
W(SA)
SciTegic.value.DoubleValue
1.601

@<SCITEGIC>MOL_PROPERTY
Valence
SciTegic.value.DoubleValue
6.333

@<SCITEGIC>MOL_PROPERTY
Coulomb
SciTegic.value.DoubleValue
-7.439

@<SCITEGIC>MOL_PROPERTY
VdW
SciTegic.value.DoubleValue
0.952

@<SCITEGIC>MOL_PROPERTY
VdW6
SciTegic.value.DoubleValue
-2.120

@<SCITEGIC>MOL_PROPERTY
VdW12
SciTegic.value.DoubleValue
3.072

@<SCITEGIC>MOL_PROPERTY
Bond
SciTegic.value.DoubleValue
0.065

@<SCITEGIC>MOL_PROPERTY
Angle
SciTegic.value.DoubleValue
0.931

@<SCITEGIC>MOL_PROPERTY
Pdih
SciTegic.value.DoubleValue
5.338

@<SCITEGIC>MOL_PROPERTY
Idih
SciTegic.value.DoubleValue
0.000

@<SCITEGIC>MOL_PROPERTY
Tether
SciTegic.value.DoubleValue
0.000

@<TRIPOS>MOLECULE
guest-s16_confgen4.mol2 : confsearch ligand conformer 877
          13          13           1
SMALL
USER_CHARGES
 
@<TRIPOS>ATOM
       1    C1      19.695442   20.231545   22.424189 C.3        1 MOL1        -0.1693
       2    H1      20.294993   20.523534   23.296467 H          1 MOL1         0.0829
       3    H2      19.272002   21.135990   21.971403 H          1 MOL1         0.0829
       4    C2      18.693214   19.058295   22.681777 C.3        1 MOL1        -0.1768
       5    H3      17.882194   18.978966   21.947102 H          1 MOL1         0.0829
       6    H4      18.264077   19.002850   23.688226 H          1 MOL1         0.0829
       7    C3      19.908551   18.121625   22.408280 C.3        1 MOL1         0.1211
       8    H5      20.558340   17.968037   23.280774 H          1 MOL1         0.0786
       9    C4      20.405671   19.240514   21.444017 C.3        1 MOL1        -0.1768
      10    H6      19.971316   19.198979   20.437441 H          1 MOL1         0.0829
      11    H7      21.492531   19.344146   21.354816 H          1 MOL1         0.0829
      12    O1      19.596255   16.892640   21.794589 O.3        1 MOL1        -0.5515
      13    H8      19.147513   16.337260   22.467928 H          1 MOL1         0.3773
@<TRIPOS>BOND
    1     1     2    1
    2     1     3    1
    3     1     4    1
    4     4     5    1
    5     4     6    1
    6     4     7    1
    7     7     8    1
    8     1     9    1
    9     7     9    1
   10     9    10    1
   11     9    11    1
   12     7    12    1
   13    12    13    1
@<TRIPOS>SUBSTRUCTURE
       1 MOL1            1 RESIDUE      1      MOL     
@<SCITEGIC>MOL_PROPERTY
VConf Rank
SciTegic.value.IntegerValue
877

@<SCITEGIC>MOL_PROPERTY
Conf_Id
SciTegic.value.IntegerValue
19

@<SCITEGIC>MOL_PROPERTY
Delta U+W
SciTegic.value.DoubleValue
-0.011

@<SCITEGIC>MOL_PROPERTY
U+W
SciTegic.value.DoubleValue
-3.142

@<SCITEGIC>MOL_PROPERTY
Grad RMS
SciTegic.value.DoubleValue
0.000000

@<SCITEGIC>MOL_PROPERTY
U
SciTegic.value.DoubleValue
-0.154

@<SCITEGIC>MOL_PROPERTY
W
SciTegic.value.DoubleValue
-2.989

@<SCITEGIC>MOL_PROPERTY
W(PB)
SciTegic.value.DoubleValue
-4.588

@<SCITEGIC>MOL_PROPERTY
W(SA)
SciTegic.value.DoubleValue
1.599

@<SCITEGIC>MOL_PROPERTY
Valence
SciTegic.value.DoubleValue
6.334

@<SCITEGIC>MOL_PROPERTY
Coulomb
SciTegic.value.DoubleValue
-7.439

@<SCITEGIC>MOL_PROPERTY
VdW
SciTegic.value.DoubleValue
0.951

@<SCITEGIC>MOL_PROPERTY
VdW6
SciTegic.value.DoubleValue
-2.120

@<SCITEGIC>MOL_PROPERTY
VdW12
SciTegic.value.DoubleValue
3.072

@<SCITEGIC>MOL_PROPERTY
Bond
SciTegic.value.DoubleValue
0.065

@<SCITEGIC>MOL_PROPERTY
Angle
SciTegic.value.DoubleValue
0.930

@<SCITEGIC>MOL_PROPERTY
Pdih
SciTegic.value.DoubleValue
5.339

@<SCITEGIC>MOL_PROPERTY
Idih
SciTegic.value.DoubleValue
0.000

@<SCITEGIC>MOL_PROPERTY
Tether
SciTegic.value.DoubleValue
0.000

@<TRIPOS>MOLECULE
guest-s16_confgen4.mol2 : confsearch ligand conformer 878
          13          13           1
SMALL
USER_CHARGES
 
@<TRIPOS>ATOM
       1    C1      20.615419   18.982002   21.541285 C.3        1 MOL1        -0.1693
       2    H1      21.443948   19.540044   21.089505 H          1 MOL1         0.0829
       3    H2      20.724576   17.920709   21.282538 H          1 MOL1         0.0829
       4    C2      19.182492   19.564420   21.303628 C.3        1 MOL1        -0.1768
       5    H3      19.145571   20.656101   21.205473 H          1 MOL1         0.0829
       6    H4      18.612453   19.119075   20.480756 H          1 MOL1         0.0829
       7    C3      18.835260   19.038711   22.731384 C.3        1 MOL1         0.1211
       8    H5      18.145177   19.676934   23.298192 H          1 MOL1         0.0786
       9    C4      20.345782   19.257325   23.057924 C.3        1 MOL1        -0.1768
      10    H6      20.792353   18.546514   23.761965 H          1 MOL1         0.0829
      11    H7      20.591534   20.274914   23.385174 H          1 MOL1         0.0829
      12    O1      18.401989   17.694109   22.781041 O.3        1 MOL1        -0.5515
      13    H8      18.385135   17.428838   23.725235 H          1 MOL1         0.3773
@<TRIPOS>BOND
    1     1     2    1
    2     1     3    1
    3     1     4    1
    4     4     5    1
    5     4     6    1
    6     4     7    1
    7     7     8    1
    8     1     9    1
    9     7     9    1
   10     9    10    1
   11     9    11    1
   12     7    12    1
   13    12    13    1
@<TRIPOS>SUBSTRUCTURE
       1 MOL1            1 RESIDUE      1      MOL     
@<SCITEGIC>MOL_PROPERTY
VConf Rank
SciTegic.value.IntegerValue
878

@<SCITEGIC>MOL_PROPERTY
Conf_Id
SciTegic.value.IntegerValue
20

@<SCITEGIC>MOL_PROPERTY
Delta U+W
SciTegic.value.DoubleValue
1.030

@<SCITEGIC>MOL_PROPERTY
U+W
SciTegic.value.DoubleValue
-2.101

@<SCITEGIC>MOL_PROPERTY
Grad RMS
SciTegic.value.DoubleValue
0.000000

@<SCITEGIC>MOL_PROPERTY
U
SciTegic.value.DoubleValue
0.841

@<SCITEGIC>MOL_PROPERTY
W
SciTegic.value.DoubleValue
-2.942

@<SCITEGIC>MOL_PROPERTY
W(PB)
SciTegic.value.DoubleValue
-4.530

@<SCITEGIC>MOL_PROPERTY
W(SA)
SciTegic.value.DoubleValue
1.587

@<SCITEGIC>MOL_PROPERTY
Valence
SciTegic.value.DoubleValue
6.736

@<SCITEGIC>MOL_PROPERTY
Coulomb
SciTegic.value.DoubleValue
-7.246

@<SCITEGIC>MOL_PROPERTY
VdW
SciTegic.value.DoubleValue
1.352

@<SCITEGIC>MOL_PROPERTY
VdW6
SciTegic.value.DoubleValue
-2.500

@<SCITEGIC>MOL_PROPERTY
VdW12
SciTegic.value.DoubleValue
3.851

@<SCITEGIC>MOL_PROPERTY
Bond
SciTegic.value.DoubleValue
0.063

@<SCITEGIC>MOL_PROPERTY
Angle
SciTegic.value.DoubleValue
0.687

@<SCITEGIC>MOL_PROPERTY
Pdih
SciTegic.value.DoubleValue
5.986

@<SCITEGIC>MOL_PROPERTY
Idih
SciTegic.value.DoubleValue
0.000

@<SCITEGIC>MOL_PROPERTY
Tether
SciTegic.value.DoubleValue
0.000

@<TRIPOS>MOLECULE
guest-s16_confgen4.mol2 : confsearch ligand conformer 879
          13          13           1
SMALL
USER_CHARGES
 
@<TRIPOS>ATOM
       1    C1      19.831615   20.218130   22.022961 C.3        1 MOL1        -0.1693
       2    H1      18.900581   20.799927   22.004060 H          1 MOL1         0.0829
       3    H2      20.674539   20.901415   21.864776 H          1 MOL1         0.0829
       4    C2      19.815704   18.929573   21.135986 C.3        1 MOL1        -0.1768
       5    H3      19.214471   18.981070   20.221568 H          1 MOL1         0.0829
       6    H4      20.807929   18.535967   20.883099 H          1 MOL1         0.0829
       7    C3      19.131788   18.245260   22.357923 C.3        1 MOL1         0.1211
       8    H5      18.047117   18.410974   22.410094 H          1 MOL1         0.0786
       9    C4      19.962856   19.233110   23.231211 C.3        1 MOL1        -0.1768
      10    H6      20.987971   18.907348   23.446633 H          1 MOL1         0.0829
      11    H7      19.491581   19.552674   24.167198 H          1 MOL1         0.0829
      12    O1      19.433832   16.881628   22.534262 O.3        1 MOL1        -0.5515
      13    H8      20.408619   16.795761   22.478265 H          1 MOL1         0.3773
@<TRIPOS>BOND
    1     1     2    1
    2     1     3    1
    3     1     4    1
    4     4     5    1
    5     4     6    1
    6     4     7    1
    7     7     8    1
    8     1     9    1
    9     7     9    1
   10     9    10    1
   11     9    11    1
   12     7    12    1
   13    12    13    1
@<TRIPOS>SUBSTRUCTURE
       1 MOL1            1 RESIDUE      1      MOL     
@<SCITEGIC>MOL_PROPERTY
VConf Rank
SciTegic.value.IntegerValue
879

@<SCITEGIC>MOL_PROPERTY
Conf_Id
SciTegic.value.IntegerValue
24

@<SCITEGIC>MOL_PROPERTY
Delta U+W
SciTegic.value.DoubleValue
0.356

@<SCITEGIC>MOL_PROPERTY
U+W
SciTegic.value.DoubleValue
-2.775

@<SCITEGIC>MOL_PROPERTY
Grad RMS
SciTegic.value.DoubleValue
0.000000

@<SCITEGIC>MOL_PROPERTY
U
SciTegic.value.DoubleValue
-0.184

@<SCITEGIC>MOL_PROPERTY
W
SciTegic.value.DoubleValue
-2.591

@<SCITEGIC>MOL_PROPERTY
W(PB)
SciTegic.value.DoubleValue
-4.184

@<SCITEGIC>MOL_PROPERTY
W(SA)
SciTegic.value.DoubleValue
1.593

@<SCITEGIC>MOL_PROPERTY
Valence
SciTegic.value.DoubleValue
6.840

@<SCITEGIC>MOL_PROPERTY
Coulomb
SciTegic.value.DoubleValue
-7.916

@<SCITEGIC>MOL_PROPERTY
VdW
SciTegic.value.DoubleValue
0.893

@<SCITEGIC>MOL_PROPERTY
VdW6
SciTegic.value.DoubleValue
-2.167

@<SCITEGIC>MOL_PROPERTY
VdW12
SciTegic.value.DoubleValue
3.060

@<SCITEGIC>MOL_PROPERTY
Bond
SciTegic.value.DoubleValue
0.059

@<SCITEGIC>MOL_PROPERTY
Angle
SciTegic.value.DoubleValue
0.918

@<SCITEGIC>MOL_PROPERTY
Pdih
SciTegic.value.DoubleValue
5.862

@<SCITEGIC>MOL_PROPERTY
Idih
SciTegic.value.DoubleValue
0.000

@<SCITEGIC>MOL_PROPERTY
Tether
SciTegic.value.DoubleValue
0.000

@<TRIPOS>MOLECULE
guest-s16_confgen4.mol2 : confsearch ligand conformer 880
          13          13           1
SMALL
USER_CHARGES
 
@<TRIPOS>ATOM
       1    C1      19.722971   19.937494   22.783924 C.3        1 MOL1        -0.1693
       2    H1      19.134629   20.703012   23.303739 H          1 MOL1         0.0829
       3    H2      20.782516   20.217849   22.839253 H          1 MOL1         0.0829
       4    C2      19.220431   19.541267   21.355430 C.3        1 MOL1        -0.1768
       5    H3      18.135853   19.627161   21.216403 H          1 MOL1         0.0829
       6    H4      19.719433   20.034290   20.513626 H          1 MOL1         0.0829
       7    C3      19.707259   18.096182   21.685155 C.3        1 MOL1         0.1211
       8    H5      19.082507   17.294043   21.271942 H          1 MOL1         0.0786
       9    C4      19.413153   18.453842   23.174979 C.3        1 MOL1        -0.1768
      10    H6      18.375828   18.273117   23.482079 H          1 MOL1         0.0829
      11    H7      20.079901   18.000356   23.916939 H          1 MOL1         0.0829
      12    O1      21.065635   17.848514   21.393260 O.3        1 MOL1        -0.5515
      13    H8      21.571741   18.590845   21.783280 H          1 MOL1         0.3773
@<TRIPOS>BOND
    1     1     2    1
    2     1     3    1
    3     1     4    1
    4     4     5    1
    5     4     6    1
    6     4     7    1
    7     7     8    1
    8     1     9    1
    9     7     9    1
   10     9    10    1
   11     9    11    1
   12     7    12    1
   13    12    13    1
@<TRIPOS>SUBSTRUCTURE
       1 MOL1            1 RESIDUE      1      MOL     
@<SCITEGIC>MOL_PROPERTY
VConf Rank
SciTegic.value.IntegerValue
880

@<SCITEGIC>MOL_PROPERTY
Conf_Id
SciTegic.value.IntegerValue
44

@<SCITEGIC>MOL_PROPERTY
Delta U+W
SciTegic.value.DoubleValue
0.823

@<SCITEGIC>MOL_PROPERTY
U+W
SciTegic.value.DoubleValue
-2.308

@<SCITEGIC>MOL_PROPERTY
Grad RMS
SciTegic.value.DoubleValue
0.000000

@<SCITEGIC>MOL_PROPERTY
U
SciTegic.value.DoubleValue
0.039

@<SCITEGIC>MOL_PROPERTY
W
SciTegic.value.DoubleValue
-2.348

@<SCITEGIC>MOL_PROPERTY
W(PB)
SciTegic.value.DoubleValue
-3.918

@<SCITEGIC>MOL_PROPERTY
W(SA)
SciTegic.value.DoubleValue
1.571

@<SCITEGIC>MOL_PROPERTY
Valence
SciTegic.value.DoubleValue
7.320

@<SCITEGIC>MOL_PROPERTY
Coulomb
SciTegic.value.DoubleValue
-8.530

@<SCITEGIC>MOL_PROPERTY
VdW
SciTegic.value.DoubleValue
1.249

@<SCITEGIC>MOL_PROPERTY
VdW6
SciTegic.value.DoubleValue
-2.615

@<SCITEGIC>MOL_PROPERTY
VdW12
SciTegic.value.DoubleValue
3.864

@<SCITEGIC>MOL_PROPERTY
Bond
SciTegic.value.DoubleValue
0.056

@<SCITEGIC>MOL_PROPERTY
Angle
SciTegic.value.DoubleValue
0.694

@<SCITEGIC>MOL_PROPERTY
Pdih
SciTegic.value.DoubleValue
6.570

@<SCITEGIC>MOL_PROPERTY
Idih
SciTegic.value.DoubleValue
0.000

@<SCITEGIC>MOL_PROPERTY
Tether
SciTegic.value.DoubleValue
0.000

@<TRIPOS>MOLECULE
guest-s16_confgen4.mol2 : confsearch ligand conformer 881
          13          13           1
SMALL
USER_CHARGES
 
@<TRIPOS>ATOM
       1    C1      18.369219   19.198974   22.068385 C.3        1 MOL1        -0.1693
       2    H1      18.091093   20.212446   21.750412 H          1 MOL1         0.0829
       3    H2      17.464755   18.579664   22.095570 H          1 MOL1         0.0829
       4    C2      19.281533   19.138622   23.337774 C.3        1 MOL1        -0.1768
       5    H3      19.125487   19.925781   24.083423 H          1 MOL1         0.0829
       6    H4      19.296200   18.167361   23.847698 H          1 MOL1         0.0829
       7    C3      20.464557   19.366630   22.349183 C.3        1 MOL1         0.1211
       8    H5      20.628823   20.421824   22.091026 H          1 MOL1         0.0786
       9    C4      19.596629   18.589788   21.313611 C.3        1 MOL1        -0.1768
      10    H6      19.717298   18.890985   20.267240 H          1 MOL1         0.0829
      11    H7      19.678301   17.497580   21.378463 H          1 MOL1         0.0829
      12    O1      21.676827   18.744587   22.706967 O.3        1 MOL1        -0.5515
      13    H8      22.282005   18.823665   21.938390 H          1 MOL1         0.3773
@<TRIPOS>BOND
    1     1     2    1
    2     1     3    1
    3     1     4    1
    4     4     5    1
    5     4     6    1
    6     4     7    1
    7     7     8    1
    8     1     9    1
    9     7     9    1
   10     9    10    1
   11     9    11    1
   12     7    12    1
   13    12    13    1
@<TRIPOS>SUBSTRUCTURE
       1 MOL1            1 RESIDUE      1      MOL     
@<SCITEGIC>MOL_PROPERTY
VConf Rank
SciTegic.value.IntegerValue
881

@<SCITEGIC>MOL_PROPERTY
Conf_Id
SciTegic.value.IntegerValue
22

@<SCITEGIC>MOL_PROPERTY
Delta U+W
SciTegic.value.DoubleValue
0.000

@<SCITEGIC>MOL_PROPERTY
U+W
SciTegic.value.DoubleValue
-3.131

@<SCITEGIC>MOL_PROPERTY
Grad RMS
SciTegic.value.DoubleValue
0.000000

@<SCITEGIC>MOL_PROPERTY
U
SciTegic.value.DoubleValue
-0.154

@<SCITEGIC>MOL_PROPERTY
W
SciTegic.value.DoubleValue
-2.978

@<SCITEGIC>MOL_PROPERTY
W(PB)
SciTegic.value.DoubleValue
-4.579

@<SCITEGIC>MOL_PROPERTY
W(SA)
SciTegic.value.DoubleValue
1.601

@<SCITEGIC>MOL_PROPERTY
Valence
SciTegic.value.DoubleValue
6.333

@<SCITEGIC>MOL_PROPERTY
Coulomb
SciTegic.value.DoubleValue
-7.439

@<SCITEGIC>MOL_PROPERTY
VdW
SciTegic.value.DoubleValue
0.952

@<SCITEGIC>MOL_PROPERTY
VdW6
SciTegic.value.DoubleValue
-2.120

@<SCITEGIC>MOL_PROPERTY
VdW12
SciTegic.value.DoubleValue
3.072

@<SCITEGIC>MOL_PROPERTY
Bond
SciTegic.value.DoubleValue
0.065

@<SCITEGIC>MOL_PROPERTY
Angle
SciTegic.value.DoubleValue
0.931

@<SCITEGIC>MOL_PROPERTY
Pdih
SciTegic.value.DoubleValue
5.338

@<SCITEGIC>MOL_PROPERTY
Idih
SciTegic.value.DoubleValue
0.000

@<SCITEGIC>MOL_PROPERTY
Tether
SciTegic.value.DoubleValue
0.000

@<TRIPOS>MOLECULE
guest-s16_confgen4.mol2 : confsearch ligand conformer 882
          13          13           1
SMALL
USER_CHARGES
 
@<TRIPOS>ATOM
       1    C1      20.357347   19.429946   21.267580 C.3        1 MOL1        -0.1693
       2    H1      20.853825   20.372455   21.533609 H          1 MOL1         0.0829
       3    H2      20.577576   19.202013   20.217874 H          1 MOL1         0.0829
       4    C2      18.853500   19.340491   21.689210 C.3        1 MOL1        -0.1768
       5    H3      18.273495   18.575565   21.157915 H          1 MOL1         0.0829
       6    H4      18.292190   20.281198   21.675973 H          1 MOL1         0.0829
       7    C3      19.396086   18.891991   23.079765 C.3        1 MOL1         0.1211
       8    H5      19.693237   19.724575   23.732119 H          1 MOL1         0.0786
       9    C4      20.580153   18.262955   22.285320 C.3        1 MOL1        -0.1768
      10    H6      20.378637   17.260781   21.887044 H          1 MOL1         0.0829
      11    H7      21.546179   18.249286   22.801621 H          1 MOL1         0.0829
      12    O1      18.584146   17.975641   23.776619 O.3        1 MOL1        -0.5515
      13    H8      17.795729   18.467484   24.092360 H          1 MOL1         0.3773
@<TRIPOS>BOND
    1     1     2    1
    2     1     3    1
    3     1     4    1
    4     4     5    1
    5     4     6    1
    6     4     7    1
    7     7     8    1
    8     1     9    1
    9     7     9    1
   10     9    10    1
   11     9    11    1
   12     7    12    1
   13    12    13    1
@<TRIPOS>SUBSTRUCTURE
       1 MOL1            1 RESIDUE      1      MOL     
@<SCITEGIC>MOL_PROPERTY
VConf Rank
SciTegic.value.IntegerValue
882

@<SCITEGIC>MOL_PROPERTY
Conf_Id
SciTegic.value.IntegerValue
19

@<SCITEGIC>MOL_PROPERTY
Delta U+W
SciTegic.value.DoubleValue
-0.011

@<SCITEGIC>MOL_PROPERTY
U+W
SciTegic.value.DoubleValue
-3.142

@<SCITEGIC>MOL_PROPERTY
Grad RMS
SciTegic.value.DoubleValue
0.000000

@<SCITEGIC>MOL_PROPERTY
U
SciTegic.value.DoubleValue
-0.154

@<SCITEGIC>MOL_PROPERTY
W
SciTegic.value.DoubleValue
-2.989

@<SCITEGIC>MOL_PROPERTY
W(PB)
SciTegic.value.DoubleValue
-4.588

@<SCITEGIC>MOL_PROPERTY
W(SA)
SciTegic.value.DoubleValue
1.599

@<SCITEGIC>MOL_PROPERTY
Valence
SciTegic.value.DoubleValue
6.334

@<SCITEGIC>MOL_PROPERTY
Coulomb
SciTegic.value.DoubleValue
-7.439

@<SCITEGIC>MOL_PROPERTY
VdW
SciTegic.value.DoubleValue
0.951

@<SCITEGIC>MOL_PROPERTY
VdW6
SciTegic.value.DoubleValue
-2.120

@<SCITEGIC>MOL_PROPERTY
VdW12
SciTegic.value.DoubleValue
3.072

@<SCITEGIC>MOL_PROPERTY
Bond
SciTegic.value.DoubleValue
0.065

@<SCITEGIC>MOL_PROPERTY
Angle
SciTegic.value.DoubleValue
0.930

@<SCITEGIC>MOL_PROPERTY
Pdih
SciTegic.value.DoubleValue
5.339

@<SCITEGIC>MOL_PROPERTY
Idih
SciTegic.value.DoubleValue
0.000

@<SCITEGIC>MOL_PROPERTY
Tether
SciTegic.value.DoubleValue
0.000

@<TRIPOS>MOLECULE
guest-s16_confgen4.mol2 : confsearch ligand conformer 883
          13          13           1
SMALL
USER_CHARGES
 
@<TRIPOS>ATOM
       1    C1      18.692870   18.968953   23.072519 C.3        1 MOL1        -0.1693
       2    H1      17.634206   19.199143   23.240504 H          1 MOL1         0.0829
       3    H2      19.062627   18.378299   23.920820 H          1 MOL1         0.0829
       4    C2      19.605387   20.176556   22.675053 C.3        1 MOL1        -0.1768
       5    H3      19.096981   20.962087   22.103012 H          1 MOL1         0.0829
       6    H4      20.166446   20.644823   23.491345 H          1 MOL1         0.0829
       7    C3      20.403830   19.162115   21.798225 C.3        1 MOL1         0.1211
       8    H5      20.790084   19.575807   20.857759 H          1 MOL1         0.0786
       9    C4      19.056119   18.385956   21.666509 C.3        1 MOL1        -0.1768
      10    H6      19.134701   17.294927   21.604596 H          1 MOL1         0.0829
      11    H7      18.413837   18.737242   20.849780 H          1 MOL1         0.0829
      12    O1      21.429563   18.466690   22.478227 O.3        1 MOL1        -0.5515
      13    H8      21.735036   17.747098   21.885751 H          1 MOL1         0.3773
@<TRIPOS>BOND
    1     1     2    1
    2     1     3    1
    3     1     4    1
    4     4     5    1
    5     4     6    1
    6     4     7    1
    7     7     8    1
    8     1     9    1
    9     7     9    1
   10     9    10    1
   11     9    11    1
   12     7    12    1
   13    12    13    1
@<TRIPOS>SUBSTRUCTURE
       1 MOL1            1 RESIDUE      1      MOL     
@<SCITEGIC>MOL_PROPERTY
VConf Rank
SciTegic.value.IntegerValue
883

@<SCITEGIC>MOL_PROPERTY
Conf_Id
SciTegic.value.IntegerValue
20

@<SCITEGIC>MOL_PROPERTY
Delta U+W
SciTegic.value.DoubleValue
1.030

@<SCITEGIC>MOL_PROPERTY
U+W
SciTegic.value.DoubleValue
-2.101

@<SCITEGIC>MOL_PROPERTY
Grad RMS
SciTegic.value.DoubleValue
0.000000

@<SCITEGIC>MOL_PROPERTY
U
SciTegic.value.DoubleValue
0.841

@<SCITEGIC>MOL_PROPERTY
W
SciTegic.value.DoubleValue
-2.942

@<SCITEGIC>MOL_PROPERTY
W(PB)
SciTegic.value.DoubleValue
-4.530

@<SCITEGIC>MOL_PROPERTY
W(SA)
SciTegic.value.DoubleValue
1.587

@<SCITEGIC>MOL_PROPERTY
Valence
SciTegic.value.DoubleValue
6.736

@<SCITEGIC>MOL_PROPERTY
Coulomb
SciTegic.value.DoubleValue
-7.246

@<SCITEGIC>MOL_PROPERTY
VdW
SciTegic.value.DoubleValue
1.352

@<SCITEGIC>MOL_PROPERTY
VdW6
SciTegic.value.DoubleValue
-2.500

@<SCITEGIC>MOL_PROPERTY
VdW12
SciTegic.value.DoubleValue
3.851

@<SCITEGIC>MOL_PROPERTY
Bond
SciTegic.value.DoubleValue
0.063

@<SCITEGIC>MOL_PROPERTY
Angle
SciTegic.value.DoubleValue
0.687

@<SCITEGIC>MOL_PROPERTY
Pdih
SciTegic.value.DoubleValue
5.986

@<SCITEGIC>MOL_PROPERTY
Idih
SciTegic.value.DoubleValue
0.000

@<SCITEGIC>MOL_PROPERTY
Tether
SciTegic.value.DoubleValue
0.000

@<TRIPOS>MOLECULE
guest-s16_confgen4.mol2 : confsearch ligand conformer 884
          13          13           1
SMALL
USER_CHARGES
 
@<TRIPOS>ATOM
       1    C1      19.130940   17.847797   22.008779 C.3        1 MOL1        -0.1693
       2    H1      19.703823   16.915129   22.095986 H          1 MOL1         0.0829
       3    H2      18.094687   17.599136   21.750379 H          1 MOL1         0.0829
       4    C2      19.810581   18.953540   21.135409 C.3        1 MOL1        -0.1768
       5    H3      20.420262   18.598813   20.297106 H          1 MOL1         0.0829
       6    H4      19.128767   19.731496   20.770304 H          1 MOL1         0.0829
       7    C3      20.592510   19.323965   22.431761 C.3        1 MOL1         0.1211
       8    H5      21.478973   18.699983   22.609306 H          1 MOL1         0.0786
       9    C4      19.322025   18.846299   23.197827 C.3        1 MOL1        -0.1768
      10    H6      18.531011   19.600285   23.293699 H          1 MOL1         0.0829
      11    H7      19.500236   18.396864   24.180955 H          1 MOL1         0.0829
      12    O1      20.909212   20.687863   22.577704 O.3        1 MOL1        -0.5515
      13    H8      20.085576   21.191669   22.408819 H          1 MOL1         0.3773
@<TRIPOS>BOND
    1     1     2    1
    2     1     3    1
    3     1     4    1
    4     4     5    1
    5     4     6    1
    6     4     7    1
    7     7     8    1
    8     1     9    1
    9     7     9    1
   10     9    10    1
   11     9    11    1
   12     7    12    1
   13    12    13    1
@<TRIPOS>SUBSTRUCTURE
       1 MOL1            1 RESIDUE      1      MOL     
@<SCITEGIC>MOL_PROPERTY
VConf Rank
SciTegic.value.IntegerValue
884

@<SCITEGIC>MOL_PROPERTY
Conf_Id
SciTegic.value.IntegerValue
24

@<SCITEGIC>MOL_PROPERTY
Delta U+W
SciTegic.value.DoubleValue
0.356

@<SCITEGIC>MOL_PROPERTY
U+W
SciTegic.value.DoubleValue
-2.775

@<SCITEGIC>MOL_PROPERTY
Grad RMS
SciTegic.value.DoubleValue
0.000000

@<SCITEGIC>MOL_PROPERTY
U
SciTegic.value.DoubleValue
-0.184

@<SCITEGIC>MOL_PROPERTY
W
SciTegic.value.DoubleValue
-2.591

@<SCITEGIC>MOL_PROPERTY
W(PB)
SciTegic.value.DoubleValue
-4.184

@<SCITEGIC>MOL_PROPERTY
W(SA)
SciTegic.value.DoubleValue
1.593

@<SCITEGIC>MOL_PROPERTY
Valence
SciTegic.value.DoubleValue
6.840

@<SCITEGIC>MOL_PROPERTY
Coulomb
SciTegic.value.DoubleValue
-7.916

@<SCITEGIC>MOL_PROPERTY
VdW
SciTegic.value.DoubleValue
0.893

@<SCITEGIC>MOL_PROPERTY
VdW6
SciTegic.value.DoubleValue
-2.167

@<SCITEGIC>MOL_PROPERTY
VdW12
SciTegic.value.DoubleValue
3.060

@<SCITEGIC>MOL_PROPERTY
Bond
SciTegic.value.DoubleValue
0.059

@<SCITEGIC>MOL_PROPERTY
Angle
SciTegic.value.DoubleValue
0.918

@<SCITEGIC>MOL_PROPERTY
Pdih
SciTegic.value.DoubleValue
5.862

@<SCITEGIC>MOL_PROPERTY
Idih
SciTegic.value.DoubleValue
0.000

@<SCITEGIC>MOL_PROPERTY
Tether
SciTegic.value.DoubleValue
0.000

@<TRIPOS>MOLECULE
guest-s16_confgen4.mol2 : confsearch ligand conformer 885
          13          13           1
SMALL
USER_CHARGES
 
@<TRIPOS>ATOM
       1    C1      20.588602   18.348928   22.488181 C.3        1 MOL1        -0.1693
       2    H1      21.445485   17.773809   22.117554 H          1 MOL1         0.0829
       3    H2      20.594087   18.311055   23.584917 H          1 MOL1         0.0829
       4    C2      19.208390   18.024317   21.825023 C.3        1 MOL1        -0.1768
       5    H3      19.273336   17.696017   20.780505 H          1 MOL1         0.0829
       6    H4      18.562758   17.326396   22.369793 H          1 MOL1         0.0829
       7    C3      18.873551   19.538404   21.996535 C.3        1 MOL1         0.1211
       8    H5      18.275844   19.972862   21.185067 H          1 MOL1         0.0786
       9    C4      20.410413   19.780036   21.879647 C.3        1 MOL1        -0.1768
      10    H6      20.770079   19.882212   20.848524 H          1 MOL1         0.0829
      11    H7      20.811042   20.610318   22.471962 H          1 MOL1         0.0829
      12    O1      18.313858   19.882726   23.245500 O.3        1 MOL1        -0.5515
      13    H8      18.884412   19.470891   23.926803 H          1 MOL1         0.3773
@<TRIPOS>BOND
    1     1     2    1
    2     1     3    1
    3     1     4    1
    4     4     5    1
    5     4     6    1
    6     4     7    1
    7     7     8    1
    8     1     9    1
    9     7     9    1
   10     9    10    1
   11     9    11    1
   12     7    12    1
   13    12    13    1
@<TRIPOS>SUBSTRUCTURE
       1 MOL1            1 RESIDUE      1      MOL     
@<SCITEGIC>MOL_PROPERTY
VConf Rank
SciTegic.value.IntegerValue
885

@<SCITEGIC>MOL_PROPERTY
Conf_Id
SciTegic.value.IntegerValue
44

@<SCITEGIC>MOL_PROPERTY
Delta U+W
SciTegic.value.DoubleValue
0.823

@<SCITEGIC>MOL_PROPERTY
U+W
SciTegic.value.DoubleValue
-2.308

@<SCITEGIC>MOL_PROPERTY
Grad RMS
SciTegic.value.DoubleValue
0.000000

@<SCITEGIC>MOL_PROPERTY
U
SciTegic.value.DoubleValue
0.039

@<SCITEGIC>MOL_PROPERTY
W
SciTegic.value.DoubleValue
-2.348

@<SCITEGIC>MOL_PROPERTY
W(PB)
SciTegic.value.DoubleValue
-3.918

@<SCITEGIC>MOL_PROPERTY
W(SA)
SciTegic.value.DoubleValue
1.571

@<SCITEGIC>MOL_PROPERTY
Valence
SciTegic.value.DoubleValue
7.320

@<SCITEGIC>MOL_PROPERTY
Coulomb
SciTegic.value.DoubleValue
-8.530

@<SCITEGIC>MOL_PROPERTY
VdW
SciTegic.value.DoubleValue
1.249

@<SCITEGIC>MOL_PROPERTY
VdW6
SciTegic.value.DoubleValue
-2.615

@<SCITEGIC>MOL_PROPERTY
VdW12
SciTegic.value.DoubleValue
3.864

@<SCITEGIC>MOL_PROPERTY
Bond
SciTegic.value.DoubleValue
0.056

@<SCITEGIC>MOL_PROPERTY
Angle
SciTegic.value.DoubleValue
0.694

@<SCITEGIC>MOL_PROPERTY
Pdih
SciTegic.value.DoubleValue
6.570

@<SCITEGIC>MOL_PROPERTY
Idih
SciTegic.value.DoubleValue
0.000

@<SCITEGIC>MOL_PROPERTY
Tether
SciTegic.value.DoubleValue
0.000

@<TRIPOS>MOLECULE
guest-s16_confgen4.mol2 : confsearch ligand conformer 886
          13          13           1
SMALL
USER_CHARGES
 
@<TRIPOS>ATOM
       1    C1      18.657954   18.320328   21.800283 C.3        1 MOL1        -0.1693
       2    H1      17.675017   18.747291   22.039290 H          1 MOL1         0.0829
       3    H2      18.510174   17.416777   21.196881 H          1 MOL1         0.0829
       4    C2      19.625060   18.180028   23.021891 C.3        1 MOL1        -0.1768
       5    H3      19.155254   17.971724   23.989286 H          1 MOL1         0.0829
       6    H4      20.454198   17.477094   22.873564 H          1 MOL1         0.0829
       7    C3      19.987072   19.671579   22.751579 C.3        1 MOL1         0.1211
       8    H5      19.280404   20.386221   23.195393 H          1 MOL1         0.0786
       9    C4      19.702807   19.348319   21.253617 C.3        1 MOL1        -0.1768
      10    H6      19.300408   20.172743   20.654808 H          1 MOL1         0.0829
      11    H7      20.547735   18.900584   20.715636 H          1 MOL1         0.0829
      12    O1      21.316072   20.032156   23.048715 O.3        1 MOL1        -0.5515
      13    H8      21.460570   20.933061   22.687199 H          1 MOL1         0.3773
@<TRIPOS>BOND
    1     1     2    1
    2     1     3    1
    3     1     4    1
    4     4     5    1
    5     4     6    1
    6     4     7    1
    7     7     8    1
    8     1     9    1
    9     7     9    1
   10     9    10    1
   11     9    11    1
   12     7    12    1
   13    12    13    1
@<TRIPOS>SUBSTRUCTURE
       1 MOL1            1 RESIDUE      1      MOL     
@<SCITEGIC>MOL_PROPERTY
VConf Rank
SciTegic.value.IntegerValue
886

@<SCITEGIC>MOL_PROPERTY
Conf_Id
SciTegic.value.IntegerValue
22

@<SCITEGIC>MOL_PROPERTY
Delta U+W
SciTegic.value.DoubleValue
0.000

@<SCITEGIC>MOL_PROPERTY
U+W
SciTegic.value.DoubleValue
-3.131

@<SCITEGIC>MOL_PROPERTY
Grad RMS
SciTegic.value.DoubleValue
0.000000

@<SCITEGIC>MOL_PROPERTY
U
SciTegic.value.DoubleValue
-0.154

@<SCITEGIC>MOL_PROPERTY
W
SciTegic.value.DoubleValue
-2.978

@<SCITEGIC>MOL_PROPERTY
W(PB)
SciTegic.value.DoubleValue
-4.579

@<SCITEGIC>MOL_PROPERTY
W(SA)
SciTegic.value.DoubleValue
1.601

@<SCITEGIC>MOL_PROPERTY
Valence
SciTegic.value.DoubleValue
6.333

@<SCITEGIC>MOL_PROPERTY
Coulomb
SciTegic.value.DoubleValue
-7.439

@<SCITEGIC>MOL_PROPERTY
VdW
SciTegic.value.DoubleValue
0.952

@<SCITEGIC>MOL_PROPERTY
VdW6
SciTegic.value.DoubleValue
-2.120

@<SCITEGIC>MOL_PROPERTY
VdW12
SciTegic.value.DoubleValue
3.072

@<SCITEGIC>MOL_PROPERTY
Bond
SciTegic.value.DoubleValue
0.065

@<SCITEGIC>MOL_PROPERTY
Angle
SciTegic.value.DoubleValue
0.931

@<SCITEGIC>MOL_PROPERTY
Pdih
SciTegic.value.DoubleValue
5.338

@<SCITEGIC>MOL_PROPERTY
Idih
SciTegic.value.DoubleValue
0.000

@<SCITEGIC>MOL_PROPERTY
Tether
SciTegic.value.DoubleValue
0.000

@<TRIPOS>MOLECULE
guest-s16_confgen4.mol2 : confsearch ligand conformer 887
          13          13           1
SMALL
USER_CHARGES
 
@<TRIPOS>ATOM
       1    C1      18.602615   18.146069   22.527326 C.3        1 MOL1        -0.1693
       2    H1      18.827772   17.075689   22.431533 H          1 MOL1         0.0829
       3    H2      17.543559   18.259420   22.787881 H          1 MOL1         0.0829
       4    C2      19.117975   19.031776   21.345270 C.3        1 MOL1        -0.1768
       5    H3      18.631509   20.011600   21.261075 H          1 MOL1         0.0829
       6    H4      19.130330   18.558091   20.357524 H          1 MOL1         0.0829
       7    C3      20.476442   19.046816   22.109164 C.3        1 MOL1         0.1211
       8    H5      21.100670   18.161409   21.926251 H          1 MOL1         0.0786
       9    C4      19.616107   18.951984   23.405187 C.3        1 MOL1        -0.1768
      10    H6      19.241190   19.915089   23.773223 H          1 MOL1         0.0829
      11    H7      20.071342   18.408642   24.240353 H          1 MOL1         0.0829
      12    O1      21.231640   20.228175   21.972721 O.3        1 MOL1        -0.5515
      13    H8      21.590948   20.239620   21.059502 H          1 MOL1         0.3773
@<TRIPOS>BOND
    1     1     2    1
    2     1     3    1
    3     1     4    1
    4     4     5    1
    5     4     6    1
    6     4     7    1
    7     7     8    1
    8     1     9    1
    9     7     9    1
   10     9    10    1
   11     9    11    1
   12     7    12    1
   13    12    13    1
@<TRIPOS>SUBSTRUCTURE
       1 MOL1            1 RESIDUE      1      MOL     
@<SCITEGIC>MOL_PROPERTY
VConf Rank
SciTegic.value.IntegerValue
887

@<SCITEGIC>MOL_PROPERTY
Conf_Id
SciTegic.value.IntegerValue
19

@<SCITEGIC>MOL_PROPERTY
Delta U+W
SciTegic.value.DoubleValue
-0.011

@<SCITEGIC>MOL_PROPERTY
U+W
SciTegic.value.DoubleValue
-3.142

@<SCITEGIC>MOL_PROPERTY
Grad RMS
SciTegic.value.DoubleValue
0.000000

@<SCITEGIC>MOL_PROPERTY
U
SciTegic.value.DoubleValue
-0.154

@<SCITEGIC>MOL_PROPERTY
W
SciTegic.value.DoubleValue
-2.989

@<SCITEGIC>MOL_PROPERTY
W(PB)
SciTegic.value.DoubleValue
-4.588

@<SCITEGIC>MOL_PROPERTY
W(SA)
SciTegic.value.DoubleValue
1.599

@<SCITEGIC>MOL_PROPERTY
Valence
SciTegic.value.DoubleValue
6.334

@<SCITEGIC>MOL_PROPERTY
Coulomb
SciTegic.value.DoubleValue
-7.439

@<SCITEGIC>MOL_PROPERTY
VdW
SciTegic.value.DoubleValue
0.951

@<SCITEGIC>MOL_PROPERTY
VdW6
SciTegic.value.DoubleValue
-2.120

@<SCITEGIC>MOL_PROPERTY
VdW12
SciTegic.value.DoubleValue
3.072

@<SCITEGIC>MOL_PROPERTY
Bond
SciTegic.value.DoubleValue
0.065

@<SCITEGIC>MOL_PROPERTY
Angle
SciTegic.value.DoubleValue
0.930

@<SCITEGIC>MOL_PROPERTY
Pdih
SciTegic.value.DoubleValue
5.339

@<SCITEGIC>MOL_PROPERTY
Idih
SciTegic.value.DoubleValue
0.000

@<SCITEGIC>MOL_PROPERTY
Tether
SciTegic.value.DoubleValue
0.000

@<TRIPOS>MOLECULE
guest-s16_confgen4.mol2 : confsearch ligand conformer 888
          13          13           1
SMALL
USER_CHARGES
 
@<TRIPOS>ATOM
       1    C1      20.030403   18.047148   21.692262 C.3        1 MOL1        -0.1693
       2    H1      19.973855   16.953427   21.641738 H          1 MOL1         0.0829
       3    H2      20.641585   18.406201   20.853964 H          1 MOL1         0.0829
       4    C2      20.415061   18.653178   23.082852 C.3        1 MOL1        -0.1768
       5    H3      20.084200   18.060901   23.944539 H          1 MOL1         0.0829
       6    H4      21.470984   18.911408   23.219732 H          1 MOL1         0.0829
       7    C3      19.468271   19.839864   22.721193 C.3        1 MOL1         0.1211
       8    H5      18.916809   20.260324   23.572025 H          1 MOL1         0.0786
       9    C4      18.670362   18.799296   21.874638 C.3        1 MOL1        -0.1768
      10    H6      18.205855   19.180823   20.958656 H          1 MOL1         0.0829
      11    H7      17.916111   18.241839   22.443251 H          1 MOL1         0.0829
      12    O1      20.073308   20.877767   21.976323 O.3        1 MOL1        -0.5515
      13    H8      19.354885   21.467519   21.662928 H          1 MOL1         0.3773
@<TRIPOS>BOND
    1     1     2    1
    2     1     3    1
    3     1     4    1
    4     4     5    1
    5     4     6    1
    6     4     7    1
    7     7     8    1
    8     1     9    1
    9     7     9    1
   10     9    10    1
   11     9    11    1
   12     7    12    1
   13    12    13    1
@<TRIPOS>SUBSTRUCTURE
       1 MOL1            1 RESIDUE      1      MOL     
@<SCITEGIC>MOL_PROPERTY
VConf Rank
SciTegic.value.IntegerValue
888

@<SCITEGIC>MOL_PROPERTY
Conf_Id
SciTegic.value.IntegerValue
20

@<SCITEGIC>MOL_PROPERTY
Delta U+W
SciTegic.value.DoubleValue
1.030

@<SCITEGIC>MOL_PROPERTY
U+W
SciTegic.value.DoubleValue
-2.101

@<SCITEGIC>MOL_PROPERTY
Grad RMS
SciTegic.value.DoubleValue
0.000000

@<SCITEGIC>MOL_PROPERTY
U
SciTegic.value.DoubleValue
0.841

@<SCITEGIC>MOL_PROPERTY
W
SciTegic.value.DoubleValue
-2.942

@<SCITEGIC>MOL_PROPERTY
W(PB)
SciTegic.value.DoubleValue
-4.530

@<SCITEGIC>MOL_PROPERTY
W(SA)
SciTegic.value.DoubleValue
1.587

@<SCITEGIC>MOL_PROPERTY
Valence
SciTegic.value.DoubleValue
6.736

@<SCITEGIC>MOL_PROPERTY
Coulomb
SciTegic.value.DoubleValue
-7.246

@<SCITEGIC>MOL_PROPERTY
VdW
SciTegic.value.DoubleValue
1.352

@<SCITEGIC>MOL_PROPERTY
VdW6
SciTegic.value.DoubleValue
-2.500

@<SCITEGIC>MOL_PROPERTY
VdW12
SciTegic.value.DoubleValue
3.851

@<SCITEGIC>MOL_PROPERTY
Bond
SciTegic.value.DoubleValue
0.063

@<SCITEGIC>MOL_PROPERTY
Angle
SciTegic.value.DoubleValue
0.687

@<SCITEGIC>MOL_PROPERTY
Pdih
SciTegic.value.DoubleValue
5.986

@<SCITEGIC>MOL_PROPERTY
Idih
SciTegic.value.DoubleValue
0.000

@<SCITEGIC>MOL_PROPERTY
Tether
SciTegic.value.DoubleValue
0.000

@<TRIPOS>MOLECULE
guest-s16_confgen4.mol2 : confsearch ligand conformer 889
          13          13           1
SMALL
USER_CHARGES
 
@<TRIPOS>ATOM
       1    C1      19.357215   19.328698   23.374084 C.3        1 MOL1        -0.1693
       2    H1      18.620830   20.141051   23.433164 H          1 MOL1         0.0829
       3    H2      19.604595   19.005854   24.392414 H          1 MOL1         0.0829
       4    C2      20.571272   19.613935   22.429594 C.3        1 MOL1        -0.1768
       5    H3      20.894000   20.658674   22.361338 H          1 MOL1         0.0829
       6    H4      21.451185   18.985031   22.612949 H          1 MOL1         0.0829
       7    C3      19.638913   19.117417   21.283587 C.3        1 MOL1         0.1211
       8    H5      18.958466   19.889192   20.898814 H          1 MOL1         0.0786
       9    C4      18.997276   18.192098   22.361196 C.3        1 MOL1        -0.1768
      10    H6      19.525383   17.245396   22.529265 H          1 MOL1         0.0829
      11    H7      17.929928   17.981138   22.232534 H          1 MOL1         0.0829
      12    O1      20.284949   18.453228   20.223725 O.3        1 MOL1        -0.5515
      13    H8      20.874592   17.781126   20.625370 H          1 MOL1         0.3773
@<TRIPOS>BOND
    1     1     2    1
    2     1     3    1
    3     1     4    1
    4     4     5    1
    5     4     6    1
    6     4     7    1
    7     7     8    1
    8     1     9    1
    9     7     9    1
   10     9    10    1
   11     9    11    1
   12     7    12    1
   13    12    13    1
@<TRIPOS>SUBSTRUCTURE
       1 MOL1            1 RESIDUE      1      MOL     
@<SCITEGIC>MOL_PROPERTY
VConf Rank
SciTegic.value.IntegerValue
889

@<SCITEGIC>MOL_PROPERTY
Conf_Id
SciTegic.value.IntegerValue
24

@<SCITEGIC>MOL_PROPERTY
Delta U+W
SciTegic.value.DoubleValue
0.356

@<SCITEGIC>MOL_PROPERTY
U+W
SciTegic.value.DoubleValue
-2.775

@<SCITEGIC>MOL_PROPERTY
Grad RMS
SciTegic.value.DoubleValue
0.000000

@<SCITEGIC>MOL_PROPERTY
U
SciTegic.value.DoubleValue
-0.184

@<SCITEGIC>MOL_PROPERTY
W
SciTegic.value.DoubleValue
-2.591

@<SCITEGIC>MOL_PROPERTY
W(PB)
SciTegic.value.DoubleValue
-4.184

@<SCITEGIC>MOL_PROPERTY
W(SA)
SciTegic.value.DoubleValue
1.593

@<SCITEGIC>MOL_PROPERTY
Valence
SciTegic.value.DoubleValue
6.840

@<SCITEGIC>MOL_PROPERTY
Coulomb
SciTegic.value.DoubleValue
-7.916

@<SCITEGIC>MOL_PROPERTY
VdW
SciTegic.value.DoubleValue
0.893

@<SCITEGIC>MOL_PROPERTY
VdW6
SciTegic.value.DoubleValue
-2.167

@<SCITEGIC>MOL_PROPERTY
VdW12
SciTegic.value.DoubleValue
3.060

@<SCITEGIC>MOL_PROPERTY
Bond
SciTegic.value.DoubleValue
0.059

@<SCITEGIC>MOL_PROPERTY
Angle
SciTegic.value.DoubleValue
0.918

@<SCITEGIC>MOL_PROPERTY
Pdih
SciTegic.value.DoubleValue
5.862

@<SCITEGIC>MOL_PROPERTY
Idih
SciTegic.value.DoubleValue
0.000

@<SCITEGIC>MOL_PROPERTY
Tether
SciTegic.value.DoubleValue
0.000

@<TRIPOS>MOLECULE
guest-s16_confgen4.mol2 : confsearch ligand conformer 890
          13          13           1
SMALL
USER_CHARGES
 
@<TRIPOS>ATOM
       1    C1      18.926355   18.226048   22.560738 C.3        1 MOL1        -0.1693
       2    H1      17.887003   18.073054   22.874924 H          1 MOL1         0.0829
       3    H2      19.446281   17.260466   22.601032 H          1 MOL1         0.0829
       4    C2      19.682413   19.410288   23.250731 C.3        1 MOL1        -0.1768
       5    H3      19.039601   20.249511   23.543157 H          1 MOL1         0.0829
       6    H4      20.319131   19.146207   24.102529 H          1 MOL1         0.0829
       7    C3      20.415679   19.614775   21.888931 C.3        1 MOL1         0.1211
       8    H5      20.628038   20.660545   21.632503 H          1 MOL1         0.0786
       9    C4      19.128359   19.027688   21.231564 C.3        1 MOL1        -0.1768
      10    H6      18.349701   19.773101   21.028920 H          1 MOL1         0.0829
      11    H7      19.282818   18.430585   20.325850 H          1 MOL1         0.0829
      12    O1      21.576947   18.831042   21.718791 O.3        1 MOL1        -0.5515
      13    H8      21.329531   17.914661   21.960338 H          1 MOL1         0.3773
@<TRIPOS>BOND
    1     1     2    1
    2     1     3    1
    3     1     4    1
    4     4     5    1
    5     4     6    1
    6     4     7    1
    7     7     8    1
    8     1     9    1
    9     7     9    1
   10     9    10    1
   11     9    11    1
   12     7    12    1
   13    12    13    1
@<TRIPOS>SUBSTRUCTURE
       1 MOL1            1 RESIDUE      1      MOL     
@<SCITEGIC>MOL_PROPERTY
VConf Rank
SciTegic.value.IntegerValue
890

@<SCITEGIC>MOL_PROPERTY
Conf_Id
SciTegic.value.IntegerValue
44

@<SCITEGIC>MOL_PROPERTY
Delta U+W
SciTegic.value.DoubleValue
0.823

@<SCITEGIC>MOL_PROPERTY
U+W
SciTegic.value.DoubleValue
-2.308

@<SCITEGIC>MOL_PROPERTY
Grad RMS
SciTegic.value.DoubleValue
0.000000

@<SCITEGIC>MOL_PROPERTY
U
SciTegic.value.DoubleValue
0.039

@<SCITEGIC>MOL_PROPERTY
W
SciTegic.value.DoubleValue
-2.348

@<SCITEGIC>MOL_PROPERTY
W(PB)
SciTegic.value.DoubleValue
-3.918

@<SCITEGIC>MOL_PROPERTY
W(SA)
SciTegic.value.DoubleValue
1.571

@<SCITEGIC>MOL_PROPERTY
Valence
SciTegic.value.DoubleValue
7.320

@<SCITEGIC>MOL_PROPERTY
Coulomb
SciTegic.value.DoubleValue
-8.530

@<SCITEGIC>MOL_PROPERTY
VdW
SciTegic.value.DoubleValue
1.249

@<SCITEGIC>MOL_PROPERTY
VdW6
SciTegic.value.DoubleValue
-2.615

@<SCITEGIC>MOL_PROPERTY
VdW12
SciTegic.value.DoubleValue
3.864

@<SCITEGIC>MOL_PROPERTY
Bond
SciTegic.value.DoubleValue
0.056

@<SCITEGIC>MOL_PROPERTY
Angle
SciTegic.value.DoubleValue
0.694

@<SCITEGIC>MOL_PROPERTY
Pdih
SciTegic.value.DoubleValue
6.570

@<SCITEGIC>MOL_PROPERTY
Idih
SciTegic.value.DoubleValue
0.000

@<SCITEGIC>MOL_PROPERTY
Tether
SciTegic.value.DoubleValue
0.000

@<TRIPOS>MOLECULE
guest-s16_confgen4.mol2 : confsearch ligand conformer 891
          13          13           1
SMALL
USER_CHARGES
 
@<TRIPOS>ATOM
       1    C1      18.721003   18.128721   22.146345 C.3        1 MOL1        -0.1693
       2    H1      19.091158   17.153385   21.803868 H          1 MOL1         0.0829
       3    H2      17.648733   18.041754   22.358504 H          1 MOL1         0.0829
       4    C2      19.148771   19.340860   21.254694 C.3        1 MOL1        -0.1768
       5    H3      19.257327   19.138837   20.183544 H          1 MOL1         0.0829
       6    H4      18.539480   20.244051   21.383521 H          1 MOL1         0.0829
       7    C3      20.468418   19.328728   22.083687 C.3        1 MOL1         0.1211
       8    H5      21.210667   18.602948   21.724002 H          1 MOL1         0.0786
       9    C4      19.588914   18.804441   23.258757 C.3        1 MOL1        -0.1768
      10    H6      20.085251   18.126322   23.961592 H          1 MOL1         0.0829
      11    H7      19.074387   19.588597   23.828103 H          1 MOL1         0.0829
      12    O1      21.061291   20.589773   22.290600 O.3        1 MOL1        -0.5515
      13    H8      21.777326   20.469489   22.950925 H          1 MOL1         0.3773
@<TRIPOS>BOND
    1     1     2    1
    2     1     3    1
    3     1     4    1
    4     4     5    1
    5     4     6    1
    6     4     7    1
    7     7     8    1
    8     1     9    1
    9     7     9    1
   10     9    10    1
   11     9    11    1
   12     7    12    1
   13    12    13    1
@<TRIPOS>SUBSTRUCTURE
       1 MOL1            1 RESIDUE      1      MOL     
@<SCITEGIC>MOL_PROPERTY
VConf Rank
SciTegic.value.IntegerValue
891

@<SCITEGIC>MOL_PROPERTY
Conf_Id
SciTegic.value.IntegerValue
22

@<SCITEGIC>MOL_PROPERTY
Delta U+W
SciTegic.value.DoubleValue
0.000

@<SCITEGIC>MOL_PROPERTY
U+W
SciTegic.value.DoubleValue
-3.131

@<SCITEGIC>MOL_PROPERTY
Grad RMS
SciTegic.value.DoubleValue
0.000000

@<SCITEGIC>MOL_PROPERTY
U
SciTegic.value.DoubleValue
-0.154

@<SCITEGIC>MOL_PROPERTY
W
SciTegic.value.DoubleValue
-2.978

@<SCITEGIC>MOL_PROPERTY
W(PB)
SciTegic.value.DoubleValue
-4.579

@<SCITEGIC>MOL_PROPERTY
W(SA)
SciTegic.value.DoubleValue
1.601

@<SCITEGIC>MOL_PROPERTY
Valence
SciTegic.value.DoubleValue
6.333

@<SCITEGIC>MOL_PROPERTY
Coulomb
SciTegic.value.DoubleValue
-7.439

@<SCITEGIC>MOL_PROPERTY
VdW
SciTegic.value.DoubleValue
0.952

@<SCITEGIC>MOL_PROPERTY
VdW6
SciTegic.value.DoubleValue
-2.120

@<SCITEGIC>MOL_PROPERTY
VdW12
SciTegic.value.DoubleValue
3.072

@<SCITEGIC>MOL_PROPERTY
Bond
SciTegic.value.DoubleValue
0.065

@<SCITEGIC>MOL_PROPERTY
Angle
SciTegic.value.DoubleValue
0.931

@<SCITEGIC>MOL_PROPERTY
Pdih
SciTegic.value.DoubleValue
5.338

@<SCITEGIC>MOL_PROPERTY
Idih
SciTegic.value.DoubleValue
0.000

@<SCITEGIC>MOL_PROPERTY
Tether
SciTegic.value.DoubleValue
0.000

@<TRIPOS>MOLECULE
guest-s16_confgen4.mol2 : confsearch ligand conformer 892
          13          13           1
SMALL
USER_CHARGES
 
@<TRIPOS>ATOM
       1    C1      19.945554   19.332413   23.460815 C.3        1 MOL1        -0.1693
       2    H1      19.583418   18.664146   24.253194 H          1 MOL1         0.0829
       3    H2      20.435600   20.195431   23.927067 H          1 MOL1         0.0829
       4    C2      18.895447   19.657126   22.347636 C.3        1 MOL1        -0.1768
       5    H3      19.120113   20.551208   21.752711 H          1 MOL1         0.0829
       6    H4      17.849298   19.701536   22.669772 H          1 MOL1         0.0829
       7    C3      19.350321   18.315632   21.697498 C.3        1 MOL1         0.1211
       8    H5      18.861832   17.427021   22.120356 H          1 MOL1         0.0786
       9    C4      20.745917   18.621381   22.320132 C.3        1 MOL1        -0.1768
      10    H6      21.376550   19.286631   21.717364 H          1 MOL1         0.0829
      11    H7      21.337107   17.747949   22.616057 H          1 MOL1         0.0829
      12    O1      19.312648   18.284878   20.289597 O.3        1 MOL1        -0.5515
      13    H8      18.368294   18.249028   20.024810 H          1 MOL1         0.3773
@<TRIPOS>BOND
    1     1     2    1
    2     1     3    1
    3     1     4    1
    4     4     5    1
    5     4     6    1
    6     4     7    1
    7     7     8    1
    8     1     9    1
    9     7     9    1
   10     9    10    1
   11     9    11    1
   12     7    12    1
   13    12    13    1
@<TRIPOS>SUBSTRUCTURE
       1 MOL1            1 RESIDUE      1      MOL     
@<SCITEGIC>MOL_PROPERTY
VConf Rank
SciTegic.value.IntegerValue
892

@<SCITEGIC>MOL_PROPERTY
Conf_Id
SciTegic.value.IntegerValue
19

@<SCITEGIC>MOL_PROPERTY
Delta U+W
SciTegic.value.DoubleValue
-0.011

@<SCITEGIC>MOL_PROPERTY
U+W
SciTegic.value.DoubleValue
-3.142

@<SCITEGIC>MOL_PROPERTY
Grad RMS
SciTegic.value.DoubleValue
0.000000

@<SCITEGIC>MOL_PROPERTY
U
SciTegic.value.DoubleValue
-0.154

@<SCITEGIC>MOL_PROPERTY
W
SciTegic.value.DoubleValue
-2.989

@<SCITEGIC>MOL_PROPERTY
W(PB)
SciTegic.value.DoubleValue
-4.588

@<SCITEGIC>MOL_PROPERTY
W(SA)
SciTegic.value.DoubleValue
1.599

@<SCITEGIC>MOL_PROPERTY
Valence
SciTegic.value.DoubleValue
6.334

@<SCITEGIC>MOL_PROPERTY
Coulomb
SciTegic.value.DoubleValue
-7.439

@<SCITEGIC>MOL_PROPERTY
VdW
SciTegic.value.DoubleValue
0.951

@<SCITEGIC>MOL_PROPERTY
VdW6
SciTegic.value.DoubleValue
-2.120

@<SCITEGIC>MOL_PROPERTY
VdW12
SciTegic.value.DoubleValue
3.072

@<SCITEGIC>MOL_PROPERTY
Bond
SciTegic.value.DoubleValue
0.065

@<SCITEGIC>MOL_PROPERTY
Angle
SciTegic.value.DoubleValue
0.930

@<SCITEGIC>MOL_PROPERTY
Pdih
SciTegic.value.DoubleValue
5.339

@<SCITEGIC>MOL_PROPERTY
Idih
SciTegic.value.DoubleValue
0.000

@<SCITEGIC>MOL_PROPERTY
Tether
SciTegic.value.DoubleValue
0.000

@<TRIPOS>MOLECULE
guest-s16_confgen4.mol2 : confsearch ligand conformer 893
          13          13           1
SMALL
USER_CHARGES
 
@<TRIPOS>ATOM
       1    C1      20.586332   19.811314   22.096283 C.3        1 MOL1        -0.1693
       2    H1      20.886792   20.842131   21.874656 H          1 MOL1         0.0829
       3    H2      21.488801   19.215566   22.285601 H          1 MOL1         0.0829
       4    C2      19.575258   19.158665   21.095909 C.3        1 MOL1        -0.1768
       5    H3      18.879751   19.864780   20.626401 H          1 MOL1         0.0829
       6    H4      20.011433   18.525149   20.315651 H          1 MOL1         0.0829
       7    C3      18.986512   18.406123   22.329801 C.3        1 MOL1         0.1211
       8    H5      17.899211   18.258935   22.299372 H          1 MOL1         0.0786
       9    C4      19.456519   19.638032   23.165019 C.3        1 MOL1        -0.1768
      10    H6      19.790270   19.426001   24.186784 H          1 MOL1         0.0829
      11    H7      18.732273   20.461072   23.197373 H          1 MOL1         0.0829
      12    O1      19.630837   17.188576   22.646928 O.3        1 MOL1        -0.5515
      13    H8      19.297699   16.903351   23.524322 H          1 MOL1         0.3773
@<TRIPOS>BOND
    1     1     2    1
    2     1     3    1
    3     1     4    1
    4     4     5    1
    5     4     6    1
    6     4     7    1
    7     7     8    1
    8     1     9    1
    9     7     9    1
   10     9    10    1
   11     9    11    1
   12     7    12    1
   13    12    13    1
@<TRIPOS>SUBSTRUCTURE
       1 MOL1            1 RESIDUE      1      MOL     
@<SCITEGIC>MOL_PROPERTY
VConf Rank
SciTegic.value.IntegerValue
893

@<SCITEGIC>MOL_PROPERTY
Conf_Id
SciTegic.value.IntegerValue
20

@<SCITEGIC>MOL_PROPERTY
Delta U+W
SciTegic.value.DoubleValue
1.030

@<SCITEGIC>MOL_PROPERTY
U+W
SciTegic.value.DoubleValue
-2.101

@<SCITEGIC>MOL_PROPERTY
Grad RMS
SciTegic.value.DoubleValue
0.000000

@<SCITEGIC>MOL_PROPERTY
U
SciTegic.value.DoubleValue
0.841

@<SCITEGIC>MOL_PROPERTY
W
SciTegic.value.DoubleValue
-2.942

@<SCITEGIC>MOL_PROPERTY
W(PB)
SciTegic.value.DoubleValue
-4.530

@<SCITEGIC>MOL_PROPERTY
W(SA)
SciTegic.value.DoubleValue
1.587

@<SCITEGIC>MOL_PROPERTY
Valence
SciTegic.value.DoubleValue
6.736

@<SCITEGIC>MOL_PROPERTY
Coulomb
SciTegic.value.DoubleValue
-7.246

@<SCITEGIC>MOL_PROPERTY
VdW
SciTegic.value.DoubleValue
1.352

@<SCITEGIC>MOL_PROPERTY
VdW6
SciTegic.value.DoubleValue
-2.500

@<SCITEGIC>MOL_PROPERTY
VdW12
SciTegic.value.DoubleValue
3.851

@<SCITEGIC>MOL_PROPERTY
Bond
SciTegic.value.DoubleValue
0.063

@<SCITEGIC>MOL_PROPERTY
Angle
SciTegic.value.DoubleValue
0.687

@<SCITEGIC>MOL_PROPERTY
Pdih
SciTegic.value.DoubleValue
5.986

@<SCITEGIC>MOL_PROPERTY
Idih
SciTegic.value.DoubleValue
0.000

@<SCITEGIC>MOL_PROPERTY
Tether
SciTegic.value.DoubleValue
0.000

@<TRIPOS>MOLECULE
guest-s16_confgen4.mol2 : confsearch ligand conformer 894
          13          13           1
SMALL
USER_CHARGES
 
@<TRIPOS>ATOM
       1    C1      19.016433   17.901343   22.264400 C.3        1 MOL1        -0.1693
       2    H1      18.555419   17.547284   21.332854 H          1 MOL1         0.0829
       3    H2      18.724630   17.226384   23.077852 H          1 MOL1         0.0829
       4    C2      18.837621   19.430389   22.542608 C.3        1 MOL1        -0.1768
       5    H3      17.906854   19.880733   22.180453 H          1 MOL1         0.0829
       6    H4      18.987914   19.725766   23.588338 H          1 MOL1         0.0829
       7    C3      20.082504   19.618118   21.623816 C.3        1 MOL1         0.1211
       8    H5      19.845551   19.626938   20.551217 H          1 MOL1         0.0786
       9    C4      20.542643   18.227380   22.156051 C.3        1 MOL1        -0.1768
      10    H6      21.074030   18.253868   23.115381 H          1 MOL1         0.0829
      11    H7      21.117672   17.615285   21.452508 H          1 MOL1         0.0829
      12    O1      20.920660   20.699584   21.955092 O.3        1 MOL1        -0.5515
      13    H8      21.096671   20.639765   22.917465 H          1 MOL1         0.3773
@<TRIPOS>BOND
    1     1     2    1
    2     1     3    1
    3     1     4    1
    4     4     5    1
    5     4     6    1
    6     4     7    1
    7     7     8    1
    8     1     9    1
    9     7     9    1
   10     9    10    1
   11     9    11    1
   12     7    12    1
   13    12    13    1
@<TRIPOS>SUBSTRUCTURE
       1 MOL1            1 RESIDUE      1      MOL     
@<SCITEGIC>MOL_PROPERTY
VConf Rank
SciTegic.value.IntegerValue
894

@<SCITEGIC>MOL_PROPERTY
Conf_Id
SciTegic.value.IntegerValue
24

@<SCITEGIC>MOL_PROPERTY
Delta U+W
SciTegic.value.DoubleValue
0.356

@<SCITEGIC>MOL_PROPERTY
U+W
SciTegic.value.DoubleValue
-2.775

@<SCITEGIC>MOL_PROPERTY
Grad RMS
SciTegic.value.DoubleValue
0.000000

@<SCITEGIC>MOL_PROPERTY
U
SciTegic.value.DoubleValue
-0.184

@<SCITEGIC>MOL_PROPERTY
W
SciTegic.value.DoubleValue
-2.591

@<SCITEGIC>MOL_PROPERTY
W(PB)
SciTegic.value.DoubleValue
-4.184

@<SCITEGIC>MOL_PROPERTY
W(SA)
SciTegic.value.DoubleValue
1.593

@<SCITEGIC>MOL_PROPERTY
Valence
SciTegic.value.DoubleValue
6.840

@<SCITEGIC>MOL_PROPERTY
Coulomb
SciTegic.value.DoubleValue
-7.916

@<SCITEGIC>MOL_PROPERTY
VdW
SciTegic.value.DoubleValue
0.893

@<SCITEGIC>MOL_PROPERTY
VdW6
SciTegic.value.DoubleValue
-2.167

@<SCITEGIC>MOL_PROPERTY
VdW12
SciTegic.value.DoubleValue
3.060

@<SCITEGIC>MOL_PROPERTY
Bond
SciTegic.value.DoubleValue
0.059

@<SCITEGIC>MOL_PROPERTY
Angle
SciTegic.value.DoubleValue
0.918

@<SCITEGIC>MOL_PROPERTY
Pdih
SciTegic.value.DoubleValue
5.862

@<SCITEGIC>MOL_PROPERTY
Idih
SciTegic.value.DoubleValue
0.000

@<SCITEGIC>MOL_PROPERTY
Tether
SciTegic.value.DoubleValue
0.000

@<TRIPOS>MOLECULE
guest-s16_confgen4.mol2 : confsearch ligand conformer 895
          13          13           1
SMALL
USER_CHARGES
 
@<TRIPOS>ATOM
       1    C1      20.302915   19.532567   22.969820 C.3        1 MOL1        -0.1693
       2    H1      21.058868   20.310070   23.132291 H          1 MOL1         0.0829
       3    H2      20.010430   19.124308   23.945563 H          1 MOL1         0.0829
       4    C2      20.647625   18.459497   21.883619 C.3        1 MOL1        -0.1768
       5    H3      21.279361   18.828370   21.066394 H          1 MOL1         0.0829
       6    H4      21.069401   17.517515   22.251699 H          1 MOL1         0.0829
       7    C3      19.123537   18.440139   21.550793 C.3        1 MOL1         0.1211
       8    H5      18.885675   18.300091   20.488580 H          1 MOL1         0.0786
       9    C4      19.109707   19.923149   22.035028 C.3        1 MOL1        -0.1768
      10    H6      19.364369   20.650889   21.254928 H          1 MOL1         0.0829
      11    H7      18.192858   20.255153   22.534898 H          1 MOL1         0.0829
      12    O1      18.357400   17.553732   22.337588 O.3        1 MOL1        -0.5515
      13    H8      18.609712   17.722492   23.268809 H          1 MOL1         0.3773
@<TRIPOS>BOND
    1     1     2    1
    2     1     3    1
    3     1     4    1
    4     4     5    1
    5     4     6    1
    6     4     7    1
    7     7     8    1
    8     1     9    1
    9     7     9    1
   10     9    10    1
   11     9    11    1
   12     7    12    1
   13    12    13    1
@<TRIPOS>SUBSTRUCTURE
       1 MOL1            1 RESIDUE      1      MOL     
@<SCITEGIC>MOL_PROPERTY
VConf Rank
SciTegic.value.IntegerValue
895

@<SCITEGIC>MOL_PROPERTY
Conf_Id
SciTegic.value.IntegerValue
44

@<SCITEGIC>MOL_PROPERTY
Delta U+W
SciTegic.value.DoubleValue
0.823

@<SCITEGIC>MOL_PROPERTY
U+W
SciTegic.value.DoubleValue
-2.308

@<SCITEGIC>MOL_PROPERTY
Grad RMS
SciTegic.value.DoubleValue
0.000000

@<SCITEGIC>MOL_PROPERTY
U
SciTegic.value.DoubleValue
0.039

@<SCITEGIC>MOL_PROPERTY
W
SciTegic.value.DoubleValue
-2.348

@<SCITEGIC>MOL_PROPERTY
W(PB)
SciTegic.value.DoubleValue
-3.918

@<SCITEGIC>MOL_PROPERTY
W(SA)
SciTegic.value.DoubleValue
1.571

@<SCITEGIC>MOL_PROPERTY
Valence
SciTegic.value.DoubleValue
7.320

@<SCITEGIC>MOL_PROPERTY
Coulomb
SciTegic.value.DoubleValue
-8.530

@<SCITEGIC>MOL_PROPERTY
VdW
SciTegic.value.DoubleValue
1.249

@<SCITEGIC>MOL_PROPERTY
VdW6
SciTegic.value.DoubleValue
-2.615

@<SCITEGIC>MOL_PROPERTY
VdW12
SciTegic.value.DoubleValue
3.864

@<SCITEGIC>MOL_PROPERTY
Bond
SciTegic.value.DoubleValue
0.056

@<SCITEGIC>MOL_PROPERTY
Angle
SciTegic.value.DoubleValue
0.694

@<SCITEGIC>MOL_PROPERTY
Pdih
SciTegic.value.DoubleValue
6.570

@<SCITEGIC>MOL_PROPERTY
Idih
SciTegic.value.DoubleValue
0.000

@<SCITEGIC>MOL_PROPERTY
Tether
SciTegic.value.DoubleValue
0.000

@<TRIPOS>MOLECULE
guest-s16_confgen4.mol2 : confsearch ligand conformer 896
          13          13           1
SMALL
USER_CHARGES
 
@<TRIPOS>ATOM
       1    C1      20.185300   20.211992   22.574010 C.3        1 MOL1        -0.1693
       2    H1      20.727752   20.198639   23.528554 H          1 MOL1         0.0829
       3    H2      20.278389   21.211151   22.132022 H          1 MOL1         0.0829
       4    C2      18.738576   19.619910   22.635127 C.3        1 MOL1        -0.1768
       5    H3      18.197747   19.760705   23.577274 H          1 MOL1         0.0829
       6    H4      18.085020   19.916341   21.805321 H          1 MOL1         0.0829
       7    C3      19.428553   18.234761   22.450348 C.3        1 MOL1         0.1211
       8    H5      19.811787   17.802741   23.384988 H          1 MOL1         0.0786
       9    C4      20.500442   19.008842   21.625093 C.3        1 MOL1        -0.1768
      10    H6      21.519957   18.610808   21.673344 H          1 MOL1         0.0829
      11    H7      20.234799   19.173144   20.573317 H          1 MOL1         0.0829
      12    O1      18.683442   17.282391   21.727612 O.3        1 MOL1        -0.5515
      13    H8      19.280962   16.526482   21.541132 H          1 MOL1         0.3773
@<TRIPOS>BOND
    1     1     2    1
    2     1     3    1
    3     1     4    1
    4     4     5    1
    5     4     6    1
    6     4     7    1
    7     7     8    1
    8     1     9    1
    9     7     9    1
   10     9    10    1
   11     9    11    1
   12     7    12    1
   13    12    13    1
@<TRIPOS>SUBSTRUCTURE
       1 MOL1            1 RESIDUE      1      MOL     
@<SCITEGIC>MOL_PROPERTY
VConf Rank
SciTegic.value.IntegerValue
896

@<SCITEGIC>MOL_PROPERTY
Conf_Id
SciTegic.value.IntegerValue
22

@<SCITEGIC>MOL_PROPERTY
Delta U+W
SciTegic.value.DoubleValue
0.000

@<SCITEGIC>MOL_PROPERTY
U+W
SciTegic.value.DoubleValue
-3.131

@<SCITEGIC>MOL_PROPERTY
Grad RMS
SciTegic.value.DoubleValue
0.000000

@<SCITEGIC>MOL_PROPERTY
U
SciTegic.value.DoubleValue
-0.154

@<SCITEGIC>MOL_PROPERTY
W
SciTegic.value.DoubleValue
-2.978

@<SCITEGIC>MOL_PROPERTY
W(PB)
SciTegic.value.DoubleValue
-4.579

@<SCITEGIC>MOL_PROPERTY
W(SA)
SciTegic.value.DoubleValue
1.601

@<SCITEGIC>MOL_PROPERTY
Valence
SciTegic.value.DoubleValue
6.333

@<SCITEGIC>MOL_PROPERTY
Coulomb
SciTegic.value.DoubleValue
-7.439

@<SCITEGIC>MOL_PROPERTY
VdW
SciTegic.value.DoubleValue
0.952

@<SCITEGIC>MOL_PROPERTY
VdW6
SciTegic.value.DoubleValue
-2.120

@<SCITEGIC>MOL_PROPERTY
VdW12
SciTegic.value.DoubleValue
3.072

@<SCITEGIC>MOL_PROPERTY
Bond
SciTegic.value.DoubleValue
0.065

@<SCITEGIC>MOL_PROPERTY
Angle
SciTegic.value.DoubleValue
0.931

@<SCITEGIC>MOL_PROPERTY
Pdih
SciTegic.value.DoubleValue
5.338

@<SCITEGIC>MOL_PROPERTY
Idih
SciTegic.value.DoubleValue
0.000

@<SCITEGIC>MOL_PROPERTY
Tether
SciTegic.value.DoubleValue
0.000

@<TRIPOS>MOLECULE
guest-s16_confgen4.mol2 : confsearch ligand conformer 897
          13          13           1
SMALL
USER_CHARGES
 
@<TRIPOS>ATOM
       1    C1      19.491033   17.624763   22.073648 C.3        1 MOL1        -0.1693
       2    H1      19.446320   17.061783   23.015263 H          1 MOL1         0.0829
       3    H2      19.457374   16.914602   21.238856 H          1 MOL1         0.0829
       4    C2      20.619561   18.706323   22.010546 C.3        1 MOL1        -0.1768
       5    H3      20.884065   19.033832   20.997349 H          1 MOL1         0.0829
       6    H4      21.539907   18.475460   22.558121 H          1 MOL1         0.0829
       7    C3      19.604867   19.632754   22.746288 C.3        1 MOL1         0.1211
       8    H5      19.581909   19.492547   23.835727 H          1 MOL1         0.0786
       9    C4      18.502769   18.834350   21.986831 C.3        1 MOL1        -0.1768
      10    H6      18.302190   19.192097   20.969299 H          1 MOL1         0.0829
      11    H7      17.549546   18.718930   22.514092 H          1 MOL1         0.0829
      12    O1      19.690837   21.000396   22.419620 O.3        1 MOL1        -0.5515
      13    H8      20.511720   21.346544   22.831368 H          1 MOL1         0.3773
@<TRIPOS>BOND
    1     1     2    1
    2     1     3    1
    3     1     4    1
    4     4     5    1
    5     4     6    1
    6     4     7    1
    7     7     8    1
    8     1     9    1
    9     7     9    1
   10     9    10    1
   11     9    11    1
   12     7    12    1
   13    12    13    1
@<TRIPOS>SUBSTRUCTURE
       1 MOL1            1 RESIDUE      1      MOL     
@<SCITEGIC>MOL_PROPERTY
VConf Rank
SciTegic.value.IntegerValue
897

@<SCITEGIC>MOL_PROPERTY
Conf_Id
SciTegic.value.IntegerValue
19

@<SCITEGIC>MOL_PROPERTY
Delta U+W
SciTegic.value.DoubleValue
-0.011

@<SCITEGIC>MOL_PROPERTY
U+W
SciTegic.value.DoubleValue
-3.142

@<SCITEGIC>MOL_PROPERTY
Grad RMS
SciTegic.value.DoubleValue
0.000000

@<SCITEGIC>MOL_PROPERTY
U
SciTegic.value.DoubleValue
-0.154

@<SCITEGIC>MOL_PROPERTY
W
SciTegic.value.DoubleValue
-2.989

@<SCITEGIC>MOL_PROPERTY
W(PB)
SciTegic.value.DoubleValue
-4.588

@<SCITEGIC>MOL_PROPERTY
W(SA)
SciTegic.value.DoubleValue
1.599

@<SCITEGIC>MOL_PROPERTY
Valence
SciTegic.value.DoubleValue
6.334

@<SCITEGIC>MOL_PROPERTY
Coulomb
SciTegic.value.DoubleValue
-7.439

@<SCITEGIC>MOL_PROPERTY
VdW
SciTegic.value.DoubleValue
0.951

@<SCITEGIC>MOL_PROPERTY
VdW6
SciTegic.value.DoubleValue
-2.120

@<SCITEGIC>MOL_PROPERTY
VdW12
SciTegic.value.DoubleValue
3.072

@<SCITEGIC>MOL_PROPERTY
Bond
SciTegic.value.DoubleValue
0.065

@<SCITEGIC>MOL_PROPERTY
Angle
SciTegic.value.DoubleValue
0.930

@<SCITEGIC>MOL_PROPERTY
Pdih
SciTegic.value.DoubleValue
5.339

@<SCITEGIC>MOL_PROPERTY
Idih
SciTegic.value.DoubleValue
0.000

@<SCITEGIC>MOL_PROPERTY
Tether
SciTegic.value.DoubleValue
0.000

@<TRIPOS>MOLECULE
guest-s16_confgen4.mol2 : confsearch ligand conformer 898
          13          13           1
SMALL
USER_CHARGES
 
@<TRIPOS>ATOM
       1    C1      19.153806   20.083386   22.758320 C.3        1 MOL1        -0.1693
       2    H1      18.488365   20.935299   22.575537 H          1 MOL1         0.0829
       3    H2      19.495746   20.122332   23.800801 H          1 MOL1         0.0829
       4    C2      20.293378   19.862291   21.708813 C.3        1 MOL1        -0.1768
       5    H3      20.040252   20.177054   20.689196 H          1 MOL1         0.0829
       6    H4      21.274336   20.274744   21.969576 H          1 MOL1         0.0829
       7    C3      20.108639   18.335008   21.970928 C.3        1 MOL1         0.1211
       8    H5      20.246703   17.699476   21.086705 H          1 MOL1         0.0786
       9    C4      18.623398   18.684478   22.299599 C.3        1 MOL1        -0.1768
      10    H6      18.146824   18.073793   23.074384 H          1 MOL1         0.0829
      11    H7      17.964709   18.713941   21.423109 H          1 MOL1         0.0829
      12    O1      20.855969   17.823097   23.056097 O.3        1 MOL1        -0.5515
      13    H8      20.529561   16.914796   23.231035 H          1 MOL1         0.3773
@<TRIPOS>BOND
    1     1     2    1
    2     1     3    1
    3     1     4    1
    4     4     5    1
    5     4     6    1
    6     4     7    1
    7     7     8    1
    8     1     9    1
    9     7     9    1
   10     9    10    1
   11     9    11    1
   12     7    12    1
   13    12    13    1
@<TRIPOS>SUBSTRUCTURE
       1 MOL1            1 RESIDUE      1      MOL     
@<SCITEGIC>MOL_PROPERTY
VConf Rank
SciTegic.value.IntegerValue
898

@<SCITEGIC>MOL_PROPERTY
Conf_Id
SciTegic.value.IntegerValue
20

@<SCITEGIC>MOL_PROPERTY
Delta U+W
SciTegic.value.DoubleValue
1.030

@<SCITEGIC>MOL_PROPERTY
U+W
SciTegic.value.DoubleValue
-2.101

@<SCITEGIC>MOL_PROPERTY
Grad RMS
SciTegic.value.DoubleValue
0.000000

@<SCITEGIC>MOL_PROPERTY
U
SciTegic.value.DoubleValue
0.841

@<SCITEGIC>MOL_PROPERTY
W
SciTegic.value.DoubleValue
-2.942

@<SCITEGIC>MOL_PROPERTY
W(PB)
SciTegic.value.DoubleValue
-4.530

@<SCITEGIC>MOL_PROPERTY
W(SA)
SciTegic.value.DoubleValue
1.587

@<SCITEGIC>MOL_PROPERTY
Valence
SciTegic.value.DoubleValue
6.736

@<SCITEGIC>MOL_PROPERTY
Coulomb
SciTegic.value.DoubleValue
-7.246

@<SCITEGIC>MOL_PROPERTY
VdW
SciTegic.value.DoubleValue
1.352

@<SCITEGIC>MOL_PROPERTY
VdW6
SciTegic.value.DoubleValue
-2.500

@<SCITEGIC>MOL_PROPERTY
VdW12
SciTegic.value.DoubleValue
3.851

@<SCITEGIC>MOL_PROPERTY
Bond
SciTegic.value.DoubleValue
0.063

@<SCITEGIC>MOL_PROPERTY
Angle
SciTegic.value.DoubleValue
0.687

@<SCITEGIC>MOL_PROPERTY
Pdih
SciTegic.value.DoubleValue
5.986

@<SCITEGIC>MOL_PROPERTY
Idih
SciTegic.value.DoubleValue
0.000

@<SCITEGIC>MOL_PROPERTY
Tether
SciTegic.value.DoubleValue
0.000

@<TRIPOS>MOLECULE
guest-s16_confgen4.mol2 : confsearch ligand conformer 899
          13          13           1
SMALL
USER_CHARGES
 
@<TRIPOS>ATOM
       1    C1      19.898864   19.953540   22.999040 C.3        1 MOL1        -0.1693
       2    H1      20.520581   19.815678   23.893540 H          1 MOL1         0.0829
       3    H2      19.527589   20.985247   22.986511 H          1 MOL1         0.0829
       4    C2      18.829480   18.835494   22.767198 C.3        1 MOL1        -0.1768
       5    H3      18.407409   18.377642   23.668596 H          1 MOL1         0.0829
       6    H4      18.007316   19.120274   22.099115 H          1 MOL1         0.0829
       7    C3      19.984539   18.043518   22.083261 C.3        1 MOL1         0.1211
       8    H5      20.627765   17.499104   22.787936 H          1 MOL1         0.0786
       9    C4      20.542626   19.438669   21.669440 C.3        1 MOL1        -0.1768
      10    H6      20.103371   19.858266   20.755995 H          1 MOL1         0.0829
      11    H7      21.633522   19.513510   21.601349 H          1 MOL1         0.0829
      12    O1      19.596800   17.207685   21.018902 O.3        1 MOL1        -0.5515
      13    H8      19.028743   17.744212   20.427152 H          1 MOL1         0.3773
@<TRIPOS>BOND
    1     1     2    1
    2     1     3    1
    3     1     4    1
    4     4     5    1
    5     4     6    1
    6     4     7    1
    7     7     8    1
    8     1     9    1
    9     7     9    1
   10     9    10    1
   11     9    11    1
   12     7    12    1
   13    12    13    1
@<TRIPOS>SUBSTRUCTURE
       1 MOL1            1 RESIDUE      1      MOL     
@<SCITEGIC>MOL_PROPERTY
VConf Rank
SciTegic.value.IntegerValue
899

@<SCITEGIC>MOL_PROPERTY
Conf_Id
SciTegic.value.IntegerValue
24

@<SCITEGIC>MOL_PROPERTY
Delta U+W
SciTegic.value.DoubleValue
0.356

@<SCITEGIC>MOL_PROPERTY
U+W
SciTegic.value.DoubleValue
-2.775

@<SCITEGIC>MOL_PROPERTY
Grad RMS
SciTegic.value.DoubleValue
0.000000

@<SCITEGIC>MOL_PROPERTY
U
SciTegic.value.DoubleValue
-0.184

@<SCITEGIC>MOL_PROPERTY
W
SciTegic.value.DoubleValue
-2.591

@<SCITEGIC>MOL_PROPERTY
W(PB)
SciTegic.value.DoubleValue
-4.184

@<SCITEGIC>MOL_PROPERTY
W(SA)
SciTegic.value.DoubleValue
1.593

@<SCITEGIC>MOL_PROPERTY
Valence
SciTegic.value.DoubleValue
6.840

@<SCITEGIC>MOL_PROPERTY
Coulomb
SciTegic.value.DoubleValue
-7.916

@<SCITEGIC>MOL_PROPERTY
VdW
SciTegic.value.DoubleValue
0.893

@<SCITEGIC>MOL_PROPERTY
VdW6
SciTegic.value.DoubleValue
-2.167

@<SCITEGIC>MOL_PROPERTY
VdW12
SciTegic.value.DoubleValue
3.060

@<SCITEGIC>MOL_PROPERTY
Bond
SciTegic.value.DoubleValue
0.059

@<SCITEGIC>MOL_PROPERTY
Angle
SciTegic.value.DoubleValue
0.918

@<SCITEGIC>MOL_PROPERTY
Pdih
SciTegic.value.DoubleValue
5.862

@<SCITEGIC>MOL_PROPERTY
Idih
SciTegic.value.DoubleValue
0.000

@<SCITEGIC>MOL_PROPERTY
Tether
SciTegic.value.DoubleValue
0.000

@<TRIPOS>MOLECULE
guest-s16_confgen4.mol2 : confsearch ligand conformer 900
          13          13           1
SMALL
USER_CHARGES
 
@<TRIPOS>ATOM
       1    C1      18.689504   18.462183   22.217511 C.3        1 MOL1        -0.1693
       2    H1      17.602723   18.599529   22.266674 H          1 MOL1         0.0829
       3    H2      18.900141   17.387512   22.146735 H          1 MOL1         0.0829
       4    C2      19.525347   19.227268   23.297395 C.3        1 MOL1        -0.1768
       5    H3      19.078655   20.171803   23.631064 H          1 MOL1         0.0829
       6    H4      19.817760   18.649126   24.181111 H          1 MOL1         0.0829
       7    C3      20.620509   19.394301   22.198890 C.3        1 MOL1         0.1211
       8    H5      21.166752   20.345557   22.233801 H          1 MOL1         0.0786
       9    C4      19.444976   19.351348   21.174063 C.3        1 MOL1        -0.1768
      10    H6      18.978577   20.326304   20.987122 H          1 MOL1         0.0829
      11    H7      19.667429   18.881207   20.209600 H          1 MOL1         0.0829
      12    O1      21.529696   18.319288   22.101660 O.3        1 MOL1        -0.5515
      13    H8      20.989789   17.502545   22.074384 H          1 MOL1         0.3773
@<TRIPOS>BOND
    1     1     2    1
    2     1     3    1
    3     1     4    1
    4     4     5    1
    5     4     6    1
    6     4     7    1
    7     7     8    1
    8     1     9    1
    9     7     9    1
   10     9    10    1
   11     9    11    1
   12     7    12    1
   13    12    13    1
@<TRIPOS>SUBSTRUCTURE
       1 MOL1            1 RESIDUE      1      MOL     
@<SCITEGIC>MOL_PROPERTY
VConf Rank
SciTegic.value.IntegerValue
900

@<SCITEGIC>MOL_PROPERTY
Conf_Id
SciTegic.value.IntegerValue
44

@<SCITEGIC>MOL_PROPERTY
Delta U+W
SciTegic.value.DoubleValue
0.823

@<SCITEGIC>MOL_PROPERTY
U+W
SciTegic.value.DoubleValue
-2.308

@<SCITEGIC>MOL_PROPERTY
Grad RMS
SciTegic.value.DoubleValue
0.000000

@<SCITEGIC>MOL_PROPERTY
U
SciTegic.value.DoubleValue
0.039

@<SCITEGIC>MOL_PROPERTY
W
SciTegic.value.DoubleValue
-2.348

@<SCITEGIC>MOL_PROPERTY
W(PB)
SciTegic.value.DoubleValue
-3.918

@<SCITEGIC>MOL_PROPERTY
W(SA)
SciTegic.value.DoubleValue
1.571

@<SCITEGIC>MOL_PROPERTY
Valence
SciTegic.value.DoubleValue
7.320

@<SCITEGIC>MOL_PROPERTY
Coulomb
SciTegic.value.DoubleValue
-8.530

@<SCITEGIC>MOL_PROPERTY
VdW
SciTegic.value.DoubleValue
1.249

@<SCITEGIC>MOL_PROPERTY
VdW6
SciTegic.value.DoubleValue
-2.615

@<SCITEGIC>MOL_PROPERTY
VdW12
SciTegic.value.DoubleValue
3.864

@<SCITEGIC>MOL_PROPERTY
Bond
SciTegic.value.DoubleValue
0.056

@<SCITEGIC>MOL_PROPERTY
Angle
SciTegic.value.DoubleValue
0.694

@<SCITEGIC>MOL_PROPERTY
Pdih
SciTegic.value.DoubleValue
6.570

@<SCITEGIC>MOL_PROPERTY
Idih
SciTegic.value.DoubleValue
0.000

@<SCITEGIC>MOL_PROPERTY
Tether
SciTegic.value.DoubleValue
0.000

@<TRIPOS>MOLECULE
guest-s16_confgen4.mol2 : confsearch ligand conformer 901
          13          13           1
SMALL
USER_CHARGES
 
@<TRIPOS>ATOM
       1    C1      18.810738   18.039055   22.235611 C.3        1 MOL1        -0.1693
       2    H1      17.905522   18.229667   22.827081 H          1 MOL1         0.0829
       3    H2      18.713111   17.060221   21.751161 H          1 MOL1         0.0829
       4    C2      20.154403   18.299642   22.993216 C.3        1 MOL1        -0.1768
       5    H3      20.148884   18.100241   24.070328 H          1 MOL1         0.0829
       6    H4      21.033687   17.816495   22.549355 H          1 MOL1         0.0829
       7    C3      19.958235   19.789155   22.578829 C.3        1 MOL1         0.1211
       8    H5      19.292205   20.350947   23.248048 H          1 MOL1         0.0786
       9    C4      19.250049   19.222338   21.311396 C.3        1 MOL1        -0.1768
      10    H6      18.442809   19.837850   20.899474 H          1 MOL1         0.0829
      11    H7      19.929491   18.940022   20.497486 H          1 MOL1         0.0829
      12    O1      21.145126   20.507900   22.335431 O.3        1 MOL1        -0.5515
      13    H8      20.888467   21.364372   21.930727 H          1 MOL1         0.3773
@<TRIPOS>BOND
    1     1     2    1
    2     1     3    1
    3     1     4    1
    4     4     5    1
    5     4     6    1
    6     4     7    1
    7     7     8    1
    8     1     9    1
    9     7     9    1
   10     9    10    1
   11     9    11    1
   12     7    12    1
   13    12    13    1
@<TRIPOS>SUBSTRUCTURE
       1 MOL1            1 RESIDUE      1      MOL     
@<SCITEGIC>MOL_PROPERTY
VConf Rank
SciTegic.value.IntegerValue
901

@<SCITEGIC>MOL_PROPERTY
Conf_Id
SciTegic.value.IntegerValue
22

@<SCITEGIC>MOL_PROPERTY
Delta U+W
SciTegic.value.DoubleValue
0.000

@<SCITEGIC>MOL_PROPERTY
U+W
SciTegic.value.DoubleValue
-3.131

@<SCITEGIC>MOL_PROPERTY
Grad RMS
SciTegic.value.DoubleValue
0.000000

@<SCITEGIC>MOL_PROPERTY
U
SciTegic.value.DoubleValue
-0.154

@<SCITEGIC>MOL_PROPERTY
W
SciTegic.value.DoubleValue
-2.978

@<SCITEGIC>MOL_PROPERTY
W(PB)
SciTegic.value.DoubleValue
-4.579

@<SCITEGIC>MOL_PROPERTY
W(SA)
SciTegic.value.DoubleValue
1.601

@<SCITEGIC>MOL_PROPERTY
Valence
SciTegic.value.DoubleValue
6.333

@<SCITEGIC>MOL_PROPERTY
Coulomb
SciTegic.value.DoubleValue
-7.439

@<SCITEGIC>MOL_PROPERTY
VdW
SciTegic.value.DoubleValue
0.952

@<SCITEGIC>MOL_PROPERTY
VdW6
SciTegic.value.DoubleValue
-2.120

@<SCITEGIC>MOL_PROPERTY
VdW12
SciTegic.value.DoubleValue
3.072

@<SCITEGIC>MOL_PROPERTY
Bond
SciTegic.value.DoubleValue
0.065

@<SCITEGIC>MOL_PROPERTY
Angle
SciTegic.value.DoubleValue
0.931

@<SCITEGIC>MOL_PROPERTY
Pdih
SciTegic.value.DoubleValue
5.338

@<SCITEGIC>MOL_PROPERTY
Idih
SciTegic.value.DoubleValue
0.000

@<SCITEGIC>MOL_PROPERTY
Tether
SciTegic.value.DoubleValue
0.000

@<TRIPOS>MOLECULE
guest-s16_confgen4.mol2 : confsearch ligand conformer 902
          13          13           1
SMALL
USER_CHARGES
 
@<TRIPOS>ATOM
       1    C1      18.633370   19.674532   21.811713 C.3        1 MOL1        -0.1693
       2    H1      18.412915   20.529503   22.464408 H          1 MOL1         0.0829
       3    H2      17.906319   19.663619   20.990973 H          1 MOL1         0.0829
       4    C2      18.845202   18.317164   22.560050 C.3        1 MOL1        -0.1768
       5    H3      18.738554   17.425230   21.930072 H          1 MOL1         0.0829
       6    H4      18.260091   18.174610   23.475199 H          1 MOL1         0.0829
       7    C3      20.314659   18.796530   22.760297 C.3        1 MOL1         0.1211
       8    H5      20.450777   19.471302   23.616577 H          1 MOL1         0.0786
       9    C4      20.136236   19.535912   21.400031 C.3        1 MOL1        -0.1768
      10    H6      20.315113   18.910993   20.516253 H          1 MOL1         0.0829
      11    H7      20.695658   20.471198   21.289359 H          1 MOL1         0.0829
      12    O1      21.285796   17.776050   22.768229 O.3        1 MOL1        -0.5515
      13    H8      21.187409   17.287738   23.613850 H          1 MOL1         0.3773
@<TRIPOS>BOND
    1     1     2    1
    2     1     3    1
    3     1     4    1
    4     4     5    1
    5     4     6    1
    6     4     7    1
    7     7     8    1
    8     1     9    1
    9     7     9    1
   10     9    10    1
   11     9    11    1
   12     7    12    1
   13    12    13    1
@<TRIPOS>SUBSTRUCTURE
       1 MOL1            1 RESIDUE      1      MOL     
@<SCITEGIC>MOL_PROPERTY
VConf Rank
SciTegic.value.IntegerValue
902

@<SCITEGIC>MOL_PROPERTY
Conf_Id
SciTegic.value.IntegerValue
19

@<SCITEGIC>MOL_PROPERTY
Delta U+W
SciTegic.value.DoubleValue
-0.011

@<SCITEGIC>MOL_PROPERTY
U+W
SciTegic.value.DoubleValue
-3.142

@<SCITEGIC>MOL_PROPERTY
Grad RMS
SciTegic.value.DoubleValue
0.000000

@<SCITEGIC>MOL_PROPERTY
U
SciTegic.value.DoubleValue
-0.154

@<SCITEGIC>MOL_PROPERTY
W
SciTegic.value.DoubleValue
-2.989

@<SCITEGIC>MOL_PROPERTY
W(PB)
SciTegic.value.DoubleValue
-4.588

@<SCITEGIC>MOL_PROPERTY
W(SA)
SciTegic.value.DoubleValue
1.599

@<SCITEGIC>MOL_PROPERTY
Valence
SciTegic.value.DoubleValue
6.334

@<SCITEGIC>MOL_PROPERTY
Coulomb
SciTegic.value.DoubleValue
-7.439

@<SCITEGIC>MOL_PROPERTY
VdW
SciTegic.value.DoubleValue
0.951

@<SCITEGIC>MOL_PROPERTY
VdW6
SciTegic.value.DoubleValue
-2.120

@<SCITEGIC>MOL_PROPERTY
VdW12
SciTegic.value.DoubleValue
3.072

@<SCITEGIC>MOL_PROPERTY
Bond
SciTegic.value.DoubleValue
0.065

@<SCITEGIC>MOL_PROPERTY
Angle
SciTegic.value.DoubleValue
0.930

@<SCITEGIC>MOL_PROPERTY
Pdih
SciTegic.value.DoubleValue
5.339

@<SCITEGIC>MOL_PROPERTY
Idih
SciTegic.value.DoubleValue
0.000

@<SCITEGIC>MOL_PROPERTY
Tether
SciTegic.value.DoubleValue
0.000

@<TRIPOS>MOLECULE
guest-s16_confgen4.mol2 : confsearch ligand conformer 903
          13          13           1
SMALL
USER_CHARGES
 
@<TRIPOS>ATOM
       1    C1      20.387811   18.928514   21.315284 C.3        1 MOL1        -0.1693
       2    H1      21.056607   19.452482   20.622358 H          1 MOL1         0.0829
       3    H2      20.447174   17.851064   21.113332 H          1 MOL1         0.0829
       4    C2      18.931006   19.489840   21.423016 C.3        1 MOL1        -0.1768
       5    H3      18.846855   20.571158   21.260425 H          1 MOL1         0.0829
       6    H4      18.174080   18.983841   20.813573 H          1 MOL1         0.0829
       7    C3      18.982391   19.071271   22.925543 C.3        1 MOL1         0.1211
       8    H5      18.452472   19.748983   23.607235 H          1 MOL1         0.0786
       9    C4      20.520731   19.315465   22.825682 C.3        1 MOL1        -0.1768
      10    H6      21.151394   18.659519   23.435887 H          1 MOL1         0.0829
      11    H7      20.822632   20.354874   23.003048 H          1 MOL1         0.0829
      12    O1      18.605513   17.733531   23.183536 O.3        1 MOL1        -0.5515
      13    H8      18.843020   17.539154   24.115181 H          1 MOL1         0.3773
@<TRIPOS>BOND
    1     1     2    1
    2     1     3    1
    3     1     4    1
    4     4     5    1
    5     4     6    1
    6     4     7    1
    7     7     8    1
    8     1     9    1
    9     7     9    1
   10     9    10    1
   11     9    11    1
   12     7    12    1
   13    12    13    1
@<TRIPOS>SUBSTRUCTURE
       1 MOL1            1 RESIDUE      1      MOL     
@<SCITEGIC>MOL_PROPERTY
VConf Rank
SciTegic.value.IntegerValue
903

@<SCITEGIC>MOL_PROPERTY
Conf_Id
SciTegic.value.IntegerValue
20

@<SCITEGIC>MOL_PROPERTY
Delta U+W
SciTegic.value.DoubleValue
1.030

@<SCITEGIC>MOL_PROPERTY
U+W
SciTegic.value.DoubleValue
-2.101

@<SCITEGIC>MOL_PROPERTY
Grad RMS
SciTegic.value.DoubleValue
0.000000

@<SCITEGIC>MOL_PROPERTY
U
SciTegic.value.DoubleValue
0.841

@<SCITEGIC>MOL_PROPERTY
W
SciTegic.value.DoubleValue
-2.942

@<SCITEGIC>MOL_PROPERTY
W(PB)
SciTegic.value.DoubleValue
-4.530

@<SCITEGIC>MOL_PROPERTY
W(SA)
SciTegic.value.DoubleValue
1.587

@<SCITEGIC>MOL_PROPERTY
Valence
SciTegic.value.DoubleValue
6.736

@<SCITEGIC>MOL_PROPERTY
Coulomb
SciTegic.value.DoubleValue
-7.246

@<SCITEGIC>MOL_PROPERTY
VdW
SciTegic.value.DoubleValue
1.352

@<SCITEGIC>MOL_PROPERTY
VdW6
SciTegic.value.DoubleValue
-2.500

@<SCITEGIC>MOL_PROPERTY
VdW12
SciTegic.value.DoubleValue
3.851

@<SCITEGIC>MOL_PROPERTY
Bond
SciTegic.value.DoubleValue
0.063

@<SCITEGIC>MOL_PROPERTY
Angle
SciTegic.value.DoubleValue
0.687

@<SCITEGIC>MOL_PROPERTY
Pdih
SciTegic.value.DoubleValue
5.986

@<SCITEGIC>MOL_PROPERTY
Idih
SciTegic.value.DoubleValue
0.000

@<SCITEGIC>MOL_PROPERTY
Tether
SciTegic.value.DoubleValue
0.000

@<TRIPOS>MOLECULE
guest-s16_confgen4.mol2 : confsearch ligand conformer 904
          13          13           1
SMALL
USER_CHARGES
 
@<TRIPOS>ATOM
       1    C1      20.665816   19.651306   22.769841 C.3        1 MOL1        -0.1693
       2    H1      21.604732   19.148327   23.036521 H          1 MOL1         0.0829
       3    H2      20.738101   20.705532   23.062764 H          1 MOL1         0.0829
       4    C2      19.370167   18.899858   23.221479 C.3        1 MOL1        -0.1768
       5    H3      19.445067   18.326090   24.151787 H          1 MOL1         0.0829
       6    H4      18.470187   19.525556   23.265368 H          1 MOL1         0.0829
       7    C3      19.534392   18.080418   21.905917 C.3        1 MOL1         0.1211
       8    H5      20.237904   17.241003   21.990453 H          1 MOL1         0.0786
       9    C4      20.167050   19.375520   21.312950 C.3        1 MOL1        -0.1768
      10    H6      19.445183   20.107534   20.930260 H          1 MOL1         0.0829
      11    H7      20.945716   19.221833   20.557735 H          1 MOL1         0.0829
      12    O1      18.334229   17.662135   21.300554 O.3        1 MOL1        -0.5515
      13    H8      17.750061   18.447724   21.252406 H          1 MOL1         0.3773
@<TRIPOS>BOND
    1     1     2    1
    2     1     3    1
    3     1     4    1
    4     4     5    1
    5     4     6    1
    6     4     7    1
    7     7     8    1
    8     1     9    1
    9     7     9    1
   10     9    10    1
   11     9    11    1
   12     7    12    1
   13    12    13    1
@<TRIPOS>SUBSTRUCTURE
       1 MOL1            1 RESIDUE      1      MOL     
@<SCITEGIC>MOL_PROPERTY
VConf Rank
SciTegic.value.IntegerValue
904

@<SCITEGIC>MOL_PROPERTY
Conf_Id
SciTegic.value.IntegerValue
24

@<SCITEGIC>MOL_PROPERTY
Delta U+W
SciTegic.value.DoubleValue
0.356

@<SCITEGIC>MOL_PROPERTY
U+W
SciTegic.value.DoubleValue
-2.775

@<SCITEGIC>MOL_PROPERTY
Grad RMS
SciTegic.value.DoubleValue
0.000000

@<SCITEGIC>MOL_PROPERTY
U
SciTegic.value.DoubleValue
-0.184

@<SCITEGIC>MOL_PROPERTY
W
SciTegic.value.DoubleValue
-2.591

@<SCITEGIC>MOL_PROPERTY
W(PB)
SciTegic.value.DoubleValue
-4.184

@<SCITEGIC>MOL_PROPERTY
W(SA)
SciTegic.value.DoubleValue
1.593

@<SCITEGIC>MOL_PROPERTY
Valence
SciTegic.value.DoubleValue
6.840

@<SCITEGIC>MOL_PROPERTY
Coulomb
SciTegic.value.DoubleValue
-7.916

@<SCITEGIC>MOL_PROPERTY
VdW
SciTegic.value.DoubleValue
0.893

@<SCITEGIC>MOL_PROPERTY
VdW6
SciTegic.value.DoubleValue
-2.167

@<SCITEGIC>MOL_PROPERTY
VdW12
SciTegic.value.DoubleValue
3.060

@<SCITEGIC>MOL_PROPERTY
Bond
SciTegic.value.DoubleValue
0.059

@<SCITEGIC>MOL_PROPERTY
Angle
SciTegic.value.DoubleValue
0.918

@<SCITEGIC>MOL_PROPERTY
Pdih
SciTegic.value.DoubleValue
5.862

@<SCITEGIC>MOL_PROPERTY
Idih
SciTegic.value.DoubleValue
0.000

@<SCITEGIC>MOL_PROPERTY
Tether
SciTegic.value.DoubleValue
0.000

@<TRIPOS>MOLECULE
guest-s16_confgen4.mol2 : confsearch ligand conformer 905
          13          13           1
SMALL
USER_CHARGES
 
@<TRIPOS>ATOM
       1    C1      18.901348   18.171270   22.211369 C.3        1 MOL1        -0.1693
       2    H1      17.846204   17.938261   22.024950 H          1 MOL1         0.0829
       3    H2      19.407137   17.252742   22.535065 H          1 MOL1         0.0829
       4    C2      19.177254   19.425340   23.106536 C.3        1 MOL1        -0.1768
       5    H3      18.418317   20.213401   23.029143 H          1 MOL1         0.0829
       6    H4      19.368401   19.229104   24.167509 H          1 MOL1         0.0829
       7    C3      20.438028   19.666767   22.219884 C.3        1 MOL1         0.1211
       8    H5      20.675067   20.722044   22.033632 H          1 MOL1         0.0786
       9    C4      19.637070   18.964397   21.080087 C.3        1 MOL1        -0.1768
      10    H6      18.990873   19.639441   20.505839 H          1 MOL1         0.0829
      11    H7      20.228447   18.366950   20.377208 H          1 MOL1         0.0829
      12    O1      21.596751   18.978875   22.639281 O.3        1 MOL1        -0.5515
      13    H8      21.326961   18.049380   22.789506 H          1 MOL1         0.3773
@<TRIPOS>BOND
    1     1     2    1
    2     1     3    1
    3     1     4    1
    4     4     5    1
    5     4     6    1
    6     4     7    1
    7     7     8    1
    8     1     9    1
    9     7     9    1
   10     9    10    1
   11     9    11    1
   12     7    12    1
   13    12    13    1
@<TRIPOS>SUBSTRUCTURE
       1 MOL1            1 RESIDUE      1      MOL     
@<SCITEGIC>MOL_PROPERTY
VConf Rank
SciTegic.value.IntegerValue
905

@<SCITEGIC>MOL_PROPERTY
Conf_Id
SciTegic.value.IntegerValue
44

@<SCITEGIC>MOL_PROPERTY
Delta U+W
SciTegic.value.DoubleValue
0.823

@<SCITEGIC>MOL_PROPERTY
U+W
SciTegic.value.DoubleValue
-2.308

@<SCITEGIC>MOL_PROPERTY
Grad RMS
SciTegic.value.DoubleValue
0.000000

@<SCITEGIC>MOL_PROPERTY
U
SciTegic.value.DoubleValue
0.039

@<SCITEGIC>MOL_PROPERTY
W
SciTegic.value.DoubleValue
-2.348

@<SCITEGIC>MOL_PROPERTY
W(PB)
SciTegic.value.DoubleValue
-3.918

@<SCITEGIC>MOL_PROPERTY
W(SA)
SciTegic.value.DoubleValue
1.571

@<SCITEGIC>MOL_PROPERTY
Valence
SciTegic.value.DoubleValue
7.320

@<SCITEGIC>MOL_PROPERTY
Coulomb
SciTegic.value.DoubleValue
-8.530

@<SCITEGIC>MOL_PROPERTY
VdW
SciTegic.value.DoubleValue
1.249

@<SCITEGIC>MOL_PROPERTY
VdW6
SciTegic.value.DoubleValue
-2.615

@<SCITEGIC>MOL_PROPERTY
VdW12
SciTegic.value.DoubleValue
3.864

@<SCITEGIC>MOL_PROPERTY
Bond
SciTegic.value.DoubleValue
0.056

@<SCITEGIC>MOL_PROPERTY
Angle
SciTegic.value.DoubleValue
0.694

@<SCITEGIC>MOL_PROPERTY
Pdih
SciTegic.value.DoubleValue
6.570

@<SCITEGIC>MOL_PROPERTY
Idih
SciTegic.value.DoubleValue
0.000

@<SCITEGIC>MOL_PROPERTY
Tether
SciTegic.value.DoubleValue
0.000

@<TRIPOS>MOLECULE
guest-s16_confgen4.mol2 : confsearch ligand conformer 906
          13          13           1
SMALL
USER_CHARGES
 
@<TRIPOS>ATOM
       1    C1      20.591636   18.168318   22.597151 C.3        1 MOL1        -0.1693
       2    H1      21.616363   18.540396   22.466465 H          1 MOL1         0.0829
       3    H2      20.636502   17.166434   23.040495 H          1 MOL1         0.0829
       4    C2      19.674042   18.322586   21.339563 C.3        1 MOL1        -0.1768
       5    H3      20.169557   18.239507   20.366154 H          1 MOL1         0.0829
       6    H4      18.783964   17.681224   21.338369 H          1 MOL1         0.0829
       7    C3      19.423641   19.773366   21.850821 C.3        1 MOL1         0.1211
       8    H5      20.206478   20.486944   21.559213 H          1 MOL1         0.0786
       9    C4      19.610522   19.178122   23.279090 C.3        1 MOL1        -0.1768
      10    H6      20.051055   19.850663   24.023261 H          1 MOL1         0.0829
      11    H7      18.707599   18.722961   23.704944 H          1 MOL1         0.0829
      12    O1      18.143995   20.295567   21.578136 O.3        1 MOL1        -0.5515
      13    H8      18.057374   21.131818   22.084481 H          1 MOL1         0.3773
@<TRIPOS>BOND
    1     1     2    1
    2     1     3    1
    3     1     4    1
    4     4     5    1
    5     4     6    1
    6     4     7    1
    7     7     8    1
    8     1     9    1
    9     7     9    1
   10     9    10    1
   11     9    11    1
   12     7    12    1
   13    12    13    1
@<TRIPOS>SUBSTRUCTURE
       1 MOL1            1 RESIDUE      1      MOL     
@<SCITEGIC>MOL_PROPERTY
VConf Rank
SciTegic.value.IntegerValue
906

@<SCITEGIC>MOL_PROPERTY
Conf_Id
SciTegic.value.IntegerValue
22

@<SCITEGIC>MOL_PROPERTY
Delta U+W
SciTegic.value.DoubleValue
0.000

@<SCITEGIC>MOL_PROPERTY
U+W
SciTegic.value.DoubleValue
-3.131

@<SCITEGIC>MOL_PROPERTY
Grad RMS
SciTegic.value.DoubleValue
0.000000

@<SCITEGIC>MOL_PROPERTY
U
SciTegic.value.DoubleValue
-0.154

@<SCITEGIC>MOL_PROPERTY
W
SciTegic.value.DoubleValue
-2.978

@<SCITEGIC>MOL_PROPERTY
W(PB)
SciTegic.value.DoubleValue
-4.579

@<SCITEGIC>MOL_PROPERTY
W(SA)
SciTegic.value.DoubleValue
1.601

@<SCITEGIC>MOL_PROPERTY
Valence
SciTegic.value.DoubleValue
6.333

@<SCITEGIC>MOL_PROPERTY
Coulomb
SciTegic.value.DoubleValue
-7.439

@<SCITEGIC>MOL_PROPERTY
VdW
SciTegic.value.DoubleValue
0.952

@<SCITEGIC>MOL_PROPERTY
VdW6
SciTegic.value.DoubleValue
-2.120

@<SCITEGIC>MOL_PROPERTY
VdW12
SciTegic.value.DoubleValue
3.072

@<SCITEGIC>MOL_PROPERTY
Bond
SciTegic.value.DoubleValue
0.065

@<SCITEGIC>MOL_PROPERTY
Angle
SciTegic.value.DoubleValue
0.931

@<SCITEGIC>MOL_PROPERTY
Pdih
SciTegic.value.DoubleValue
5.338

@<SCITEGIC>MOL_PROPERTY
Idih
SciTegic.value.DoubleValue
0.000

@<SCITEGIC>MOL_PROPERTY
Tether
SciTegic.value.DoubleValue
0.000

@<TRIPOS>MOLECULE
guest-s16_confgen4.mol2 : confsearch ligand conformer 907
          13          13           1
SMALL
USER_CHARGES
 
@<TRIPOS>ATOM
       1    C1      19.582140   18.812475   23.559795 C.3        1 MOL1        -0.1693
       2    H1      18.976317   17.963708   23.903540 H          1 MOL1         0.0829
       3    H2      19.940620   19.364954   24.436492 H          1 MOL1         0.0829
       4    C2      18.924948   19.670276   22.428599 C.3        1 MOL1        -0.1768
       5    H3      19.348643   20.675508   22.311188 H          1 MOL1         0.0829
       6    H4      17.832594   19.748928   22.455968 H          1 MOL1         0.0829
       7    C3      19.505612   18.604581   21.450683 C.3        1 MOL1         0.1211
       8    H5      18.881953   17.705800   21.349182 H          1 MOL1         0.0786
       9    C4      20.661196   18.453734   22.485436 C.3        1 MOL1        -0.1768
      10    H6      21.466283   19.191253   22.378272 H          1 MOL1         0.0829
      11    H7      21.105627   17.455361   22.560899 H          1 MOL1         0.0829
      12    O1      19.889426   19.092570   20.186127 O.3        1 MOL1        -0.5515
      13    H8      19.066741   19.295235   19.690828 H          1 MOL1         0.3773
@<TRIPOS>BOND
    1     1     2    1
    2     1     3    1
    3     1     4    1
    4     4     5    1
    5     4     6    1
    6     4     7    1
    7     7     8    1
    8     1     9    1
    9     7     9    1
   10     9    10    1
   11     9    11    1
   12     7    12    1
   13    12    13    1
@<TRIPOS>SUBSTRUCTURE
       1 MOL1            1 RESIDUE      1      MOL     
@<SCITEGIC>MOL_PROPERTY
VConf Rank
SciTegic.value.IntegerValue
907

@<SCITEGIC>MOL_PROPERTY
Conf_Id
SciTegic.value.IntegerValue
19

@<SCITEGIC>MOL_PROPERTY
Delta U+W
SciTegic.value.DoubleValue
-0.011

@<SCITEGIC>MOL_PROPERTY
U+W
SciTegic.value.DoubleValue
-3.142

@<SCITEGIC>MOL_PROPERTY
Grad RMS
SciTegic.value.DoubleValue
0.000000

@<SCITEGIC>MOL_PROPERTY
U
SciTegic.value.DoubleValue
-0.154

@<SCITEGIC>MOL_PROPERTY
W
SciTegic.value.DoubleValue
-2.989

@<SCITEGIC>MOL_PROPERTY
W(PB)
SciTegic.value.DoubleValue
-4.588

@<SCITEGIC>MOL_PROPERTY
W(SA)
SciTegic.value.DoubleValue
1.599

@<SCITEGIC>MOL_PROPERTY
Valence
SciTegic.value.DoubleValue
6.334

@<SCITEGIC>MOL_PROPERTY
Coulomb
SciTegic.value.DoubleValue
-7.439

@<SCITEGIC>MOL_PROPERTY
VdW
SciTegic.value.DoubleValue
0.951

@<SCITEGIC>MOL_PROPERTY
VdW6
SciTegic.value.DoubleValue
-2.120

@<SCITEGIC>MOL_PROPERTY
VdW12
SciTegic.value.DoubleValue
3.072

@<SCITEGIC>MOL_PROPERTY
Bond
SciTegic.value.DoubleValue
0.065

@<SCITEGIC>MOL_PROPERTY
Angle
SciTegic.value.DoubleValue
0.930

@<SCITEGIC>MOL_PROPERTY
Pdih
SciTegic.value.DoubleValue
5.339

@<SCITEGIC>MOL_PROPERTY
Idih
SciTegic.value.DoubleValue
0.000

@<SCITEGIC>MOL_PROPERTY
Tether
SciTegic.value.DoubleValue
0.000

@<TRIPOS>MOLECULE
guest-s16_confgen4.mol2 : confsearch ligand conformer 908
          13          13           1
SMALL
USER_CHARGES
 
@<TRIPOS>ATOM
       1    C1      19.163037   18.607035   23.327989 C.3        1 MOL1        -0.1693
       2    H1      19.005559   17.704668   23.930411 H          1 MOL1         0.0829
       3    H2      18.815499   19.476674   23.900834 H          1 MOL1         0.0829
       4    C2      18.641891   18.550117   21.853493 C.3        1 MOL1        -0.1768
       5    H3      18.668684   17.552087   21.399640 H          1 MOL1         0.0829
       6    H4      17.654475   18.989979   21.674818 H          1 MOL1         0.0829
       7    C3      19.862002   19.451789   21.487784 C.3        1 MOL1         0.1211
       8    H5      20.307801   19.241892   20.506958 H          1 MOL1         0.0786
       9    C4      20.583773   18.771898   22.693143 C.3        1 MOL1        -0.1768
      10    H6      21.287797   19.401646   23.248227 H          1 MOL1         0.0829
      11    H7      21.081652   17.827094   22.443270 H          1 MOL1         0.0829
      12    O1      19.639485   20.840368   21.630887 O.3        1 MOL1        -0.5515
      13    H8      20.510031   21.284448   21.546644 H          1 MOL1         0.3773
@<TRIPOS>BOND
    1     1     2    1
    2     1     3    1
    3     1     4    1
    4     4     5    1
    5     4     6    1
    6     4     7    1
    7     7     8    1
    8     1     9    1
    9     7     9    1
   10     9    10    1
   11     9    11    1
   12     7    12    1
   13    12    13    1
@<TRIPOS>SUBSTRUCTURE
       1 MOL1            1 RESIDUE      1      MOL     
@<SCITEGIC>MOL_PROPERTY
VConf Rank
SciTegic.value.IntegerValue
908

@<SCITEGIC>MOL_PROPERTY
Conf_Id
SciTegic.value.IntegerValue
20

@<SCITEGIC>MOL_PROPERTY
Delta U+W
SciTegic.value.DoubleValue
1.030

@<SCITEGIC>MOL_PROPERTY
U+W
SciTegic.value.DoubleValue
-2.101

@<SCITEGIC>MOL_PROPERTY
Grad RMS
SciTegic.value.DoubleValue
0.000000

@<SCITEGIC>MOL_PROPERTY
U
SciTegic.value.DoubleValue
0.841

@<SCITEGIC>MOL_PROPERTY
W
SciTegic.value.DoubleValue
-2.942

@<SCITEGIC>MOL_PROPERTY
W(PB)
SciTegic.value.DoubleValue
-4.530

@<SCITEGIC>MOL_PROPERTY
W(SA)
SciTegic.value.DoubleValue
1.587

@<SCITEGIC>MOL_PROPERTY
Valence
SciTegic.value.DoubleValue
6.736

@<SCITEGIC>MOL_PROPERTY
Coulomb
SciTegic.value.DoubleValue
-7.246

@<SCITEGIC>MOL_PROPERTY
VdW
SciTegic.value.DoubleValue
1.352

@<SCITEGIC>MOL_PROPERTY
VdW6
SciTegic.value.DoubleValue
-2.500

@<SCITEGIC>MOL_PROPERTY
VdW12
SciTegic.value.DoubleValue
3.851

@<SCITEGIC>MOL_PROPERTY
Bond
SciTegic.value.DoubleValue
0.063

@<SCITEGIC>MOL_PROPERTY
Angle
SciTegic.value.DoubleValue
0.687

@<SCITEGIC>MOL_PROPERTY
Pdih
SciTegic.value.DoubleValue
5.986

@<SCITEGIC>MOL_PROPERTY
Idih
SciTegic.value.DoubleValue
0.000

@<SCITEGIC>MOL_PROPERTY
Tether
SciTegic.value.DoubleValue
0.000

@<TRIPOS>MOLECULE
guest-s16_confgen4.mol2 : confsearch ligand conformer 909
          13          13           1
SMALL
USER_CHARGES
 
@<TRIPOS>ATOM
       1    C1      18.857426   18.334161   22.896591 C.3        1 MOL1        -0.1693
       2    H1      18.758113   18.586300   23.960655 H          1 MOL1         0.0829
       3    H2      18.122398   17.558485   22.650660 H          1 MOL1         0.0829
       4    C2      20.323882   18.066501   22.422019 C.3        1 MOL1        -0.1768
       5    H3      20.995563   17.617019   23.161683 H          1 MOL1         0.0829
       6    H4      20.405638   17.503269   21.484216 H          1 MOL1         0.0829
       7    C3      20.425937   19.614025   22.267390 C.3        1 MOL1         0.1211
       8    H5      20.659355   20.139437   23.203420 H          1 MOL1         0.0786
       9    C4      18.904165   19.566521   21.934063 C.3        1 MOL1        -0.1768
      10    H6      18.668596   19.338562   20.887196 H          1 MOL1         0.0829
      11    H7      18.322020   20.441787   22.242786 H          1 MOL1         0.0829
      12    O1      21.259143   20.063730   21.225589 O.3        1 MOL1        -0.5515
      13    H8      21.006367   19.563038   20.421767 H          1 MOL1         0.3773
@<TRIPOS>BOND
    1     1     2    1
    2     1     3    1
    3     1     4    1
    4     4     5    1
    5     4     6    1
    6     4     7    1
    7     7     8    1
    8     1     9    1
    9     7     9    1
   10     9    10    1
   11     9    11    1
   12     7    12    1
   13    12    13    1
@<TRIPOS>SUBSTRUCTURE
       1 MOL1            1 RESIDUE      1      MOL     
@<SCITEGIC>MOL_PROPERTY
VConf Rank
SciTegic.value.IntegerValue
909

@<SCITEGIC>MOL_PROPERTY
Conf_Id
SciTegic.value.IntegerValue
24

@<SCITEGIC>MOL_PROPERTY
Delta U+W
SciTegic.value.DoubleValue
0.356

@<SCITEGIC>MOL_PROPERTY
U+W
SciTegic.value.DoubleValue
-2.775

@<SCITEGIC>MOL_PROPERTY
Grad RMS
SciTegic.value.DoubleValue
0.000000

@<SCITEGIC>MOL_PROPERTY
U
SciTegic.value.DoubleValue
-0.184

@<SCITEGIC>MOL_PROPERTY
W
SciTegic.value.DoubleValue
-2.591

@<SCITEGIC>MOL_PROPERTY
W(PB)
SciTegic.value.DoubleValue
-4.184

@<SCITEGIC>MOL_PROPERTY
W(SA)
SciTegic.value.DoubleValue
1.593

@<SCITEGIC>MOL_PROPERTY
Valence
SciTegic.value.DoubleValue
6.840

@<SCITEGIC>MOL_PROPERTY
Coulomb
SciTegic.value.DoubleValue
-7.916

@<SCITEGIC>MOL_PROPERTY
VdW
SciTegic.value.DoubleValue
0.893

@<SCITEGIC>MOL_PROPERTY
VdW6
SciTegic.value.DoubleValue
-2.167

@<SCITEGIC>MOL_PROPERTY
VdW12
SciTegic.value.DoubleValue
3.060

@<SCITEGIC>MOL_PROPERTY
Bond
SciTegic.value.DoubleValue
0.059

@<SCITEGIC>MOL_PROPERTY
Angle
SciTegic.value.DoubleValue
0.918

@<SCITEGIC>MOL_PROPERTY
Pdih
SciTegic.value.DoubleValue
5.862

@<SCITEGIC>MOL_PROPERTY
Idih
SciTegic.value.DoubleValue
0.000

@<SCITEGIC>MOL_PROPERTY
Tether
SciTegic.value.DoubleValue
0.000

@<TRIPOS>MOLECULE
guest-s16_confgen4.mol2 : confsearch ligand conformer 910
          13          13           1
SMALL
USER_CHARGES
 
@<TRIPOS>ATOM
       1    C1      20.343368   18.121629   21.859162 C.3        1 MOL1        -0.1693
       2    H1      20.561858   17.050515   21.944900 H          1 MOL1         0.0829
       3    H2      21.040700   18.560627   21.134383 H          1 MOL1         0.0829
       4    C2      20.217205   18.904327   23.208830 C.3        1 MOL1        -0.1768
       5    H3      19.841168   18.305055   24.046974 H          1 MOL1         0.0829
       6    H4      21.111712   19.443575   23.540156 H          1 MOL1         0.0829
       7    C3      19.125060   19.765115   22.501542 C.3        1 MOL1         0.1211
       8    H5      18.295154   20.078214   23.147848 H          1 MOL1         0.0786
       9    C4      18.840156   18.497663   21.637603 C.3        1 MOL1        -0.1768
      10    H6      18.126489   17.798682   22.090504 H          1 MOL1         0.0829
      11    H7      18.536060   18.682942   20.601309 H          1 MOL1         0.0829
      12    O1      19.619892   20.873177   21.781080 O.3        1 MOL1        -0.5515
      13    H8      20.353034   20.536448   21.225716 H          1 MOL1         0.3773
@<TRIPOS>BOND
    1     1     2    1
    2     1     3    1
    3     1     4    1
    4     4     5    1
    5     4     6    1
    6     4     7    1
    7     7     8    1
    8     1     9    1
    9     7     9    1
   10     9    10    1
   11     9    11    1
   12     7    12    1
   13    12    13    1
@<TRIPOS>SUBSTRUCTURE
       1 MOL1            1 RESIDUE      1      MOL     
@<SCITEGIC>MOL_PROPERTY
VConf Rank
SciTegic.value.IntegerValue
910

@<SCITEGIC>MOL_PROPERTY
Conf_Id
SciTegic.value.IntegerValue
44

@<SCITEGIC>MOL_PROPERTY
Delta U+W
SciTegic.value.DoubleValue
0.823

@<SCITEGIC>MOL_PROPERTY
U+W
SciTegic.value.DoubleValue
-2.308

@<SCITEGIC>MOL_PROPERTY
Grad RMS
SciTegic.value.DoubleValue
0.000000

@<SCITEGIC>MOL_PROPERTY
U
SciTegic.value.DoubleValue
0.039

@<SCITEGIC>MOL_PROPERTY
W
SciTegic.value.DoubleValue
-2.348

@<SCITEGIC>MOL_PROPERTY
W(PB)
SciTegic.value.DoubleValue
-3.918

@<SCITEGIC>MOL_PROPERTY
W(SA)
SciTegic.value.DoubleValue
1.571

@<SCITEGIC>MOL_PROPERTY
Valence
SciTegic.value.DoubleValue
7.320

@<SCITEGIC>MOL_PROPERTY
Coulomb
SciTegic.value.DoubleValue
-8.530

@<SCITEGIC>MOL_PROPERTY
VdW
SciTegic.value.DoubleValue
1.249

@<SCITEGIC>MOL_PROPERTY
VdW6
SciTegic.value.DoubleValue
-2.615

@<SCITEGIC>MOL_PROPERTY
VdW12
SciTegic.value.DoubleValue
3.864

@<SCITEGIC>MOL_PROPERTY
Bond
SciTegic.value.DoubleValue
0.056

@<SCITEGIC>MOL_PROPERTY
Angle
SciTegic.value.DoubleValue
0.694

@<SCITEGIC>MOL_PROPERTY
Pdih
SciTegic.value.DoubleValue
6.570

@<SCITEGIC>MOL_PROPERTY
Idih
SciTegic.value.DoubleValue
0.000

@<SCITEGIC>MOL_PROPERTY
Tether
SciTegic.value.DoubleValue
0.000

@<TRIPOS>MOLECULE
guest-s16_confgen4.mol2 : confsearch ligand conformer 911
          13          13           1
SMALL
USER_CHARGES
 
@<TRIPOS>ATOM
       1    C1      20.715241   19.823301   22.432114 C.3        1 MOL1        -0.1693
       2    H1      21.231238   20.088397   21.499882 H          1 MOL1         0.0829
       3    H2      21.206737   20.341382   23.264197 H          1 MOL1         0.0829
       4    C2      20.464518   18.291683   22.628563 C.3        1 MOL1        -0.1768
       5    H3      21.220826   17.619938   22.208183 H          1 MOL1         0.0829
       6    H4      20.258704   17.988375   23.662599 H          1 MOL1         0.0829
       7    C3      19.192738   18.511470   21.754998 C.3        1 MOL1         0.1211
       8    H5      19.390118   18.498236   20.674291 H          1 MOL1         0.0786
       9    C4      19.156401   19.941446   22.373902 C.3        1 MOL1        -0.1768
      10    H6      18.756413   20.731392   21.728792 H          1 MOL1         0.0829
      11    H7      18.664702   20.002065   23.352856 H          1 MOL1         0.0829
      12    O1      18.094143   17.688961   22.072984 O.3        1 MOL1        -0.5515
      13    H8      17.320948   18.031260   21.574783 H          1 MOL1         0.3773
@<TRIPOS>BOND
    1     1     2    1
    2     1     3    1
    3     1     4    1
    4     4     5    1
    5     4     6    1
    6     4     7    1
    7     7     8    1
    8     1     9    1
    9     7     9    1
   10     9    10    1
   11     9    11    1
   12     7    12    1
   13    12    13    1
@<TRIPOS>SUBSTRUCTURE
       1 MOL1            1 RESIDUE      1      MOL     
@<SCITEGIC>MOL_PROPERTY
VConf Rank
SciTegic.value.IntegerValue
911

@<SCITEGIC>MOL_PROPERTY
Conf_Id
SciTegic.value.IntegerValue
22

@<SCITEGIC>MOL_PROPERTY
Delta U+W
SciTegic.value.DoubleValue
0.000

@<SCITEGIC>MOL_PROPERTY
U+W
SciTegic.value.DoubleValue
-3.131

@<SCITEGIC>MOL_PROPERTY
Grad RMS
SciTegic.value.DoubleValue
0.000000

@<SCITEGIC>MOL_PROPERTY
U
SciTegic.value.DoubleValue
-0.154

@<SCITEGIC>MOL_PROPERTY
W
SciTegic.value.DoubleValue
-2.978

@<SCITEGIC>MOL_PROPERTY
W(PB)
SciTegic.value.DoubleValue
-4.579

@<SCITEGIC>MOL_PROPERTY
W(SA)
SciTegic.value.DoubleValue
1.601

@<SCITEGIC>MOL_PROPERTY
Valence
SciTegic.value.DoubleValue
6.333

@<SCITEGIC>MOL_PROPERTY
Coulomb
SciTegic.value.DoubleValue
-7.439

@<SCITEGIC>MOL_PROPERTY
VdW
SciTegic.value.DoubleValue
0.952

@<SCITEGIC>MOL_PROPERTY
VdW6
SciTegic.value.DoubleValue
-2.120

@<SCITEGIC>MOL_PROPERTY
VdW12
SciTegic.value.DoubleValue
3.072

@<SCITEGIC>MOL_PROPERTY
Bond
SciTegic.value.DoubleValue
0.065

@<SCITEGIC>MOL_PROPERTY
Angle
SciTegic.value.DoubleValue
0.931

@<SCITEGIC>MOL_PROPERTY
Pdih
SciTegic.value.DoubleValue
5.338

@<SCITEGIC>MOL_PROPERTY
Idih
SciTegic.value.DoubleValue
0.000

@<SCITEGIC>MOL_PROPERTY
Tether
SciTegic.value.DoubleValue
0.000

@<TRIPOS>MOLECULE
guest-s16_confgen4.mol2 : confsearch ligand conformer 912
          13          13           1
SMALL
USER_CHARGES
 
@<TRIPOS>ATOM
       1    C1      18.342874   18.634391   22.282157 C.3        1 MOL1        -0.1693
       2    H1      17.857120   18.678690   21.298456 H          1 MOL1         0.0829
       3    H2      17.582979   18.403201   23.038100 H          1 MOL1         0.0829
       4    C2      19.285138   19.841547   22.601910 C.3        1 MOL1        -0.1768
       5    H3      19.507960   19.979068   23.667383 H          1 MOL1         0.0829
       6    H4      18.993260   20.807367   22.175096 H          1 MOL1         0.0829
       7    C3      20.368733   19.048229   21.810920 C.3        1 MOL1         0.1211
       8    H5      20.310204   19.178434   20.721571 H          1 MOL1         0.0786
       9    C4      19.645393   17.769280   22.330451 C.3        1 MOL1        -0.1768
      10    H6      19.949518   17.451845   23.335601 H          1 MOL1         0.0829
      11    H7      19.674528   16.901255   21.662886 H          1 MOL1         0.0829
      12    O1      21.691491   19.218323   22.264713 O.3        1 MOL1        -0.5515
      13    H8      21.972900   20.122751   22.007765 H          1 MOL1         0.3773
@<TRIPOS>BOND
    1     1     2    1
    2     1     3    1
    3     1     4    1
    4     4     5    1
    5     4     6    1
    6     4     7    1
    7     7     8    1
    8     1     9    1
    9     7     9    1
   10     9    10    1
   11     9    11    1
   12     7    12    1
   13    12    13    1
@<TRIPOS>SUBSTRUCTURE
       1 MOL1            1 RESIDUE      1      MOL     
@<SCITEGIC>MOL_PROPERTY
VConf Rank
SciTegic.value.IntegerValue
912

@<SCITEGIC>MOL_PROPERTY
Conf_Id
SciTegic.value.IntegerValue
19

@<SCITEGIC>MOL_PROPERTY
Delta U+W
SciTegic.value.DoubleValue
-0.011

@<SCITEGIC>MOL_PROPERTY
U+W
SciTegic.value.DoubleValue
-3.142

@<SCITEGIC>MOL_PROPERTY
Grad RMS
SciTegic.value.DoubleValue
0.000000

@<SCITEGIC>MOL_PROPERTY
U
SciTegic.value.DoubleValue
-0.154

@<SCITEGIC>MOL_PROPERTY
W
SciTegic.value.DoubleValue
-2.989

@<SCITEGIC>MOL_PROPERTY
W(PB)
SciTegic.value.DoubleValue
-4.588

@<SCITEGIC>MOL_PROPERTY
W(SA)
SciTegic.value.DoubleValue
1.599

@<SCITEGIC>MOL_PROPERTY
Valence
SciTegic.value.DoubleValue
6.334

@<SCITEGIC>MOL_PROPERTY
Coulomb
SciTegic.value.DoubleValue
-7.439

@<SCITEGIC>MOL_PROPERTY
VdW
SciTegic.value.DoubleValue
0.951

@<SCITEGIC>MOL_PROPERTY
VdW6
SciTegic.value.DoubleValue
-2.120

@<SCITEGIC>MOL_PROPERTY
VdW12
SciTegic.value.DoubleValue
3.072

@<SCITEGIC>MOL_PROPERTY
Bond
SciTegic.value.DoubleValue
0.065

@<SCITEGIC>MOL_PROPERTY
Angle
SciTegic.value.DoubleValue
0.930

@<SCITEGIC>MOL_PROPERTY
Pdih
SciTegic.value.DoubleValue
5.339

@<SCITEGIC>MOL_PROPERTY
Idih
SciTegic.value.DoubleValue
0.000

@<SCITEGIC>MOL_PROPERTY
Tether
SciTegic.value.DoubleValue
0.000

@<TRIPOS>MOLECULE
guest-s16_confgen4.mol2 : confsearch ligand conformer 913
          13          13           1
SMALL
USER_CHARGES
 
@<TRIPOS>ATOM
       1    C1      19.859755   20.233196   22.006488 C.3        1 MOL1        -0.1693
       2    H1      20.391396   20.913533   21.330857 H          1 MOL1         0.0829
       3    H2      19.231199   20.828780   22.681324 H          1 MOL1         0.0829
       4    C2      20.734234   19.149617   22.720710 C.3        1 MOL1        -0.1768
       5    H3      21.602762   18.812172   22.142303 H          1 MOL1         0.0829
       6    H4      21.062574   19.390152   23.737927 H          1 MOL1         0.0829
       7    C3      19.491177   18.212218   22.613378 C.3        1 MOL1         0.1211
       8    H5      19.729432   17.155687   22.435085 H          1 MOL1         0.0786
       9    C4      19.127604   19.025836   21.331997 C.3        1 MOL1        -0.1768
      10    H6      18.058048   19.160962   21.136693 H          1 MOL1         0.0829
      11    H7      19.606690   18.658666   20.416226 H          1 MOL1         0.0829
      12    O1      18.566217   18.326894   23.676131 O.3        1 MOL1        -0.5515
      13    H8      17.760599   17.831985   23.414981 H          1 MOL1         0.3773
@<TRIPOS>BOND
    1     1     2    1
    2     1     3    1
    3     1     4    1
    4     4     5    1
    5     4     6    1
    6     4     7    1
    7     7     8    1
    8     1     9    1
    9     7     9    1
   10     9    10    1
   11     9    11    1
   12     7    12    1
   13    12    13    1
@<TRIPOS>SUBSTRUCTURE
       1 MOL1            1 RESIDUE      1      MOL     
@<SCITEGIC>MOL_PROPERTY
VConf Rank
SciTegic.value.IntegerValue
913

@<SCITEGIC>MOL_PROPERTY
Conf_Id
SciTegic.value.IntegerValue
20

@<SCITEGIC>MOL_PROPERTY
Delta U+W
SciTegic.value.DoubleValue
1.030

@<SCITEGIC>MOL_PROPERTY
U+W
SciTegic.value.DoubleValue
-2.101

@<SCITEGIC>MOL_PROPERTY
Grad RMS
SciTegic.value.DoubleValue
0.000000

@<SCITEGIC>MOL_PROPERTY
U
SciTegic.value.DoubleValue
0.841

@<SCITEGIC>MOL_PROPERTY
W
SciTegic.value.DoubleValue
-2.942

@<SCITEGIC>MOL_PROPERTY
W(PB)
SciTegic.value.DoubleValue
-4.530

@<SCITEGIC>MOL_PROPERTY
W(SA)
SciTegic.value.DoubleValue
1.587

@<SCITEGIC>MOL_PROPERTY
Valence
SciTegic.value.DoubleValue
6.736

@<SCITEGIC>MOL_PROPERTY
Coulomb
SciTegic.value.DoubleValue
-7.246

@<SCITEGIC>MOL_PROPERTY
VdW
SciTegic.value.DoubleValue
1.352

@<SCITEGIC>MOL_PROPERTY
VdW6
SciTegic.value.DoubleValue
-2.500

@<SCITEGIC>MOL_PROPERTY
VdW12
SciTegic.value.DoubleValue
3.851

@<SCITEGIC>MOL_PROPERTY
Bond
SciTegic.value.DoubleValue
0.063

@<SCITEGIC>MOL_PROPERTY
Angle
SciTegic.value.DoubleValue
0.687

@<SCITEGIC>MOL_PROPERTY
Pdih
SciTegic.value.DoubleValue
5.986

@<SCITEGIC>MOL_PROPERTY
Idih
SciTegic.value.DoubleValue
0.000

@<SCITEGIC>MOL_PROPERTY
Tether
SciTegic.value.DoubleValue
0.000

@<TRIPOS>MOLECULE
guest-s16_confgen4.mol2 : confsearch ligand conformer 914
          13          13           1
SMALL
USER_CHARGES
 
@<TRIPOS>ATOM
       1    C1      21.009428   18.954021   22.432615 C.3        1 MOL1        -0.1693
       2    H1      21.632173   18.250482   21.864380 H          1 MOL1         0.0829
       3    H2      21.657024   19.532809   23.101977 H          1 MOL1         0.0829
       4    C2      19.736767   18.320687   23.085746 C.3        1 MOL1        -0.1768
       5    H3      19.829068   17.278110   23.409485 H          1 MOL1         0.0829
       6    H4      19.303509   18.906754   23.905624 H          1 MOL1         0.0829
       7    C3      19.064580   18.541061   21.696949 C.3        1 MOL1         0.1211
       8    H5      19.277413   17.746047   20.969386 H          1 MOL1         0.0786
       9    C4      20.000922   19.780336   21.568048 C.3        1 MOL1        -0.1768
      10    H6      19.626707   20.692653   22.048703 H          1 MOL1         0.0829
      11    H7      20.326511   20.026853   20.551430 H          1 MOL1         0.0829
      12    O1      17.686320   18.825782   21.730891 O.3        1 MOL1        -0.5515
      13    H8      17.558180   19.537241   22.392801 H          1 MOL1         0.3773
@<TRIPOS>BOND
    1     1     2    1
    2     1     3    1
    3     1     4    1
    4     4     5    1
    5     4     6    1
    6     4     7    1
    7     7     8    1
    8     1     9    1
    9     7     9    1
   10     9    10    1
   11     9    11    1
   12     7    12    1
   13    12    13    1
@<TRIPOS>SUBSTRUCTURE
       1 MOL1            1 RESIDUE      1      MOL     
@<SCITEGIC>MOL_PROPERTY
VConf Rank
SciTegic.value.IntegerValue
914

@<SCITEGIC>MOL_PROPERTY
Conf_Id
SciTegic.value.IntegerValue
24

@<SCITEGIC>MOL_PROPERTY
Delta U+W
SciTegic.value.DoubleValue
0.356

@<SCITEGIC>MOL_PROPERTY
U+W
SciTegic.value.DoubleValue
-2.775

@<SCITEGIC>MOL_PROPERTY
Grad RMS
SciTegic.value.DoubleValue
0.000000

@<SCITEGIC>MOL_PROPERTY
U
SciTegic.value.DoubleValue
-0.184

@<SCITEGIC>MOL_PROPERTY
W
SciTegic.value.DoubleValue
-2.591

@<SCITEGIC>MOL_PROPERTY
W(PB)
SciTegic.value.DoubleValue
-4.184

@<SCITEGIC>MOL_PROPERTY
W(SA)
SciTegic.value.DoubleValue
1.593

@<SCITEGIC>MOL_PROPERTY
Valence
SciTegic.value.DoubleValue
6.840

@<SCITEGIC>MOL_PROPERTY
Coulomb
SciTegic.value.DoubleValue
-7.916

@<SCITEGIC>MOL_PROPERTY
VdW
SciTegic.value.DoubleValue
0.893

@<SCITEGIC>MOL_PROPERTY
VdW6
SciTegic.value.DoubleValue
-2.167

@<SCITEGIC>MOL_PROPERTY
VdW12
SciTegic.value.DoubleValue
3.060

@<SCITEGIC>MOL_PROPERTY
Bond
SciTegic.value.DoubleValue
0.059

@<SCITEGIC>MOL_PROPERTY
Angle
SciTegic.value.DoubleValue
0.918

@<SCITEGIC>MOL_PROPERTY
Pdih
SciTegic.value.DoubleValue
5.862

@<SCITEGIC>MOL_PROPERTY
Idih
SciTegic.value.DoubleValue
0.000

@<SCITEGIC>MOL_PROPERTY
Tether
SciTegic.value.DoubleValue
0.000

@<TRIPOS>MOLECULE
guest-s16_confgen4.mol2 : confsearch ligand conformer 915
          13          13           1
SMALL
USER_CHARGES
 
@<TRIPOS>ATOM
       1    C1      19.913539   19.968953   21.739347 C.3        1 MOL1        -0.1693
       2    H1      19.659403   21.035275   21.712034 H          1 MOL1         0.0829
       3    H2      20.713480   19.784585   21.011062 H          1 MOL1         0.0829
       4    C2      18.706579   18.975652   21.657265 C.3        1 MOL1        -0.1768
       5    H3      17.775083   19.357114   22.092945 H          1 MOL1         0.0829
       6    H4      18.484757   18.565639   20.665604 H          1 MOL1         0.0829
       7    C3      19.522647   18.049270   22.611122 C.3        1 MOL1         0.1211
       8    H5      18.919584   17.491598   23.338998 H          1 MOL1         0.0786
       9    C4      20.163684   19.361414   23.160071 C.3        1 MOL1        -0.1768
      10    H6      19.589450   19.837460   23.964216 H          1 MOL1         0.0829
      11    H7      21.210147   19.287176   23.476474 H          1 MOL1         0.0829
      12    O1      20.422945   17.177630   21.961942 O.3        1 MOL1        -0.5515
      13    H8      20.930559   17.726204   21.328927 H          1 MOL1         0.3773
@<TRIPOS>BOND
    1     1     2    1
    2     1     3    1
    3     1     4    1
    4     4     5    1
    5     4     6    1
    6     4     7    1
    7     7     8    1
    8     1     9    1
    9     7     9    1
   10     9    10    1
   11     9    11    1
   12     7    12    1
   13    12    13    1
@<TRIPOS>SUBSTRUCTURE
       1 MOL1            1 RESIDUE      1      MOL     
@<SCITEGIC>MOL_PROPERTY
VConf Rank
SciTegic.value.IntegerValue
915

@<SCITEGIC>MOL_PROPERTY
Conf_Id
SciTegic.value.IntegerValue
44

@<SCITEGIC>MOL_PROPERTY
Delta U+W
SciTegic.value.DoubleValue
0.823

@<SCITEGIC>MOL_PROPERTY
U+W
SciTegic.value.DoubleValue
-2.308

@<SCITEGIC>MOL_PROPERTY
Grad RMS
SciTegic.value.DoubleValue
0.000000

@<SCITEGIC>MOL_PROPERTY
U
SciTegic.value.DoubleValue
0.039

@<SCITEGIC>MOL_PROPERTY
W
SciTegic.value.DoubleValue
-2.348

@<SCITEGIC>MOL_PROPERTY
W(PB)
SciTegic.value.DoubleValue
-3.918

@<SCITEGIC>MOL_PROPERTY
W(SA)
SciTegic.value.DoubleValue
1.571

@<SCITEGIC>MOL_PROPERTY
Valence
SciTegic.value.DoubleValue
7.320

@<SCITEGIC>MOL_PROPERTY
Coulomb
SciTegic.value.DoubleValue
-8.530

@<SCITEGIC>MOL_PROPERTY
VdW
SciTegic.value.DoubleValue
1.249

@<SCITEGIC>MOL_PROPERTY
VdW6
SciTegic.value.DoubleValue
-2.615

@<SCITEGIC>MOL_PROPERTY
VdW12
SciTegic.value.DoubleValue
3.864

@<SCITEGIC>MOL_PROPERTY
Bond
SciTegic.value.DoubleValue
0.056

@<SCITEGIC>MOL_PROPERTY
Angle
SciTegic.value.DoubleValue
0.694

@<SCITEGIC>MOL_PROPERTY
Pdih
SciTegic.value.DoubleValue
6.570

@<SCITEGIC>MOL_PROPERTY
Idih
SciTegic.value.DoubleValue
0.000

@<SCITEGIC>MOL_PROPERTY
Tether
SciTegic.value.DoubleValue
0.000

@<TRIPOS>MOLECULE
guest-s16_confgen4.mol2 : confsearch ligand conformer 916
          13          13           1
SMALL
USER_CHARGES
 
@<TRIPOS>ATOM
       1    C1      20.774920   18.828849   21.563998 C.3        1 MOL1        -0.1693
       2    H1      21.653596   18.654165   22.198820 H          1 MOL1         0.0829
       3    H2      21.073832   18.721045   20.514537 H          1 MOL1         0.0829
       4    C2      19.957978   20.115457   21.916918 C.3        1 MOL1        -0.1768
       5    H3      20.533820   20.962844   22.304606 H          1 MOL1         0.0829
       6    H4      19.296943   20.473908   21.118087 H          1 MOL1         0.0829
       7    C3      19.254381   19.227868   22.987426 C.3        1 MOL1         0.1211
       8    H5      19.816020   19.138905   23.927484 H          1 MOL1         0.0786
       9    C4      19.489686   18.048528   21.995972 C.3        1 MOL1        -0.1768
      10    H6      19.652621   17.065921   22.452160 H          1 MOL1         0.0829
      11    H7      18.727262   17.952359   21.212866 H          1 MOL1         0.0829
      12    O1      17.904744   19.543673   23.239004 O.3        1 MOL1        -0.5515
      13    H8      17.536925   18.824387   23.796265 H          1 MOL1         0.3773
@<TRIPOS>BOND
    1     1     2    1
    2     1     3    1
    3     1     4    1
    4     4     5    1
    5     4     6    1
    6     4     7    1
    7     7     8    1
    8     1     9    1
    9     7     9    1
   10     9    10    1
   11     9    11    1
   12     7    12    1
   13    12    13    1
@<TRIPOS>SUBSTRUCTURE
       1 MOL1            1 RESIDUE      1      MOL     
@<SCITEGIC>MOL_PROPERTY
VConf Rank
SciTegic.value.IntegerValue
916

@<SCITEGIC>MOL_PROPERTY
Conf_Id
SciTegic.value.IntegerValue
22

@<SCITEGIC>MOL_PROPERTY
Delta U+W
SciTegic.value.DoubleValue
0.000

@<SCITEGIC>MOL_PROPERTY
U+W
SciTegic.value.DoubleValue
-3.131

@<SCITEGIC>MOL_PROPERTY
Grad RMS
SciTegic.value.DoubleValue
0.000000

@<SCITEGIC>MOL_PROPERTY
U
SciTegic.value.DoubleValue
-0.154

@<SCITEGIC>MOL_PROPERTY
W
SciTegic.value.DoubleValue
-2.978

@<SCITEGIC>MOL_PROPERTY
W(PB)
SciTegic.value.DoubleValue
-4.579

@<SCITEGIC>MOL_PROPERTY
W(SA)
SciTegic.value.DoubleValue
1.601

@<SCITEGIC>MOL_PROPERTY
Valence
SciTegic.value.DoubleValue
6.333

@<SCITEGIC>MOL_PROPERTY
Coulomb
SciTegic.value.DoubleValue
-7.439

@<SCITEGIC>MOL_PROPERTY
VdW
SciTegic.value.DoubleValue
0.952

@<SCITEGIC>MOL_PROPERTY
VdW6
SciTegic.value.DoubleValue
-2.120

@<SCITEGIC>MOL_PROPERTY
VdW12
SciTegic.value.DoubleValue
3.072

@<SCITEGIC>MOL_PROPERTY
Bond
SciTegic.value.DoubleValue
0.065

@<SCITEGIC>MOL_PROPERTY
Angle
SciTegic.value.DoubleValue
0.931

@<SCITEGIC>MOL_PROPERTY
Pdih
SciTegic.value.DoubleValue
5.338

@<SCITEGIC>MOL_PROPERTY
Idih
SciTegic.value.DoubleValue
0.000

@<SCITEGIC>MOL_PROPERTY
Tether
SciTegic.value.DoubleValue
0.000

@<TRIPOS>MOLECULE
guest-s16_confgen4.mol2 : confsearch ligand conformer 917
          13          13           1
SMALL
USER_CHARGES
 
@<TRIPOS>ATOM
       1    C1      20.115782   19.021910   21.023022 C.3        1 MOL1        -0.1693
       2    H1      20.752992   18.174222   20.738463 H          1 MOL1         0.0829
       3    H2      20.110326   19.747613   20.201034 H          1 MOL1         0.0829
       4    C2      20.395209   19.601158   22.449108 C.3        1 MOL1        -0.1768
       5    H3      20.015077   20.617174   22.613439 H          1 MOL1         0.0829
       6    H4      21.433878   19.553090   22.794112 H          1 MOL1         0.0829
       7    C3      19.455686   18.467674   22.960682 C.3        1 MOL1         0.1211
       8    H5      19.954774   17.496782   23.084541 H          1 MOL1         0.0786
       9    C4      18.716157   18.624488   21.597836 C.3        1 MOL1        -0.1768
      10    H6      17.966405   19.425131   21.577152 H          1 MOL1         0.0829
      11    H7      18.267898   17.711358   21.191366 H          1 MOL1         0.0829
      12    O1      18.691793   18.786502   24.100579 O.3        1 MOL1        -0.5515
      13    H8      19.306122   18.807278   24.865675 H          1 MOL1         0.3773
@<TRIPOS>BOND
    1     1     2    1
    2     1     3    1
    3     1     4    1
    4     4     5    1
    5     4     6    1
    6     4     7    1
    7     7     8    1
    8     1     9    1
    9     7     9    1
   10     9    10    1
   11     9    11    1
   12     7    12    1
   13    12    13    1
@<TRIPOS>SUBSTRUCTURE
       1 MOL1            1 RESIDUE      1      MOL     
@<SCITEGIC>MOL_PROPERTY
VConf Rank
SciTegic.value.IntegerValue
917

@<SCITEGIC>MOL_PROPERTY
Conf_Id
SciTegic.value.IntegerValue
19

@<SCITEGIC>MOL_PROPERTY
Delta U+W
SciTegic.value.DoubleValue
-0.011

@<SCITEGIC>MOL_PROPERTY
U+W
SciTegic.value.DoubleValue
-3.142

@<SCITEGIC>MOL_PROPERTY
Grad RMS
SciTegic.value.DoubleValue
0.000000

@<SCITEGIC>MOL_PROPERTY
U
SciTegic.value.DoubleValue
-0.154

@<SCITEGIC>MOL_PROPERTY
W
SciTegic.value.DoubleValue
-2.989

@<SCITEGIC>MOL_PROPERTY
W(PB)
SciTegic.value.DoubleValue
-4.588

@<SCITEGIC>MOL_PROPERTY
W(SA)
SciTegic.value.DoubleValue
1.599

@<SCITEGIC>MOL_PROPERTY
Valence
SciTegic.value.DoubleValue
6.334

@<SCITEGIC>MOL_PROPERTY
Coulomb
SciTegic.value.DoubleValue
-7.439

@<SCITEGIC>MOL_PROPERTY
VdW
SciTegic.value.DoubleValue
0.951

@<SCITEGIC>MOL_PROPERTY
VdW6
SciTegic.value.DoubleValue
-2.120

@<SCITEGIC>MOL_PROPERTY
VdW12
SciTegic.value.DoubleValue
3.072

@<SCITEGIC>MOL_PROPERTY
Bond
SciTegic.value.DoubleValue
0.065

@<SCITEGIC>MOL_PROPERTY
Angle
SciTegic.value.DoubleValue
0.930

@<SCITEGIC>MOL_PROPERTY
Pdih
SciTegic.value.DoubleValue
5.339

@<SCITEGIC>MOL_PROPERTY
Idih
SciTegic.value.DoubleValue
0.000

@<SCITEGIC>MOL_PROPERTY
Tether
SciTegic.value.DoubleValue
0.000

@<TRIPOS>MOLECULE
guest-s16_confgen4.mol2 : confsearch ligand conformer 918
          13          13           1
SMALL
USER_CHARGES
 
@<TRIPOS>ATOM
       1    C1      19.456851   18.410775   23.316286 C.3        1 MOL1        -0.1693
       2    H1      19.525438   18.431133   24.410296 H          1 MOL1         0.0829
       3    H2      18.998598   17.461079   23.010854 H          1 MOL1         0.0829
       4    C2      20.762497   18.782022   22.537548 C.3        1 MOL1        -0.1768
       5    H3      21.410865   19.500873   23.052949 H          1 MOL1         0.0829
       6    H4      21.374751   17.940165   22.195766 H          1 MOL1         0.0829
       7    C3      19.827186   19.420156   21.463580 C.3        1 MOL1         0.1211
       8    H5      20.226160   20.326734   20.990558 H          1 MOL1         0.0786
       9    C4      18.836446   19.679031   22.641508 C.3        1 MOL1        -0.1768
      10    H6      17.770784   19.618890   22.394325 H          1 MOL1         0.0829
      11    H7      19.017605   20.615623   23.182758 H          1 MOL1         0.0829
      12    O1      19.358891   18.524753   20.475098 O.3        1 MOL1        -0.5515
      13    H8      18.655615   18.988462   19.972572 H          1 MOL1         0.3773
@<TRIPOS>BOND
    1     1     2    1
    2     1     3    1
    3     1     4    1
    4     4     5    1
    5     4     6    1
    6     4     7    1
    7     7     8    1
    8     1     9    1
    9     7     9    1
   10     9    10    1
   11     9    11    1
   12     7    12    1
   13    12    13    1
@<TRIPOS>SUBSTRUCTURE
       1 MOL1            1 RESIDUE      1      MOL     
@<SCITEGIC>MOL_PROPERTY
VConf Rank
SciTegic.value.IntegerValue
918

@<SCITEGIC>MOL_PROPERTY
Conf_Id
SciTegic.value.IntegerValue
20

@<SCITEGIC>MOL_PROPERTY
Delta U+W
SciTegic.value.DoubleValue
1.030

@<SCITEGIC>MOL_PROPERTY
U+W
SciTegic.value.DoubleValue
-2.101

@<SCITEGIC>MOL_PROPERTY
Grad RMS
SciTegic.value.DoubleValue
0.000000

@<SCITEGIC>MOL_PROPERTY
U
SciTegic.value.DoubleValue
0.841

@<SCITEGIC>MOL_PROPERTY
W
SciTegic.value.DoubleValue
-2.942

@<SCITEGIC>MOL_PROPERTY
W(PB)
SciTegic.value.DoubleValue
-4.530

@<SCITEGIC>MOL_PROPERTY
W(SA)
SciTegic.value.DoubleValue
1.587

@<SCITEGIC>MOL_PROPERTY
Valence
SciTegic.value.DoubleValue
6.736

@<SCITEGIC>MOL_PROPERTY
Coulomb
SciTegic.value.DoubleValue
-7.246

@<SCITEGIC>MOL_PROPERTY
VdW
SciTegic.value.DoubleValue
1.352

@<SCITEGIC>MOL_PROPERTY
VdW6
SciTegic.value.DoubleValue
-2.500

@<SCITEGIC>MOL_PROPERTY
VdW12
SciTegic.value.DoubleValue
3.851

@<SCITEGIC>MOL_PROPERTY
Bond
SciTegic.value.DoubleValue
0.063

@<SCITEGIC>MOL_PROPERTY
Angle
SciTegic.value.DoubleValue
0.687

@<SCITEGIC>MOL_PROPERTY
Pdih
SciTegic.value.DoubleValue
5.986

@<SCITEGIC>MOL_PROPERTY
Idih
SciTegic.value.DoubleValue
0.000

@<SCITEGIC>MOL_PROPERTY
Tether
SciTegic.value.DoubleValue
0.000

@<TRIPOS>MOLECULE
guest-s16_confgen4.mol2 : confsearch ligand conformer 919
          13          13           1
SMALL
USER_CHARGES
 
@<TRIPOS>ATOM
       1    C1      19.541137   19.328274   23.420411 C.3        1 MOL1        -0.1693
       2    H1      19.365375   20.396186   23.605726 H          1 MOL1         0.0829
       3    H2      19.496712   18.795039   24.377547 H          1 MOL1         0.0829
       4    C2      20.779584   19.016460   22.516874 C.3        1 MOL1        -0.1768
       5    H3      21.624094   19.709354   22.600492 H          1 MOL1         0.0829
       6    H4      21.157465   17.989734   22.597040 H          1 MOL1         0.0829
       7    C3      19.814471   19.267292   21.319044 C.3        1 MOL1         0.1211
       8    H5      19.695847   20.327919   21.058868 H          1 MOL1         0.0786
       9    C4      18.694809   18.718889   22.254334 C.3        1 MOL1        -0.1768
      10    H6      18.606718   17.625653   22.275820 H          1 MOL1         0.0829
      11    H7      17.698147   19.148982   22.106088 H          1 MOL1         0.0829
      12    O1      20.069134   18.499821   20.166677 O.3        1 MOL1        -0.5515
      13    H8      20.165109   17.569235   20.459113 H          1 MOL1         0.3773
@<TRIPOS>BOND
    1     1     2    1
    2     1     3    1
    3     1     4    1
    4     4     5    1
    5     4     6    1
    6     4     7    1
    7     7     8    1
    8     1     9    1
    9     7     9    1
   10     9    10    1
   11     9    11    1
   12     7    12    1
   13    12    13    1
@<TRIPOS>SUBSTRUCTURE
       1 MOL1            1 RESIDUE      1      MOL     
@<SCITEGIC>MOL_PROPERTY
VConf Rank
SciTegic.value.IntegerValue
919

@<SCITEGIC>MOL_PROPERTY
Conf_Id
SciTegic.value.IntegerValue
24

@<SCITEGIC>MOL_PROPERTY
Delta U+W
SciTegic.value.DoubleValue
0.356

@<SCITEGIC>MOL_PROPERTY
U+W
SciTegic.value.DoubleValue
-2.775

@<SCITEGIC>MOL_PROPERTY
Grad RMS
SciTegic.value.DoubleValue
0.000000

@<SCITEGIC>MOL_PROPERTY
U
SciTegic.value.DoubleValue
-0.184

@<SCITEGIC>MOL_PROPERTY
W
SciTegic.value.DoubleValue
-2.591

@<SCITEGIC>MOL_PROPERTY
W(PB)
SciTegic.value.DoubleValue
-4.184

@<SCITEGIC>MOL_PROPERTY
W(SA)
SciTegic.value.DoubleValue
1.593

@<SCITEGIC>MOL_PROPERTY
Valence
SciTegic.value.DoubleValue
6.840

@<SCITEGIC>MOL_PROPERTY
Coulomb
SciTegic.value.DoubleValue
-7.916

@<SCITEGIC>MOL_PROPERTY
VdW
SciTegic.value.DoubleValue
0.893

@<SCITEGIC>MOL_PROPERTY
VdW6
SciTegic.value.DoubleValue
-2.167

@<SCITEGIC>MOL_PROPERTY
VdW12
SciTegic.value.DoubleValue
3.060

@<SCITEGIC>MOL_PROPERTY
Bond
SciTegic.value.DoubleValue
0.059

@<SCITEGIC>MOL_PROPERTY
Angle
SciTegic.value.DoubleValue
0.918

@<SCITEGIC>MOL_PROPERTY
Pdih
SciTegic.value.DoubleValue
5.862

@<SCITEGIC>MOL_PROPERTY
Idih
SciTegic.value.DoubleValue
0.000

@<SCITEGIC>MOL_PROPERTY
Tether
SciTegic.value.DoubleValue
0.000

@<TRIPOS>MOLECULE
guest-s16_confgen4.mol2 : confsearch ligand conformer 920
          13          13           1
SMALL
USER_CHARGES
 
@<TRIPOS>ATOM
       1    C1      20.282830   18.328142   21.498172 C.3        1 MOL1        -0.1693
       2    H1      20.327946   17.892187   20.493044 H          1 MOL1         0.0829
       3    H2      21.178052   18.016964   22.051381 H          1 MOL1         0.0829
       4    C2      18.933318   18.135564   22.267503 C.3        1 MOL1        -0.1768
       5    H3      18.047638   18.081635   21.622773 H          1 MOL1         0.0829
       6    H4      18.897225   17.302953   22.978956 H          1 MOL1         0.0829
       7    C3      19.188207   19.546789   22.881888 C.3        1 MOL1         0.1211
       8    H5      18.285510   20.151105   23.038184 H          1 MOL1         0.0786
       9    C4      19.965994   19.859525   21.566123 C.3        1 MOL1        -0.1768
      10    H6      19.333512   20.228284   20.749424 H          1 MOL1         0.0829
      11    H7      20.828757   20.527474   21.667081 H          1 MOL1         0.0829
      12    O1      19.978575   19.549025   24.051092 O.3        1 MOL1        -0.5515
      13    H8      20.764291   18.998324   23.854387 H          1 MOL1         0.3773
@<TRIPOS>BOND
    1     1     2    1
    2     1     3    1
    3     1     4    1
    4     4     5    1
    5     4     6    1
    6     4     7    1
    7     7     8    1
    8     1     9    1
    9     7     9    1
   10     9    10    1
   11     9    11    1
   12     7    12    1
   13    12    13    1
@<TRIPOS>SUBSTRUCTURE
       1 MOL1            1 RESIDUE      1      MOL     
@<SCITEGIC>MOL_PROPERTY
VConf Rank
SciTegic.value.IntegerValue
920

@<SCITEGIC>MOL_PROPERTY
Conf_Id
SciTegic.value.IntegerValue
44

@<SCITEGIC>MOL_PROPERTY
Delta U+W
SciTegic.value.DoubleValue
0.823

@<SCITEGIC>MOL_PROPERTY
U+W
SciTegic.value.DoubleValue
-2.308

@<SCITEGIC>MOL_PROPERTY
Grad RMS
SciTegic.value.DoubleValue
0.000000

@<SCITEGIC>MOL_PROPERTY
U
SciTegic.value.DoubleValue
0.039

@<SCITEGIC>MOL_PROPERTY
W
SciTegic.value.DoubleValue
-2.348

@<SCITEGIC>MOL_PROPERTY
W(PB)
SciTegic.value.DoubleValue
-3.918

@<SCITEGIC>MOL_PROPERTY
W(SA)
SciTegic.value.DoubleValue
1.571

@<SCITEGIC>MOL_PROPERTY
Valence
SciTegic.value.DoubleValue
7.320

@<SCITEGIC>MOL_PROPERTY
Coulomb
SciTegic.value.DoubleValue
-8.530

@<SCITEGIC>MOL_PROPERTY
VdW
SciTegic.value.DoubleValue
1.249

@<SCITEGIC>MOL_PROPERTY
VdW6
SciTegic.value.DoubleValue
-2.615

@<SCITEGIC>MOL_PROPERTY
VdW12
SciTegic.value.DoubleValue
3.864

@<SCITEGIC>MOL_PROPERTY
Bond
SciTegic.value.DoubleValue
0.056

@<SCITEGIC>MOL_PROPERTY
Angle
SciTegic.value.DoubleValue
0.694

@<SCITEGIC>MOL_PROPERTY
Pdih
SciTegic.value.DoubleValue
6.570

@<SCITEGIC>MOL_PROPERTY
Idih
SciTegic.value.DoubleValue
0.000

@<SCITEGIC>MOL_PROPERTY
Tether
SciTegic.value.DoubleValue
0.000

@<TRIPOS>MOLECULE
guest-s16_confgen4.mol2 : confsearch ligand conformer 921
          13          13           1
SMALL
USER_CHARGES
 
@<TRIPOS>ATOM
       1    C1      20.089409   19.033696   23.498482 C.3        1 MOL1        -0.1693
       2    H1      19.334510   19.379216   24.217043 H          1 MOL1         0.0829
       3    H2      20.984214   18.724570   24.051747 H          1 MOL1         0.0829
       4    C2      20.328380   19.994746   22.287457 C.3        1 MOL1        -0.1768
       5    H3      20.209387   21.064973   22.488490 H          1 MOL1         0.0829
       6    H4      21.275622   19.838570   21.756487 H          1 MOL1         0.0829
       7    C3      19.100704   19.286406   21.639450 C.3        1 MOL1         0.1211
       8    H5      18.132769   19.689414   21.967704 H          1 MOL1         0.0786
       9    C4      19.560109   18.023016   22.428111 C.3        1 MOL1        -0.1768
      10    H6      18.762086   17.347681   22.755606 H          1 MOL1         0.0829
      11    H7      20.339713   17.433220   21.929963 H          1 MOL1         0.0829
      12    O1      19.144099   19.169820   20.236215 O.3        1 MOL1        -0.5515
      13    H8      18.411725   18.572577   19.971388 H          1 MOL1         0.3773
@<TRIPOS>BOND
    1     1     2    1
    2     1     3    1
    3     1     4    1
    4     4     5    1
    5     4     6    1
    6     4     7    1
    7     7     8    1
    8     1     9    1
    9     7     9    1
   10     9    10    1
   11     9    11    1
   12     7    12    1
   13    12    13    1
@<TRIPOS>SUBSTRUCTURE
       1 MOL1            1 RESIDUE      1      MOL     
@<SCITEGIC>MOL_PROPERTY
VConf Rank
SciTegic.value.IntegerValue
921

@<SCITEGIC>MOL_PROPERTY
Conf_Id
SciTegic.value.IntegerValue
22

@<SCITEGIC>MOL_PROPERTY
Delta U+W
SciTegic.value.DoubleValue
0.000

@<SCITEGIC>MOL_PROPERTY
U+W
SciTegic.value.DoubleValue
-3.131

@<SCITEGIC>MOL_PROPERTY
Grad RMS
SciTegic.value.DoubleValue
0.000000

@<SCITEGIC>MOL_PROPERTY
U
SciTegic.value.DoubleValue
-0.154

@<SCITEGIC>MOL_PROPERTY
W
SciTegic.value.DoubleValue
-2.978

@<SCITEGIC>MOL_PROPERTY
W(PB)
SciTegic.value.DoubleValue
-4.579

@<SCITEGIC>MOL_PROPERTY
W(SA)
SciTegic.value.DoubleValue
1.601

@<SCITEGIC>MOL_PROPERTY
Valence
SciTegic.value.DoubleValue
6.333

@<SCITEGIC>MOL_PROPERTY
Coulomb
SciTegic.value.DoubleValue
-7.439

@<SCITEGIC>MOL_PROPERTY
VdW
SciTegic.value.DoubleValue
0.952

@<SCITEGIC>MOL_PROPERTY
VdW6
SciTegic.value.DoubleValue
-2.120

@<SCITEGIC>MOL_PROPERTY
VdW12
SciTegic.value.DoubleValue
3.072

@<SCITEGIC>MOL_PROPERTY
Bond
SciTegic.value.DoubleValue
0.065

@<SCITEGIC>MOL_PROPERTY
Angle
SciTegic.value.DoubleValue
0.931

@<SCITEGIC>MOL_PROPERTY
Pdih
SciTegic.value.DoubleValue
5.338

@<SCITEGIC>MOL_PROPERTY
Idih
SciTegic.value.DoubleValue
0.000

@<SCITEGIC>MOL_PROPERTY
Tether
SciTegic.value.DoubleValue
0.000

@<TRIPOS>MOLECULE
guest-s16_confgen4.mol2 : confsearch ligand conformer 922
          13          13           1
SMALL
USER_CHARGES
 
@<TRIPOS>ATOM
       1    C1      19.183922   20.129650   22.551586 C.3        1 MOL1        -0.1693
       2    H1      18.668281   20.171726   23.520053 H          1 MOL1         0.0829
       3    H2      19.132311   21.120034   22.083810 H          1 MOL1         0.0829
       4    C2      18.778443   18.920124   21.646068 C.3        1 MOL1        -0.1768
       5    H3      19.023155   19.041149   20.583401 H          1 MOL1         0.0829
       6    H4      17.740785   18.579580   21.732486 H          1 MOL1         0.0829
       7    C3      19.829814   18.111559   22.464625 C.3        1 MOL1         0.1211
       8    H5      19.450100   17.726505   23.420979 H          1 MOL1         0.0786
       9    C4      20.597946   19.461636   22.591549 C.3        1 MOL1        -0.1768
      10    H6      21.243148   19.699475   21.736721 H          1 MOL1         0.0829
      11    H7      21.171521   19.598300   23.514747 H          1 MOL1         0.0829
      12    O1      20.502414   17.100850   21.750044 O.3        1 MOL1        -0.5515
      13    H8      19.860259   16.373795   21.600941 H          1 MOL1         0.3773
@<TRIPOS>BOND
    1     1     2    1
    2     1     3    1
    3     1     4    1
    4     4     5    1
    5     4     6    1
    6     4     7    1
    7     7     8    1
    8     1     9    1
    9     7     9    1
   10     9    10    1
   11     9    11    1
   12     7    12    1
   13    12    13    1
@<TRIPOS>SUBSTRUCTURE
       1 MOL1            1 RESIDUE      1      MOL     
@<SCITEGIC>MOL_PROPERTY
VConf Rank
SciTegic.value.IntegerValue
922

@<SCITEGIC>MOL_PROPERTY
Conf_Id
SciTegic.value.IntegerValue
19

@<SCITEGIC>MOL_PROPERTY
Delta U+W
SciTegic.value.DoubleValue
-0.011

@<SCITEGIC>MOL_PROPERTY
U+W
SciTegic.value.DoubleValue
-3.142

@<SCITEGIC>MOL_PROPERTY
Grad RMS
SciTegic.value.DoubleValue
0.000000

@<SCITEGIC>MOL_PROPERTY
U
SciTegic.value.DoubleValue
-0.154

@<SCITEGIC>MOL_PROPERTY
W
SciTegic.value.DoubleValue
-2.989

@<SCITEGIC>MOL_PROPERTY
W(PB)
SciTegic.value.DoubleValue
-4.588

@<SCITEGIC>MOL_PROPERTY
W(SA)
SciTegic.value.DoubleValue
1.599

@<SCITEGIC>MOL_PROPERTY
Valence
SciTegic.value.DoubleValue
6.334

@<SCITEGIC>MOL_PROPERTY
Coulomb
SciTegic.value.DoubleValue
-7.439

@<SCITEGIC>MOL_PROPERTY
VdW
SciTegic.value.DoubleValue
0.951

@<SCITEGIC>MOL_PROPERTY
VdW6
SciTegic.value.DoubleValue
-2.120

@<SCITEGIC>MOL_PROPERTY
VdW12
SciTegic.value.DoubleValue
3.072

@<SCITEGIC>MOL_PROPERTY
Bond
SciTegic.value.DoubleValue
0.065

@<SCITEGIC>MOL_PROPERTY
Angle
SciTegic.value.DoubleValue
0.930

@<SCITEGIC>MOL_PROPERTY
Pdih
SciTegic.value.DoubleValue
5.339

@<SCITEGIC>MOL_PROPERTY
Idih
SciTegic.value.DoubleValue
0.000

@<SCITEGIC>MOL_PROPERTY
Tether
SciTegic.value.DoubleValue
0.000

@<TRIPOS>MOLECULE
guest-s16_confgen4.mol2 : confsearch ligand conformer 923
          13          13           1
SMALL
USER_CHARGES
 
@<TRIPOS>ATOM
       1    C1      19.514674   19.275596   23.486352 C.3        1 MOL1        -0.1693
       2    H1      19.002519   18.980096   24.409582 H          1 MOL1         0.0829
       3    H2      20.265995   20.037988   23.730246 H          1 MOL1         0.0829
       4    C2      18.593974   19.635737   22.273264 C.3        1 MOL1        -0.1768
       5    H3      17.643182   19.089835   22.245852 H          1 MOL1         0.0829
       6    H4      18.390446   20.701823   22.123499 H          1 MOL1         0.0829
       7    C3      19.708503   19.024566   21.367878 C.3        1 MOL1         0.1211
       8    H5      19.337554   18.494098   20.481417 H          1 MOL1         0.0786
       9    C4      20.040844   18.108214   22.586871 C.3        1 MOL1        -0.1768
      10    H6      21.096073   17.842216   22.713711 H          1 MOL1         0.0829
      11    H7      19.440731   17.191468   22.636021 H          1 MOL1         0.0829
      12    O1      20.734989   19.923784   20.999261 O.3        1 MOL1        -0.5515
      13    H8      21.452203   19.394274   20.590144 H          1 MOL1         0.3773
@<TRIPOS>BOND
    1     1     2    1
    2     1     3    1
    3     1     4    1
    4     4     5    1
    5     4     6    1
    6     4     7    1
    7     7     8    1
    8     1     9    1
    9     7     9    1
   10     9    10    1
   11     9    11    1
   12     7    12    1
   13    12    13    1
@<TRIPOS>SUBSTRUCTURE
       1 MOL1            1 RESIDUE      1      MOL     
@<SCITEGIC>MOL_PROPERTY
VConf Rank
SciTegic.value.IntegerValue
923

@<SCITEGIC>MOL_PROPERTY
Conf_Id
SciTegic.value.IntegerValue
20

@<SCITEGIC>MOL_PROPERTY
Delta U+W
SciTegic.value.DoubleValue
1.030

@<SCITEGIC>MOL_PROPERTY
U+W
SciTegic.value.DoubleValue
-2.101

@<SCITEGIC>MOL_PROPERTY
Grad RMS
SciTegic.value.DoubleValue
0.000000

@<SCITEGIC>MOL_PROPERTY
U
SciTegic.value.DoubleValue
0.841

@<SCITEGIC>MOL_PROPERTY
W
SciTegic.value.DoubleValue
-2.942

@<SCITEGIC>MOL_PROPERTY
W(PB)
SciTegic.value.DoubleValue
-4.530

@<SCITEGIC>MOL_PROPERTY
W(SA)
SciTegic.value.DoubleValue
1.587

@<SCITEGIC>MOL_PROPERTY
Valence
SciTegic.value.DoubleValue
6.736

@<SCITEGIC>MOL_PROPERTY
Coulomb
SciTegic.value.DoubleValue
-7.246

@<SCITEGIC>MOL_PROPERTY
VdW
SciTegic.value.DoubleValue
1.352

@<SCITEGIC>MOL_PROPERTY
VdW6
SciTegic.value.DoubleValue
-2.500

@<SCITEGIC>MOL_PROPERTY
VdW12
SciTegic.value.DoubleValue
3.851

@<SCITEGIC>MOL_PROPERTY
Bond
SciTegic.value.DoubleValue
0.063

@<SCITEGIC>MOL_PROPERTY
Angle
SciTegic.value.DoubleValue
0.687

@<SCITEGIC>MOL_PROPERTY
Pdih
SciTegic.value.DoubleValue
5.986

@<SCITEGIC>MOL_PROPERTY
Idih
SciTegic.value.DoubleValue
0.000

@<SCITEGIC>MOL_PROPERTY
Tether
SciTegic.value.DoubleValue
0.000

@<TRIPOS>MOLECULE
guest-s16_confgen4.mol2 : confsearch ligand conformer 924
          13          13           1
SMALL
USER_CHARGES
 
@<TRIPOS>ATOM
       1    C1      21.021098   18.889672   22.089892 C.3        1 MOL1        -0.1693
       2    H1      21.520989   19.664919   21.494265 H          1 MOL1         0.0829
       3    H2      21.780363   18.194208   22.467078 H          1 MOL1         0.0829
       4    C2      19.774436   18.239943   21.403566 C.3        1 MOL1        -0.1768
       5    H3      19.812517   18.159427   20.311614 H          1 MOL1         0.0829
       6    H4      19.478576   17.268299   21.818008 H          1 MOL1         0.0829
       7    C3      18.983026   19.459619   21.965008 C.3        1 MOL1         0.1211
       8    H5      19.052545   20.360082   21.339686 H          1 MOL1         0.0786
       9    C4      20.001009   19.431694   23.144875 C.3        1 MOL1        -0.1768
      10    H6      19.755791   18.726420   23.948520 H          1 MOL1         0.0829
      11    H7      20.239186   20.403674   23.590764 H          1 MOL1         0.0829
      12    O1      17.644194   19.201885   22.315607 O.3        1 MOL1        -0.5515
      13    H8      17.644871   18.392994   22.869153 H          1 MOL1         0.3773
@<TRIPOS>BOND
    1     1     2    1
    2     1     3    1
    3     1     4    1
    4     4     5    1
    5     4     6    1
    6     4     7    1
    7     7     8    1
    8     1     9    1
    9     7     9    1
   10     9    10    1
   11     9    11    1
   12     7    12    1
   13    12    13    1
@<TRIPOS>SUBSTRUCTURE
       1 MOL1            1 RESIDUE      1      MOL     
@<SCITEGIC>MOL_PROPERTY
VConf Rank
SciTegic.value.IntegerValue
924

@<SCITEGIC>MOL_PROPERTY
Conf_Id
SciTegic.value.IntegerValue
24

@<SCITEGIC>MOL_PROPERTY
Delta U+W
SciTegic.value.DoubleValue
0.356

@<SCITEGIC>MOL_PROPERTY
U+W
SciTegic.value.DoubleValue
-2.775

@<SCITEGIC>MOL_PROPERTY
Grad RMS
SciTegic.value.DoubleValue
0.000000

@<SCITEGIC>MOL_PROPERTY
U
SciTegic.value.DoubleValue
-0.184

@<SCITEGIC>MOL_PROPERTY
W
SciTegic.value.DoubleValue
-2.591

@<SCITEGIC>MOL_PROPERTY
W(PB)
SciTegic.value.DoubleValue
-4.184

@<SCITEGIC>MOL_PROPERTY
W(SA)
SciTegic.value.DoubleValue
1.593

@<SCITEGIC>MOL_PROPERTY
Valence
SciTegic.value.DoubleValue
6.840

@<SCITEGIC>MOL_PROPERTY
Coulomb
SciTegic.value.DoubleValue
-7.916

@<SCITEGIC>MOL_PROPERTY
VdW
SciTegic.value.DoubleValue
0.893

@<SCITEGIC>MOL_PROPERTY
VdW6
SciTegic.value.DoubleValue
-2.167

@<SCITEGIC>MOL_PROPERTY
VdW12
SciTegic.value.DoubleValue
3.060

@<SCITEGIC>MOL_PROPERTY
Bond
SciTegic.value.DoubleValue
0.059

@<SCITEGIC>MOL_PROPERTY
Angle
SciTegic.value.DoubleValue
0.918

@<SCITEGIC>MOL_PROPERTY
Pdih
SciTegic.value.DoubleValue
5.862

@<SCITEGIC>MOL_PROPERTY
Idih
SciTegic.value.DoubleValue
0.000

@<SCITEGIC>MOL_PROPERTY
Tether
SciTegic.value.DoubleValue
0.000

@<TRIPOS>MOLECULE
guest-s16_confgen4.mol2 : confsearch ligand conformer 925
          13          13           1
SMALL
USER_CHARGES
 
@<TRIPOS>ATOM
       1    C1      19.122795   19.929092   22.061078 C.3        1 MOL1        -0.1693
       2    H1      19.152008   20.950717   21.663836 H          1 MOL1         0.0829
       3    H2      18.131563   19.755727   22.498915 H          1 MOL1         0.0829
       4    C2      20.326525   19.514423   22.971693 C.3        1 MOL1        -0.1768
       5    H3      21.273555   20.009450   22.724512 H          1 MOL1         0.0829
       6    H4      20.164341   19.593067   24.052535 H          1 MOL1         0.0829
       7    C3      20.176925   18.086198   22.361949 C.3        1 MOL1         0.1211
       8    H5      21.121703   17.548712   22.210324 H          1 MOL1         0.0786
       9    C4      19.621035   18.804221   21.093319 C.3        1 MOL1        -0.1768
      10    H6      20.395088   19.125118   20.385588 H          1 MOL1         0.0829
      11    H7      18.844782   18.264697   20.539195 H          1 MOL1         0.0829
      12    O1      19.249617   17.254098   23.024849 O.3        1 MOL1        -0.5515
      13    H8      18.431921   17.782453   23.132214 H          1 MOL1         0.3773
@<TRIPOS>BOND
    1     1     2    1
    2     1     3    1
    3     1     4    1
    4     4     5    1
    5     4     6    1
    6     4     7    1
    7     7     8    1
    8     1     9    1
    9     7     9    1
   10     9    10    1
   11     9    11    1
   12     7    12    1
   13    12    13    1
@<TRIPOS>SUBSTRUCTURE
       1 MOL1            1 RESIDUE      1      MOL     
@<SCITEGIC>MOL_PROPERTY
VConf Rank
SciTegic.value.IntegerValue
925

@<SCITEGIC>MOL_PROPERTY
Conf_Id
SciTegic.value.IntegerValue
44

@<SCITEGIC>MOL_PROPERTY
Delta U+W
SciTegic.value.DoubleValue
0.823

@<SCITEGIC>MOL_PROPERTY
U+W
SciTegic.value.DoubleValue
-2.308

@<SCITEGIC>MOL_PROPERTY
Grad RMS
SciTegic.value.DoubleValue
0.000000

@<SCITEGIC>MOL_PROPERTY
U
SciTegic.value.DoubleValue
0.039

@<SCITEGIC>MOL_PROPERTY
W
SciTegic.value.DoubleValue
-2.348

@<SCITEGIC>MOL_PROPERTY
W(PB)
SciTegic.value.DoubleValue
-3.918

@<SCITEGIC>MOL_PROPERTY
W(SA)
SciTegic.value.DoubleValue
1.571

@<SCITEGIC>MOL_PROPERTY
Valence
SciTegic.value.DoubleValue
7.320

@<SCITEGIC>MOL_PROPERTY
Coulomb
SciTegic.value.DoubleValue
-8.530

@<SCITEGIC>MOL_PROPERTY
VdW
SciTegic.value.DoubleValue
1.249

@<SCITEGIC>MOL_PROPERTY
VdW6
SciTegic.value.DoubleValue
-2.615

@<SCITEGIC>MOL_PROPERTY
VdW12
SciTegic.value.DoubleValue
3.864

@<SCITEGIC>MOL_PROPERTY
Bond
SciTegic.value.DoubleValue
0.056

@<SCITEGIC>MOL_PROPERTY
Angle
SciTegic.value.DoubleValue
0.694

@<SCITEGIC>MOL_PROPERTY
Pdih
SciTegic.value.DoubleValue
6.570

@<SCITEGIC>MOL_PROPERTY
Idih
SciTegic.value.DoubleValue
0.000

@<SCITEGIC>MOL_PROPERTY
Tether
SciTegic.value.DoubleValue
0.000

@<TRIPOS>MOLECULE
guest-s16_confgen4.mol2 : confsearch ligand conformer 926
          13          13           1
SMALL
USER_CHARGES
 
@<TRIPOS>ATOM
       1    C1      20.870607   19.443882   22.611896 C.3        1 MOL1        -0.1693
       2    H1      20.872598   20.420729   23.113244 H          1 MOL1         0.0829
       3    H2      21.894550   19.051675   22.604605 H          1 MOL1         0.0829
       4    C2      20.113050   19.412146   21.243536 C.3        1 MOL1        -0.1768
       5    H3      20.143430   20.333868   20.652380 H          1 MOL1         0.0829
       6    H4      20.372856   18.567328   20.593637 H          1 MOL1         0.0829
       7    C3      18.827793   19.197516   22.098461 C.3        1 MOL1         0.1211
       8    H5      18.397035   20.128512   22.491851 H          1 MOL1         0.0786
       9    C4      19.760569   18.457629   23.104288 C.3        1 MOL1        -0.1768
      10    H6      19.481081   18.534725   24.160751 H          1 MOL1         0.0829
      11    H7      19.945139   17.403172   22.863775 H          1 MOL1         0.0829
      12    O1      17.832815   18.399597   21.500223 O.3        1 MOL1        -0.5515
      13    H8      17.161204   18.207127   22.189496 H          1 MOL1         0.3773
@<TRIPOS>BOND
    1     1     2    1
    2     1     3    1
    3     1     4    1
    4     4     5    1
    5     4     6    1
    6     4     7    1
    7     7     8    1
    8     1     9    1
    9     7     9    1
   10     9    10    1
   11     9    11    1
   12     7    12    1
   13    12    13    1
@<TRIPOS>SUBSTRUCTURE
       1 MOL1            1 RESIDUE      1      MOL     
@<SCITEGIC>MOL_PROPERTY
VConf Rank
SciTegic.value.IntegerValue
926

@<SCITEGIC>MOL_PROPERTY
Conf_Id
SciTegic.value.IntegerValue
22

@<SCITEGIC>MOL_PROPERTY
Delta U+W
SciTegic.value.DoubleValue
0.000

@<SCITEGIC>MOL_PROPERTY
U+W
SciTegic.value.DoubleValue
-3.131

@<SCITEGIC>MOL_PROPERTY
Grad RMS
SciTegic.value.DoubleValue
0.000000

@<SCITEGIC>MOL_PROPERTY
U
SciTegic.value.DoubleValue
-0.154

@<SCITEGIC>MOL_PROPERTY
W
SciTegic.value.DoubleValue
-2.978

@<SCITEGIC>MOL_PROPERTY
W(PB)
SciTegic.value.DoubleValue
-4.579

@<SCITEGIC>MOL_PROPERTY
W(SA)
SciTegic.value.DoubleValue
1.601

@<SCITEGIC>MOL_PROPERTY
Valence
SciTegic.value.DoubleValue
6.333

@<SCITEGIC>MOL_PROPERTY
Coulomb
SciTegic.value.DoubleValue
-7.439

@<SCITEGIC>MOL_PROPERTY
VdW
SciTegic.value.DoubleValue
0.952

@<SCITEGIC>MOL_PROPERTY
VdW6
SciTegic.value.DoubleValue
-2.120

@<SCITEGIC>MOL_PROPERTY
VdW12
SciTegic.value.DoubleValue
3.072

@<SCITEGIC>MOL_PROPERTY
Bond
SciTegic.value.DoubleValue
0.065

@<SCITEGIC>MOL_PROPERTY
Angle
SciTegic.value.DoubleValue
0.931

@<SCITEGIC>MOL_PROPERTY
Pdih
SciTegic.value.DoubleValue
5.338

@<SCITEGIC>MOL_PROPERTY
Idih
SciTegic.value.DoubleValue
0.000

@<SCITEGIC>MOL_PROPERTY
Tether
SciTegic.value.DoubleValue
0.000

@<TRIPOS>MOLECULE
guest-s16_confgen4.mol2 : confsearch ligand conformer 927
          13          13           1
SMALL
USER_CHARGES
 
@<TRIPOS>ATOM
       1    C1      20.210066   19.057199   21.068279 C.3        1 MOL1        -0.1693
       2    H1      20.672015   18.130444   20.703154 H          1 MOL1         0.0829
       3    H2      20.416157   19.858551   20.348766 H          1 MOL1         0.0829
       4    C2      20.504468   19.388430   22.568593 C.3        1 MOL1        -0.1768
       5    H3      20.337202   20.436229   22.847758 H          1 MOL1         0.0829
       6    H4      21.482521   19.073906   22.948935 H          1 MOL1         0.0829
       7    C3      19.312813   18.435486   22.886476 C.3        1 MOL1         0.1211
       8    H5      19.585275   17.371284   22.903798 H          1 MOL1         0.0786
       9    C4      18.721102   18.910339   21.525140 C.3        1 MOL1        -0.1768
      10    H6      18.161005   19.852250   21.576913 H          1 MOL1         0.0829
      11    H7      18.119647   18.172005   20.983776 H          1 MOL1         0.0829
      12    O1      18.555241   18.776500   24.024168 O.3        1 MOL1        -0.5515
      13    H8      19.104586   18.571758   24.811254 H          1 MOL1         0.3773
@<TRIPOS>BOND
    1     1     2    1
    2     1     3    1
    3     1     4    1
    4     4     5    1
    5     4     6    1
    6     4     7    1
    7     7     8    1
    8     1     9    1
    9     7     9    1
   10     9    10    1
   11     9    11    1
   12     7    12    1
   13    12    13    1
@<TRIPOS>SUBSTRUCTURE
       1 MOL1            1 RESIDUE      1      MOL     
@<SCITEGIC>MOL_PROPERTY
VConf Rank
SciTegic.value.IntegerValue
927

@<SCITEGIC>MOL_PROPERTY
Conf_Id
SciTegic.value.IntegerValue
19

@<SCITEGIC>MOL_PROPERTY
Delta U+W
SciTegic.value.DoubleValue
-0.011

@<SCITEGIC>MOL_PROPERTY
U+W
SciTegic.value.DoubleValue
-3.142

@<SCITEGIC>MOL_PROPERTY
Grad RMS
SciTegic.value.DoubleValue
0.000000

@<SCITEGIC>MOL_PROPERTY
U
SciTegic.value.DoubleValue
-0.154

@<SCITEGIC>MOL_PROPERTY
W
SciTegic.value.DoubleValue
-2.989

@<SCITEGIC>MOL_PROPERTY
W(PB)
SciTegic.value.DoubleValue
-4.588

@<SCITEGIC>MOL_PROPERTY
W(SA)
SciTegic.value.DoubleValue
1.599

@<SCITEGIC>MOL_PROPERTY
Valence
SciTegic.value.DoubleValue
6.334

@<SCITEGIC>MOL_PROPERTY
Coulomb
SciTegic.value.DoubleValue
-7.439

@<SCITEGIC>MOL_PROPERTY
VdW
SciTegic.value.DoubleValue
0.951

@<SCITEGIC>MOL_PROPERTY
VdW6
SciTegic.value.DoubleValue
-2.120

@<SCITEGIC>MOL_PROPERTY
VdW12
SciTegic.value.DoubleValue
3.072

@<SCITEGIC>MOL_PROPERTY
Bond
SciTegic.value.DoubleValue
0.065

@<SCITEGIC>MOL_PROPERTY
Angle
SciTegic.value.DoubleValue
0.930

@<SCITEGIC>MOL_PROPERTY
Pdih
SciTegic.value.DoubleValue
5.339

@<SCITEGIC>MOL_PROPERTY
Idih
SciTegic.value.DoubleValue
0.000

@<SCITEGIC>MOL_PROPERTY
Tether
SciTegic.value.DoubleValue
0.000

@<TRIPOS>MOLECULE
guest-s16_confgen4.mol2 : confsearch ligand conformer 928
          13          13           1
SMALL
USER_CHARGES
 
@<TRIPOS>ATOM
       1    C1      20.291833   18.129712   21.801991 C.3        1 MOL1        -0.1693
       2    H1      20.473933   17.523892   20.906559 H          1 MOL1         0.0829
       3    H2      21.019782   17.844676   22.572737 H          1 MOL1         0.0829
       4    C2      18.809751   18.193667   22.300304 C.3        1 MOL1        -0.1768
       5    H3      18.058562   18.114857   21.505150 H          1 MOL1         0.0829
       6    H4      18.542327   17.499967   23.105076 H          1 MOL1         0.0829
       7    C3      19.121457   19.657435   22.742630 C.3        1 MOL1         0.1211
       8    H5      18.285050   20.358435   22.625010 H          1 MOL1         0.0786
       9    C4      20.156067   19.671897   21.574097 C.3        1 MOL1        -0.1768
      10    H6      21.062323   20.264007   21.742791 H          1 MOL1         0.0829
      11    H7      19.731541   19.951432   20.602186 H          1 MOL1         0.0829
      12    O1      19.679015   19.782122   24.035582 O.3        1 MOL1        -0.5515
      13    H8      19.990046   20.707596   24.129986 H          1 MOL1         0.3773
@<TRIPOS>BOND
    1     1     2    1
    2     1     3    1
    3     1     4    1
    4     4     5    1
    5     4     6    1
    6     4     7    1
    7     7     8    1
    8     1     9    1
    9     7     9    1
   10     9    10    1
   11     9    11    1
   12     7    12    1
   13    12    13    1
@<TRIPOS>SUBSTRUCTURE
       1 MOL1            1 RESIDUE      1      MOL     
@<SCITEGIC>MOL_PROPERTY
VConf Rank
SciTegic.value.IntegerValue
928

@<SCITEGIC>MOL_PROPERTY
Conf_Id
SciTegic.value.IntegerValue
20

@<SCITEGIC>MOL_PROPERTY
Delta U+W
SciTegic.value.DoubleValue
1.030

@<SCITEGIC>MOL_PROPERTY
U+W
SciTegic.value.DoubleValue
-2.101

@<SCITEGIC>MOL_PROPERTY
Grad RMS
SciTegic.value.DoubleValue
0.000000

@<SCITEGIC>MOL_PROPERTY
U
SciTegic.value.DoubleValue
0.841

@<SCITEGIC>MOL_PROPERTY
W
SciTegic.value.DoubleValue
-2.942

@<SCITEGIC>MOL_PROPERTY
W(PB)
SciTegic.value.DoubleValue
-4.530

@<SCITEGIC>MOL_PROPERTY
W(SA)
SciTegic.value.DoubleValue
1.587

@<SCITEGIC>MOL_PROPERTY
Valence
SciTegic.value.DoubleValue
6.736

@<SCITEGIC>MOL_PROPERTY
Coulomb
SciTegic.value.DoubleValue
-7.246

@<SCITEGIC>MOL_PROPERTY
VdW
SciTegic.value.DoubleValue
1.352

@<SCITEGIC>MOL_PROPERTY
VdW6
SciTegic.value.DoubleValue
-2.500

@<SCITEGIC>MOL_PROPERTY
VdW12
SciTegic.value.DoubleValue
3.851

@<SCITEGIC>MOL_PROPERTY
Bond
SciTegic.value.DoubleValue
0.063

@<SCITEGIC>MOL_PROPERTY
Angle
SciTegic.value.DoubleValue
0.687

@<SCITEGIC>MOL_PROPERTY
Pdih
SciTegic.value.DoubleValue
5.986

@<SCITEGIC>MOL_PROPERTY
Idih
SciTegic.value.DoubleValue
0.000

@<SCITEGIC>MOL_PROPERTY
Tether
SciTegic.value.DoubleValue
0.000

@<TRIPOS>MOLECULE
guest-s16_confgen4.mol2 : confsearch ligand conformer 929
          13          13           1
SMALL
USER_CHARGES
 
@<TRIPOS>ATOM
       1    C1      20.183120   18.532917   23.341631 C.3        1 MOL1        -0.1693
       2    H1      19.609724   18.787674   24.242733 H          1 MOL1         0.0829
       3    H2      21.054911   17.937583   23.638245 H          1 MOL1         0.0829
       4    C2      20.466945   19.737565   22.384748 C.3        1 MOL1        -0.1768
       5    H3      20.595711   20.714208   22.864205 H          1 MOL1         0.0829
       6    H4      21.294237   19.578632   21.682099 H          1 MOL1         0.0829
       7    C3      19.049671   19.450809   21.803144 C.3        1 MOL1         0.1211
       8    H5      18.232405   19.901940   22.382152 H          1 MOL1         0.0786
       9    C4      19.328699   17.960220   22.162928 C.3        1 MOL1        -0.1768
      10    H6      19.901579   17.404029   21.410700 H          1 MOL1         0.0829
      11    H7      18.452220   17.367199   22.446482 H          1 MOL1         0.0829
      12    O1      18.893272   19.722258   20.430675 O.3        1 MOL1        -0.5515
      13    H8      19.646108   19.297805   19.968293 H          1 MOL1         0.3773
@<TRIPOS>BOND
    1     1     2    1
    2     1     3    1
    3     1     4    1
    4     4     5    1
    5     4     6    1
    6     4     7    1
    7     7     8    1
    8     1     9    1
    9     7     9    1
   10     9    10    1
   11     9    11    1
   12     7    12    1
   13    12    13    1
@<TRIPOS>SUBSTRUCTURE
       1 MOL1            1 RESIDUE      1      MOL     
@<SCITEGIC>MOL_PROPERTY
VConf Rank
SciTegic.value.IntegerValue
929

@<SCITEGIC>MOL_PROPERTY
Conf_Id
SciTegic.value.IntegerValue
24

@<SCITEGIC>MOL_PROPERTY
Delta U+W
SciTegic.value.DoubleValue
0.356

@<SCITEGIC>MOL_PROPERTY
U+W
SciTegic.value.DoubleValue
-2.775

@<SCITEGIC>MOL_PROPERTY
Grad RMS
SciTegic.value.DoubleValue
0.000000

@<SCITEGIC>MOL_PROPERTY
U
SciTegic.value.DoubleValue
-0.184

@<SCITEGIC>MOL_PROPERTY
W
SciTegic.value.DoubleValue
-2.591

@<SCITEGIC>MOL_PROPERTY
W(PB)
SciTegic.value.DoubleValue
-4.184

@<SCITEGIC>MOL_PROPERTY
W(SA)
SciTegic.value.DoubleValue
1.593

@<SCITEGIC>MOL_PROPERTY
Valence
SciTegic.value.DoubleValue
6.840

@<SCITEGIC>MOL_PROPERTY
Coulomb
SciTegic.value.DoubleValue
-7.916

@<SCITEGIC>MOL_PROPERTY
VdW
SciTegic.value.DoubleValue
0.893

@<SCITEGIC>MOL_PROPERTY
VdW6
SciTegic.value.DoubleValue
-2.167

@<SCITEGIC>MOL_PROPERTY
VdW12
SciTegic.value.DoubleValue
3.060

@<SCITEGIC>MOL_PROPERTY
Bond
SciTegic.value.DoubleValue
0.059

@<SCITEGIC>MOL_PROPERTY
Angle
SciTegic.value.DoubleValue
0.918

@<SCITEGIC>MOL_PROPERTY
Pdih
SciTegic.value.DoubleValue
5.862

@<SCITEGIC>MOL_PROPERTY
Idih
SciTegic.value.DoubleValue
0.000

@<SCITEGIC>MOL_PROPERTY
Tether
SciTegic.value.DoubleValue
0.000

@<TRIPOS>MOLECULE
guest-s16_confgen4.mol2 : confsearch ligand conformer 930
          13          13           1
SMALL
USER_CHARGES
 
@<TRIPOS>ATOM
       1    C1      20.314037   18.066376   21.958320 C.3        1 MOL1        -0.1693
       2    H1      21.214998   17.694842   21.455721 H          1 MOL1         0.0829
       3    H2      19.790855   17.212712   22.407577 H          1 MOL1         0.0829
       4    C2      19.407453   19.025562   21.116771 C.3        1 MOL1        -0.1768
       5    H3      19.949742   19.633797   20.382612 H          1 MOL1         0.0829
       6    H4      18.547020   18.564314   20.619162 H          1 MOL1         0.0829
       7    C3      19.104367   19.765344   22.456492 C.3        1 MOL1         0.1211
       8    H5      18.990851   20.853241   22.366589 H          1 MOL1         0.0786
       9    C4      20.518451   19.289924   22.912931 C.3        1 MOL1        -0.1768
      10    H6      21.333140   19.962974   22.619163 H          1 MOL1         0.0829
      11    H7      20.625050   19.058779   23.978724 H          1 MOL1         0.0829
      12    O1      18.031317   19.228162   23.199276 O.3        1 MOL1        -0.5515
      13    H8      18.184576   18.261943   23.246671 H          1 MOL1         0.3773
@<TRIPOS>BOND
    1     1     2    1
    2     1     3    1
    3     1     4    1
    4     4     5    1
    5     4     6    1
    6     4     7    1
    7     7     8    1
    8     1     9    1
    9     7     9    1
   10     9    10    1
   11     9    11    1
   12     7    12    1
   13    12    13    1
@<TRIPOS>SUBSTRUCTURE
       1 MOL1            1 RESIDUE      1      MOL     
@<SCITEGIC>MOL_PROPERTY
VConf Rank
SciTegic.value.IntegerValue
930

@<SCITEGIC>MOL_PROPERTY
Conf_Id
SciTegic.value.IntegerValue
44

@<SCITEGIC>MOL_PROPERTY
Delta U+W
SciTegic.value.DoubleValue
0.823

@<SCITEGIC>MOL_PROPERTY
U+W
SciTegic.value.DoubleValue
-2.308

@<SCITEGIC>MOL_PROPERTY
Grad RMS
SciTegic.value.DoubleValue
0.000000

@<SCITEGIC>MOL_PROPERTY
U
SciTegic.value.DoubleValue
0.039

@<SCITEGIC>MOL_PROPERTY
W
SciTegic.value.DoubleValue
-2.348

@<SCITEGIC>MOL_PROPERTY
W(PB)
SciTegic.value.DoubleValue
-3.918

@<SCITEGIC>MOL_PROPERTY
W(SA)
SciTegic.value.DoubleValue
1.571

@<SCITEGIC>MOL_PROPERTY
Valence
SciTegic.value.DoubleValue
7.320

@<SCITEGIC>MOL_PROPERTY
Coulomb
SciTegic.value.DoubleValue
-8.530

@<SCITEGIC>MOL_PROPERTY
VdW
SciTegic.value.DoubleValue
1.249

@<SCITEGIC>MOL_PROPERTY
VdW6
SciTegic.value.DoubleValue
-2.615

@<SCITEGIC>MOL_PROPERTY
VdW12
SciTegic.value.DoubleValue
3.864

@<SCITEGIC>MOL_PROPERTY
Bond
SciTegic.value.DoubleValue
0.056

@<SCITEGIC>MOL_PROPERTY
Angle
SciTegic.value.DoubleValue
0.694

@<SCITEGIC>MOL_PROPERTY
Pdih
SciTegic.value.DoubleValue
6.570

@<SCITEGIC>MOL_PROPERTY
Idih
SciTegic.value.DoubleValue
0.000

@<SCITEGIC>MOL_PROPERTY
Tether
SciTegic.value.DoubleValue
0.000

@<TRIPOS>MOLECULE
guest-s16_confgen4.mol2 : confsearch ligand conformer 931
          13          13           1
SMALL
USER_CHARGES
 
@<TRIPOS>ATOM
       1    C1      18.886543   18.006737   22.489823 C.3        1 MOL1        -0.1693
       2    H1      18.146926   17.823431   21.699284 H          1 MOL1         0.0829
       3    H2      18.790783   17.220735   23.248353 H          1 MOL1         0.0829
       4    C2      18.922458   19.476541   23.024327 C.3        1 MOL1        -0.1768
       5    H3      17.967277   20.012789   23.029518 H          1 MOL1         0.0829
       6    H4      19.400651   19.597889   24.004221 H          1 MOL1         0.0829
       7    C3      19.855683   19.766391   21.810274 C.3        1 MOL1         0.1211
       8    H5      19.316012   19.956345   20.872332 H          1 MOL1         0.0786
       9    C4      20.336251   18.293069   21.976317 C.3        1 MOL1        -0.1768
      10    H6      20.631480   17.779906   21.054538 H          1 MOL1         0.0829
      11    H7      21.124187   18.152459   22.726769 H          1 MOL1         0.0829
      12    O1      20.840360   20.749844   22.028853 O.3        1 MOL1        -0.5515
      13    H8      21.454119   20.721772   21.263533 H          1 MOL1         0.3773
@<TRIPOS>BOND
    1     1     2    1
    2     1     3    1
    3     1     4    1
    4     4     5    1
    5     4     6    1
    6     4     7    1
    7     7     8    1
    8     1     9    1
    9     7     9    1
   10     9    10    1
   11     9    11    1
   12     7    12    1
   13    12    13    1
@<TRIPOS>SUBSTRUCTURE
       1 MOL1            1 RESIDUE      1      MOL     
@<SCITEGIC>MOL_PROPERTY
VConf Rank
SciTegic.value.IntegerValue
931

@<SCITEGIC>MOL_PROPERTY
Conf_Id
SciTegic.value.IntegerValue
22

@<SCITEGIC>MOL_PROPERTY
Delta U+W
SciTegic.value.DoubleValue
0.000

@<SCITEGIC>MOL_PROPERTY
U+W
SciTegic.value.DoubleValue
-3.131

@<SCITEGIC>MOL_PROPERTY
Grad RMS
SciTegic.value.DoubleValue
0.000000

@<SCITEGIC>MOL_PROPERTY
U
SciTegic.value.DoubleValue
-0.154

@<SCITEGIC>MOL_PROPERTY
W
SciTegic.value.DoubleValue
-2.978

@<SCITEGIC>MOL_PROPERTY
W(PB)
SciTegic.value.DoubleValue
-4.579

@<SCITEGIC>MOL_PROPERTY
W(SA)
SciTegic.value.DoubleValue
1.601

@<SCITEGIC>MOL_PROPERTY
Valence
SciTegic.value.DoubleValue
6.333

@<SCITEGIC>MOL_PROPERTY
Coulomb
SciTegic.value.DoubleValue
-7.439

@<SCITEGIC>MOL_PROPERTY
VdW
SciTegic.value.DoubleValue
0.952

@<SCITEGIC>MOL_PROPERTY
VdW6
SciTegic.value.DoubleValue
-2.120

@<SCITEGIC>MOL_PROPERTY
VdW12
SciTegic.value.DoubleValue
3.072

@<SCITEGIC>MOL_PROPERTY
Bond
SciTegic.value.DoubleValue
0.065

@<SCITEGIC>MOL_PROPERTY
Angle
SciTegic.value.DoubleValue
0.931

@<SCITEGIC>MOL_PROPERTY
Pdih
SciTegic.value.DoubleValue
5.338

@<SCITEGIC>MOL_PROPERTY
Idih
SciTegic.value.DoubleValue
0.000

@<SCITEGIC>MOL_PROPERTY
Tether
SciTegic.value.DoubleValue
0.000

@<TRIPOS>MOLECULE
guest-s16_confgen4.mol2 : confsearch ligand conformer 932
          13          13           1
SMALL
USER_CHARGES
 
@<TRIPOS>ATOM
       1    C1      19.981556   19.663177   21.209846 C.3        1 MOL1        -0.1693
       2    H1      19.198602   19.742979   20.444208 H          1 MOL1         0.0829
       3    H2      20.873179   20.194295   20.855927 H          1 MOL1         0.0829
       4    C2      20.215803   18.216941   21.758353 C.3        1 MOL1        -0.1768
       5    H3      21.181073   18.067250   22.257993 H          1 MOL1         0.0829
       6    H4      20.056606   17.399556   21.046516 H          1 MOL1         0.0829
       7    C3      19.028533   18.520898   22.721262 C.3        1 MOL1         0.1211
       8    H5      18.038452   18.360736   22.272765 H          1 MOL1         0.0786
       9    C4      19.512324   20.001250   22.663405 C.3        1 MOL1        -0.1768
      10    H6      20.321834   20.242459   23.363474 H          1 MOL1         0.0829
      11    H7      18.729462   20.762059   22.754282 H          1 MOL1         0.0829
      12    O1      19.108497   17.910254   23.988254 O.3        1 MOL1        -0.5515
      13    H8      18.936179   16.952525   23.860724 H          1 MOL1         0.3773
@<TRIPOS>BOND
    1     1     2    1
    2     1     3    1
    3     1     4    1
    4     4     5    1
    5     4     6    1
    6     4     7    1
    7     7     8    1
    8     1     9    1
    9     7     9    1
   10     9    10    1
   11     9    11    1
   12     7    12    1
   13    12    13    1
@<TRIPOS>SUBSTRUCTURE
       1 MOL1            1 RESIDUE      1      MOL     
@<SCITEGIC>MOL_PROPERTY
VConf Rank
SciTegic.value.IntegerValue
932

@<SCITEGIC>MOL_PROPERTY
Conf_Id
SciTegic.value.IntegerValue
19

@<SCITEGIC>MOL_PROPERTY
Delta U+W
SciTegic.value.DoubleValue
-0.011

@<SCITEGIC>MOL_PROPERTY
U+W
SciTegic.value.DoubleValue
-3.142

@<SCITEGIC>MOL_PROPERTY
Grad RMS
SciTegic.value.DoubleValue
0.000000

@<SCITEGIC>MOL_PROPERTY
U
SciTegic.value.DoubleValue
-0.154

@<SCITEGIC>MOL_PROPERTY
W
SciTegic.value.DoubleValue
-2.989

@<SCITEGIC>MOL_PROPERTY
W(PB)
SciTegic.value.DoubleValue
-4.588

@<SCITEGIC>MOL_PROPERTY
W(SA)
SciTegic.value.DoubleValue
1.599

@<SCITEGIC>MOL_PROPERTY
Valence
SciTegic.value.DoubleValue
6.334

@<SCITEGIC>MOL_PROPERTY
Coulomb
SciTegic.value.DoubleValue
-7.439

@<SCITEGIC>MOL_PROPERTY
VdW
SciTegic.value.DoubleValue
0.951

@<SCITEGIC>MOL_PROPERTY
VdW6
SciTegic.value.DoubleValue
-2.120

@<SCITEGIC>MOL_PROPERTY
VdW12
SciTegic.value.DoubleValue
3.072

@<SCITEGIC>MOL_PROPERTY
Bond
SciTegic.value.DoubleValue
0.065

@<SCITEGIC>MOL_PROPERTY
Angle
SciTegic.value.DoubleValue
0.930

@<SCITEGIC>MOL_PROPERTY
Pdih
SciTegic.value.DoubleValue
5.339

@<SCITEGIC>MOL_PROPERTY
Idih
SciTegic.value.DoubleValue
0.000

@<SCITEGIC>MOL_PROPERTY
Tether
SciTegic.value.DoubleValue
0.000

@<TRIPOS>MOLECULE
guest-s16_confgen4.mol2 : confsearch ligand conformer 933
          13          13           1
SMALL
USER_CHARGES
 
@<TRIPOS>ATOM
       1    C1      18.956697   20.083419   22.310029 C.3        1 MOL1        -0.1693
       2    H1      18.080874   20.572198   22.752756 H          1 MOL1         0.0829
       3    H2      19.482747   20.810882   21.678145 H          1 MOL1         0.0829
       4    C2      18.701258   18.697304   21.630025 C.3        1 MOL1        -0.1768
       5    H3      17.891118   18.111633   22.081055 H          1 MOL1         0.0829
       6    H4      18.559499   18.713098   20.543724 H          1 MOL1         0.0829
       7    C3      20.127983   18.299828   22.121854 C.3        1 MOL1         0.1211
       8    H5      20.231825   17.249116   22.421909 H          1 MOL1         0.0786
       9    C4      19.877987   19.294289   23.298563 C.3        1 MOL1        -0.1768
      10    H6      20.758297   19.831981   23.667746 H          1 MOL1         0.0829
      11    H7      19.352812   18.853647   24.154717 H          1 MOL1         0.0829
      12    O1      21.179825   18.659860   21.248842 O.3        1 MOL1        -0.5515
      13    H8      22.020765   18.522443   21.734734 H          1 MOL1         0.3773
@<TRIPOS>BOND
    1     1     2    1
    2     1     3    1
    3     1     4    1
    4     4     5    1
    5     4     6    1
    6     4     7    1
    7     7     8    1
    8     1     9    1
    9     7     9    1
   10     9    10    1
   11     9    11    1
   12     7    12    1
   13    12    13    1
@<TRIPOS>SUBSTRUCTURE
       1 MOL1            1 RESIDUE      1      MOL     
@<SCITEGIC>MOL_PROPERTY
VConf Rank
SciTegic.value.IntegerValue
933

@<SCITEGIC>MOL_PROPERTY
Conf_Id
SciTegic.value.IntegerValue
20

@<SCITEGIC>MOL_PROPERTY
Delta U+W
SciTegic.value.DoubleValue
1.030

@<SCITEGIC>MOL_PROPERTY
U+W
SciTegic.value.DoubleValue
-2.101

@<SCITEGIC>MOL_PROPERTY
Grad RMS
SciTegic.value.DoubleValue
0.000000

@<SCITEGIC>MOL_PROPERTY
U
SciTegic.value.DoubleValue
0.841

@<SCITEGIC>MOL_PROPERTY
W
SciTegic.value.DoubleValue
-2.942

@<SCITEGIC>MOL_PROPERTY
W(PB)
SciTegic.value.DoubleValue
-4.530

@<SCITEGIC>MOL_PROPERTY
W(SA)
SciTegic.value.DoubleValue
1.587

@<SCITEGIC>MOL_PROPERTY
Valence
SciTegic.value.DoubleValue
6.736

@<SCITEGIC>MOL_PROPERTY
Coulomb
SciTegic.value.DoubleValue
-7.246

@<SCITEGIC>MOL_PROPERTY
VdW
SciTegic.value.DoubleValue
1.352

@<SCITEGIC>MOL_PROPERTY
VdW6
SciTegic.value.DoubleValue
-2.500

@<SCITEGIC>MOL_PROPERTY
VdW12
SciTegic.value.DoubleValue
3.851

@<SCITEGIC>MOL_PROPERTY
Bond
SciTegic.value.DoubleValue
0.063

@<SCITEGIC>MOL_PROPERTY
Angle
SciTegic.value.DoubleValue
0.687

@<SCITEGIC>MOL_PROPERTY
Pdih
SciTegic.value.DoubleValue
5.986

@<SCITEGIC>MOL_PROPERTY
Idih
SciTegic.value.DoubleValue
0.000

@<SCITEGIC>MOL_PROPERTY
Tether
SciTegic.value.DoubleValue
0.000

@<TRIPOS>MOLECULE
guest-s16_confgen4.mol2 : confsearch ligand conformer 934
          13          13           1
SMALL
USER_CHARGES
 
@<TRIPOS>ATOM
       1    C1      20.492680   18.090232   22.796623 C.3        1 MOL1        -0.1693
       2    H1      21.556611   18.061548   22.526628 H          1 MOL1         0.0829
       3    H2      20.303263   17.321343   23.555143 H          1 MOL1         0.0829
       4    C2      19.509560   18.112196   21.579927 C.3        1 MOL1        -0.1768
       5    H3      19.838353   17.573167   20.684586 H          1 MOL1         0.0829
       6    H4      18.482311   17.808391   21.816252 H          1 MOL1         0.0829
       7    C3      19.751051   19.651915   21.569713 C.3        1 MOL1         0.1211
       8    H5      20.663061   19.954890   21.037606 H          1 MOL1         0.0786
       9    C4      19.936112   19.517982   23.111456 C.3        1 MOL1        -0.1768
      10    H6      19.004202   19.528386   23.690096 H          1 MOL1         0.0829
      11    H7      20.641613   20.220476   23.568687 H          1 MOL1         0.0829
      12    O1      18.654536   20.432999   21.158156 O.3        1 MOL1        -0.5515
      13    H8      17.875249   20.119313   21.663163 H          1 MOL1         0.3773
@<TRIPOS>BOND
    1     1     2    1
    2     1     3    1
    3     1     4    1
    4     4     5    1
    5     4     6    1
    6     4     7    1
    7     7     8    1
    8     1     9    1
    9     7     9    1
   10     9    10    1
   11     9    11    1
   12     7    12    1
   13    12    13    1
@<TRIPOS>SUBSTRUCTURE
       1 MOL1            1 RESIDUE      1      MOL     
@<SCITEGIC>MOL_PROPERTY
VConf Rank
SciTegic.value.IntegerValue
934

@<SCITEGIC>MOL_PROPERTY
Conf_Id
SciTegic.value.IntegerValue
24

@<SCITEGIC>MOL_PROPERTY
Delta U+W
SciTegic.value.DoubleValue
0.356

@<SCITEGIC>MOL_PROPERTY
U+W
SciTegic.value.DoubleValue
-2.775

@<SCITEGIC>MOL_PROPERTY
Grad RMS
SciTegic.value.DoubleValue
0.000000

@<SCITEGIC>MOL_PROPERTY
U
SciTegic.value.DoubleValue
-0.184

@<SCITEGIC>MOL_PROPERTY
W
SciTegic.value.DoubleValue
-2.591

@<SCITEGIC>MOL_PROPERTY
W(PB)
SciTegic.value.DoubleValue
-4.184

@<SCITEGIC>MOL_PROPERTY
W(SA)
SciTegic.value.DoubleValue
1.593

@<SCITEGIC>MOL_PROPERTY
Valence
SciTegic.value.DoubleValue
6.840

@<SCITEGIC>MOL_PROPERTY
Coulomb
SciTegic.value.DoubleValue
-7.916

@<SCITEGIC>MOL_PROPERTY
VdW
SciTegic.value.DoubleValue
0.893

@<SCITEGIC>MOL_PROPERTY
VdW6
SciTegic.value.DoubleValue
-2.167

@<SCITEGIC>MOL_PROPERTY
VdW12
SciTegic.value.DoubleValue
3.060

@<SCITEGIC>MOL_PROPERTY
Bond
SciTegic.value.DoubleValue
0.059

@<SCITEGIC>MOL_PROPERTY
Angle
SciTegic.value.DoubleValue
0.918

@<SCITEGIC>MOL_PROPERTY
Pdih
SciTegic.value.DoubleValue
5.862

@<SCITEGIC>MOL_PROPERTY
Idih
SciTegic.value.DoubleValue
0.000

@<SCITEGIC>MOL_PROPERTY
Tether
SciTegic.value.DoubleValue
0.000

@<TRIPOS>MOLECULE
guest-s16_confgen4.mol2 : confsearch ligand conformer 935
          13          13           1
SMALL
USER_CHARGES
 
@<TRIPOS>ATOM
       1    C1      20.420571   19.668334   22.709394 C.3        1 MOL1        -0.1693
       2    H1      20.863743   20.671314   22.707901 H          1 MOL1         0.0829
       3    H2      20.859380   19.096806   23.537100 H          1 MOL1         0.0829
       4    C2      20.404681   18.925327   21.331778 C.3        1 MOL1        -0.1768
       5    H3      20.328772   19.587282   20.460533 H          1 MOL1         0.0829
       6    H4      21.218665   18.212706   21.157676 H          1 MOL1         0.0829
       7    C3      19.044295   18.309458   21.783493 C.3        1 MOL1         0.1211
       8    H5      18.310737   18.172479   20.978746 H          1 MOL1         0.0786
       9    C4      18.858663   19.610367   22.624427 C.3        1 MOL1        -0.1768
      10    H6      18.403694   20.440286   22.070121 H          1 MOL1         0.0829
      11    H7      18.326970   19.494019   23.575465 H          1 MOL1         0.0829
      12    O1      19.154224   17.124887   22.542728 O.3        1 MOL1        -0.5515
      13    H8      19.817463   17.304707   23.240647 H          1 MOL1         0.3773
@<TRIPOS>BOND
    1     1     2    1
    2     1     3    1
    3     1     4    1
    4     4     5    1
    5     4     6    1
    6     4     7    1
    7     7     8    1
    8     1     9    1
    9     7     9    1
   10     9    10    1
   11     9    11    1
   12     7    12    1
   13    12    13    1
@<TRIPOS>SUBSTRUCTURE
       1 MOL1            1 RESIDUE      1      MOL     
@<SCITEGIC>MOL_PROPERTY
VConf Rank
SciTegic.value.IntegerValue
935

@<SCITEGIC>MOL_PROPERTY
Conf_Id
SciTegic.value.IntegerValue
44

@<SCITEGIC>MOL_PROPERTY
Delta U+W
SciTegic.value.DoubleValue
0.823

@<SCITEGIC>MOL_PROPERTY
U+W
SciTegic.value.DoubleValue
-2.308

@<SCITEGIC>MOL_PROPERTY
Grad RMS
SciTegic.value.DoubleValue
0.000000

@<SCITEGIC>MOL_PROPERTY
U
SciTegic.value.DoubleValue
0.039

@<SCITEGIC>MOL_PROPERTY
W
SciTegic.value.DoubleValue
-2.348

@<SCITEGIC>MOL_PROPERTY
W(PB)
SciTegic.value.DoubleValue
-3.918

@<SCITEGIC>MOL_PROPERTY
W(SA)
SciTegic.value.DoubleValue
1.571

@<SCITEGIC>MOL_PROPERTY
Valence
SciTegic.value.DoubleValue
7.320

@<SCITEGIC>MOL_PROPERTY
Coulomb
SciTegic.value.DoubleValue
-8.530

@<SCITEGIC>MOL_PROPERTY
VdW
SciTegic.value.DoubleValue
1.249

@<SCITEGIC>MOL_PROPERTY
VdW6
SciTegic.value.DoubleValue
-2.615

@<SCITEGIC>MOL_PROPERTY
VdW12
SciTegic.value.DoubleValue
3.864

@<SCITEGIC>MOL_PROPERTY
Bond
SciTegic.value.DoubleValue
0.056

@<SCITEGIC>MOL_PROPERTY
Angle
SciTegic.value.DoubleValue
0.694

@<SCITEGIC>MOL_PROPERTY
Pdih
SciTegic.value.DoubleValue
6.570

@<SCITEGIC>MOL_PROPERTY
Idih
SciTegic.value.DoubleValue
0.000

@<SCITEGIC>MOL_PROPERTY
Tether
SciTegic.value.DoubleValue
0.000

@<TRIPOS>MOLECULE
guest-s16_confgen4.mol2 : confsearch ligand conformer 936
          13          13           1
SMALL
USER_CHARGES
 
@<TRIPOS>ATOM
       1    C1      20.736400   19.810475   22.154340 C.3        1 MOL1        -0.1693
       2    H1      21.665038   19.247755   21.991358 H          1 MOL1         0.0829
       3    H2      20.968947   20.881955   22.140542 H          1 MOL1         0.0829
       4    C2      19.871091   19.310758   23.358013 C.3        1 MOL1        -0.1768
       5    H3      20.421130   18.898027   24.210698 H          1 MOL1         0.0829
       6    H4      19.137220   20.036755   23.729425 H          1 MOL1         0.0829
       7    C3      19.295524   18.267252   22.353689 C.3        1 MOL1         0.1211
       8    H5      19.924162   17.374170   22.234185 H          1 MOL1         0.0786
       9    C4      19.531743   19.357344   21.265069 C.3        1 MOL1        -0.1768
      10    H6      19.782931   18.987451   20.264941 H          1 MOL1         0.0829
      11    H7      18.724725   20.095345   21.176360 H          1 MOL1         0.0829
      12    O1      17.949919   17.907312   22.564251 O.3        1 MOL1        -0.5515
      13    H8      17.663895   17.383306   21.785270 H          1 MOL1         0.3773
@<TRIPOS>BOND
    1     1     2    1
    2     1     3    1
    3     1     4    1
    4     4     5    1
    5     4     6    1
    6     4     7    1
    7     7     8    1
    8     1     9    1
    9     7     9    1
   10     9    10    1
   11     9    11    1
   12     7    12    1
   13    12    13    1
@<TRIPOS>SUBSTRUCTURE
       1 MOL1            1 RESIDUE      1      MOL     
@<SCITEGIC>MOL_PROPERTY
VConf Rank
SciTegic.value.IntegerValue
936

@<SCITEGIC>MOL_PROPERTY
Conf_Id
SciTegic.value.IntegerValue
22

@<SCITEGIC>MOL_PROPERTY
Delta U+W
SciTegic.value.DoubleValue
0.000

@<SCITEGIC>MOL_PROPERTY
U+W
SciTegic.value.DoubleValue
-3.131

@<SCITEGIC>MOL_PROPERTY
Grad RMS
SciTegic.value.DoubleValue
0.000000

@<SCITEGIC>MOL_PROPERTY
U
SciTegic.value.DoubleValue
-0.154

@<SCITEGIC>MOL_PROPERTY
W
SciTegic.value.DoubleValue
-2.978

@<SCITEGIC>MOL_PROPERTY
W(PB)
SciTegic.value.DoubleValue
-4.579

@<SCITEGIC>MOL_PROPERTY
W(SA)
SciTegic.value.DoubleValue
1.601

@<SCITEGIC>MOL_PROPERTY
Valence
SciTegic.value.DoubleValue
6.333

@<SCITEGIC>MOL_PROPERTY
Coulomb
SciTegic.value.DoubleValue
-7.439

@<SCITEGIC>MOL_PROPERTY
VdW
SciTegic.value.DoubleValue
0.952

@<SCITEGIC>MOL_PROPERTY
VdW6
SciTegic.value.DoubleValue
-2.120

@<SCITEGIC>MOL_PROPERTY
VdW12
SciTegic.value.DoubleValue
3.072

@<SCITEGIC>MOL_PROPERTY
Bond
SciTegic.value.DoubleValue
0.065

@<SCITEGIC>MOL_PROPERTY
Angle
SciTegic.value.DoubleValue
0.931

@<SCITEGIC>MOL_PROPERTY
Pdih
SciTegic.value.DoubleValue
5.338

@<SCITEGIC>MOL_PROPERTY
Idih
SciTegic.value.DoubleValue
0.000

@<SCITEGIC>MOL_PROPERTY
Tether
SciTegic.value.DoubleValue
0.000

@<TRIPOS>MOLECULE
guest-s16_confgen4.mol2 : confsearch ligand conformer 937
          13          13           1
SMALL
USER_CHARGES
 
@<TRIPOS>ATOM
       1    C1      18.981310   19.291062   23.335801 C.3        1 MOL1        -0.1693
       2    H1      17.991475   18.825713   23.432049 H          1 MOL1         0.0829
       3    H2      19.125863   19.983634   24.173527 H          1 MOL1         0.0829
       4    C2      19.303178   19.856784   21.913237 C.3        1 MOL1        -0.1768
       5    H3      20.116768   20.592397   21.886079 H          1 MOL1         0.0829
       6    H4      18.452133   20.251086   21.347180 H          1 MOL1         0.0829
       7    C3      19.735225   18.400321   21.565032 C.3        1 MOL1         0.1211
       8    H5      18.900613   17.741942   21.287505 H          1 MOL1         0.0786
       9    C4      20.151567   18.289435   23.062766 C.3        1 MOL1        -0.1768
      10    H6      21.152273   18.679556   23.286322 H          1 MOL1         0.0829
      11    H7      20.052292   17.295470   23.512365 H          1 MOL1         0.0829
      12    O1      20.789432   18.289859   20.637133 O.3        1 MOL1        -0.5515
      13    H8      20.429970   18.537123   19.758014 H          1 MOL1         0.3773
@<TRIPOS>BOND
    1     1     2    1
    2     1     3    1
    3     1     4    1
    4     4     5    1
    5     4     6    1
    6     4     7    1
    7     7     8    1
    8     1     9    1
    9     7     9    1
   10     9    10    1
   11     9    11    1
   12     7    12    1
   13    12    13    1
@<TRIPOS>SUBSTRUCTURE
       1 MOL1            1 RESIDUE      1      MOL     
@<SCITEGIC>MOL_PROPERTY
VConf Rank
SciTegic.value.IntegerValue
937

@<SCITEGIC>MOL_PROPERTY
Conf_Id
SciTegic.value.IntegerValue
19

@<SCITEGIC>MOL_PROPERTY
Delta U+W
SciTegic.value.DoubleValue
-0.011

@<SCITEGIC>MOL_PROPERTY
U+W
SciTegic.value.DoubleValue
-3.142

@<SCITEGIC>MOL_PROPERTY
Grad RMS
SciTegic.value.DoubleValue
0.000000

@<SCITEGIC>MOL_PROPERTY
U
SciTegic.value.DoubleValue
-0.154

@<SCITEGIC>MOL_PROPERTY
W
SciTegic.value.DoubleValue
-2.989

@<SCITEGIC>MOL_PROPERTY
W(PB)
SciTegic.value.DoubleValue
-4.588

@<SCITEGIC>MOL_PROPERTY
W(SA)
SciTegic.value.DoubleValue
1.599

@<SCITEGIC>MOL_PROPERTY
Valence
SciTegic.value.DoubleValue
6.334

@<SCITEGIC>MOL_PROPERTY
Coulomb
SciTegic.value.DoubleValue
-7.439

@<SCITEGIC>MOL_PROPERTY
VdW
SciTegic.value.DoubleValue
0.951

@<SCITEGIC>MOL_PROPERTY
VdW6
SciTegic.value.DoubleValue
-2.120

@<SCITEGIC>MOL_PROPERTY
VdW12
SciTegic.value.DoubleValue
3.072

@<SCITEGIC>MOL_PROPERTY
Bond
SciTegic.value.DoubleValue
0.065

@<SCITEGIC>MOL_PROPERTY
Angle
SciTegic.value.DoubleValue
0.930

@<SCITEGIC>MOL_PROPERTY
Pdih
SciTegic.value.DoubleValue
5.339

@<SCITEGIC>MOL_PROPERTY
Idih
SciTegic.value.DoubleValue
0.000

@<SCITEGIC>MOL_PROPERTY
Tether
SciTegic.value.DoubleValue
0.000

@<TRIPOS>MOLECULE
guest-s16_confgen4.mol2 : confsearch ligand conformer 938
          13          13           1
SMALL
USER_CHARGES
 
@<TRIPOS>ATOM
       1    C1      18.468915   18.699037   22.085586 C.3        1 MOL1        -0.1693
       2    H1      17.603509   18.178964   22.512872 H          1 MOL1         0.0829
       3    H2      18.178380   19.127056   21.117290 H          1 MOL1         0.0829
       4    C2      19.812581   17.897113   22.064329 C.3        1 MOL1        -0.1768
       5    H3      19.928935   17.182317   22.887915 H          1 MOL1         0.0829
       6    H4      20.055863   17.390676   21.123729 H          1 MOL1         0.0829
       7    C3      20.523315   19.266201   22.300726 C.3        1 MOL1         0.1211
       8    H5      21.414732   19.214267   22.939076 H          1 MOL1         0.0786
       9    C4      19.214992   19.691589   23.037905 C.3        1 MOL1        -0.1768
      10    H6      18.934446   20.746777   22.947222 H          1 MOL1         0.0829
      11    H7      19.185922   19.411838   24.098031 H          1 MOL1         0.0829
      12    O1      20.811571   19.997405   21.125824 O.3        1 MOL1        -0.5515
      13    H8      21.088525   20.896457   21.403594 H          1 MOL1         0.3773
@<TRIPOS>BOND
    1     1     2    1
    2     1     3    1
    3     1     4    1
    4     4     5    1
    5     4     6    1
    6     4     7    1
    7     7     8    1
    8     1     9    1
    9     7     9    1
   10     9    10    1
   11     9    11    1
   12     7    12    1
   13    12    13    1
@<TRIPOS>SUBSTRUCTURE
       1 MOL1            1 RESIDUE      1      MOL     
@<SCITEGIC>MOL_PROPERTY
VConf Rank
SciTegic.value.IntegerValue
938

@<SCITEGIC>MOL_PROPERTY
Conf_Id
SciTegic.value.IntegerValue
20

@<SCITEGIC>MOL_PROPERTY
Delta U+W
SciTegic.value.DoubleValue
1.030

@<SCITEGIC>MOL_PROPERTY
U+W
SciTegic.value.DoubleValue
-2.101

@<SCITEGIC>MOL_PROPERTY
Grad RMS
SciTegic.value.DoubleValue
0.000000

@<SCITEGIC>MOL_PROPERTY
U
SciTegic.value.DoubleValue
0.841

@<SCITEGIC>MOL_PROPERTY
W
SciTegic.value.DoubleValue
-2.942

@<SCITEGIC>MOL_PROPERTY
W(PB)
SciTegic.value.DoubleValue
-4.530

@<SCITEGIC>MOL_PROPERTY
W(SA)
SciTegic.value.DoubleValue
1.587

@<SCITEGIC>MOL_PROPERTY
Valence
SciTegic.value.DoubleValue
6.736

@<SCITEGIC>MOL_PROPERTY
Coulomb
SciTegic.value.DoubleValue
-7.246

@<SCITEGIC>MOL_PROPERTY
VdW
SciTegic.value.DoubleValue
1.352

@<SCITEGIC>MOL_PROPERTY
VdW6
SciTegic.value.DoubleValue
-2.500

@<SCITEGIC>MOL_PROPERTY
VdW12
SciTegic.value.DoubleValue
3.851

@<SCITEGIC>MOL_PROPERTY
Bond
SciTegic.value.DoubleValue
0.063

@<SCITEGIC>MOL_PROPERTY
Angle
SciTegic.value.DoubleValue
0.687

@<SCITEGIC>MOL_PROPERTY
Pdih
SciTegic.value.DoubleValue
5.986

@<SCITEGIC>MOL_PROPERTY
Idih
SciTegic.value.DoubleValue
0.000

@<SCITEGIC>MOL_PROPERTY
Tether
SciTegic.value.DoubleValue
0.000

@<TRIPOS>MOLECULE
guest-s16_confgen4.mol2 : confsearch ligand conformer 939
          13          13           1
SMALL
USER_CHARGES
 
@<TRIPOS>ATOM
       1    C1      18.859530   19.457536   22.987565 C.3        1 MOL1        -0.1693
       2    H1      18.121329   18.779359   23.435678 H          1 MOL1         0.0829
       3    H2      18.651433   20.477807   23.331315 H          1 MOL1         0.0829
       4    C2      19.060605   19.279204   21.446421 C.3        1 MOL1        -0.1768
       5    H3      18.176826   18.970183   20.877446 H          1 MOL1         0.0829
       6    H4      19.520860   20.138158   20.942683 H          1 MOL1         0.0829
       7    C3      20.050385   18.138532   21.831594 C.3        1 MOL1         0.1211
       8    H5      19.561284   17.176505   22.036483 H          1 MOL1         0.0786
       9    C4      20.344482   18.980700   23.109646 C.3        1 MOL1        -0.1768
      10    H6      21.091698   19.772934   22.977659 H          1 MOL1         0.0829
      11    H7      20.594563   18.408053   24.009549 H          1 MOL1         0.0829
      12    O1      21.140857   17.964066   20.958526 O.3        1 MOL1        -0.5515
      13    H8      21.534751   18.849801   20.813469 H          1 MOL1         0.3773
@<TRIPOS>BOND
    1     1     2    1
    2     1     3    1
    3     1     4    1
    4     4     5    1
    5     4     6    1
    6     4     7    1
    7     7     8    1
    8     1     9    1
    9     7     9    1
   10     9    10    1
   11     9    11    1
   12     7    12    1
   13    12    13    1
@<TRIPOS>SUBSTRUCTURE
       1 MOL1            1 RESIDUE      1      MOL     
@<SCITEGIC>MOL_PROPERTY
VConf Rank
SciTegic.value.IntegerValue
939

@<SCITEGIC>MOL_PROPERTY
Conf_Id
SciTegic.value.IntegerValue
24

@<SCITEGIC>MOL_PROPERTY
Delta U+W
SciTegic.value.DoubleValue
0.356

@<SCITEGIC>MOL_PROPERTY
U+W
SciTegic.value.DoubleValue
-2.775

@<SCITEGIC>MOL_PROPERTY
Grad RMS
SciTegic.value.DoubleValue
0.000000

@<SCITEGIC>MOL_PROPERTY
U
SciTegic.value.DoubleValue
-0.184

@<SCITEGIC>MOL_PROPERTY
W
SciTegic.value.DoubleValue
-2.591

@<SCITEGIC>MOL_PROPERTY
W(PB)
SciTegic.value.DoubleValue
-4.184

@<SCITEGIC>MOL_PROPERTY
W(SA)
SciTegic.value.DoubleValue
1.593

@<SCITEGIC>MOL_PROPERTY
Valence
SciTegic.value.DoubleValue
6.840

@<SCITEGIC>MOL_PROPERTY
Coulomb
SciTegic.value.DoubleValue
-7.916

@<SCITEGIC>MOL_PROPERTY
VdW
SciTegic.value.DoubleValue
0.893

@<SCITEGIC>MOL_PROPERTY
VdW6
SciTegic.value.DoubleValue
-2.167

@<SCITEGIC>MOL_PROPERTY
VdW12
SciTegic.value.DoubleValue
3.060

@<SCITEGIC>MOL_PROPERTY
Bond
SciTegic.value.DoubleValue
0.059

@<SCITEGIC>MOL_PROPERTY
Angle
SciTegic.value.DoubleValue
0.918

@<SCITEGIC>MOL_PROPERTY
Pdih
SciTegic.value.DoubleValue
5.862

@<SCITEGIC>MOL_PROPERTY
Idih
SciTegic.value.DoubleValue
0.000

@<SCITEGIC>MOL_PROPERTY
Tether
SciTegic.value.DoubleValue
0.000

@<TRIPOS>MOLECULE
guest-s16_confgen4.mol2 : confsearch ligand conformer 940
          13          13           1
SMALL
USER_CHARGES
 
@<TRIPOS>ATOM
       1    C1      19.891693   20.040013   21.921120 C.3        1 MOL1        -0.1693
       2    H1      19.869706   21.086892   22.246595 H          1 MOL1         0.0829
       3    H2      20.256888   20.006268   20.886814 H          1 MOL1         0.0829
       4    C2      18.589276   19.213431   22.186847 C.3        1 MOL1        -0.1768
       5    H3      18.024442   19.529587   23.072297 H          1 MOL1         0.0829
       6    H4      17.894209   19.122778   21.344605 H          1 MOL1         0.0829
       7    C3      19.525713   17.990071   22.432751 C.3        1 MOL1         0.1211
       8    H5      19.185395   17.299206   23.214657 H          1 MOL1         0.0786
       9    C4      20.587352   19.034245   22.898171 C.3        1 MOL1        -0.1768
      10    H6      20.512416   19.306469   23.958026 H          1 MOL1         0.0829
      11    H7      21.631439   18.787629   22.675076 H          1 MOL1         0.0829
      12    O1      19.874748   17.269230   21.270731 O.3        1 MOL1        -0.5515
      13    H8      20.168581   17.932154   20.612318 H          1 MOL1         0.3773
@<TRIPOS>BOND
    1     1     2    1
    2     1     3    1
    3     1     4    1
    4     4     5    1
    5     4     6    1
    6     4     7    1
    7     7     8    1
    8     1     9    1
    9     7     9    1
   10     9    10    1
   11     9    11    1
   12     7    12    1
   13    12    13    1
@<TRIPOS>SUBSTRUCTURE
       1 MOL1            1 RESIDUE      1      MOL     
@<SCITEGIC>MOL_PROPERTY
VConf Rank
SciTegic.value.IntegerValue
940

@<SCITEGIC>MOL_PROPERTY
Conf_Id
SciTegic.value.IntegerValue
44

@<SCITEGIC>MOL_PROPERTY
Delta U+W
SciTegic.value.DoubleValue
0.823

@<SCITEGIC>MOL_PROPERTY
U+W
SciTegic.value.DoubleValue
-2.308

@<SCITEGIC>MOL_PROPERTY
Grad RMS
SciTegic.value.DoubleValue
0.000000

@<SCITEGIC>MOL_PROPERTY
U
SciTegic.value.DoubleValue
0.039

@<SCITEGIC>MOL_PROPERTY
W
SciTegic.value.DoubleValue
-2.348

@<SCITEGIC>MOL_PROPERTY
W(PB)
SciTegic.value.DoubleValue
-3.918

@<SCITEGIC>MOL_PROPERTY
W(SA)
SciTegic.value.DoubleValue
1.571

@<SCITEGIC>MOL_PROPERTY
Valence
SciTegic.value.DoubleValue
7.320

@<SCITEGIC>MOL_PROPERTY
Coulomb
SciTegic.value.DoubleValue
-8.530

@<SCITEGIC>MOL_PROPERTY
VdW
SciTegic.value.DoubleValue
1.249

@<SCITEGIC>MOL_PROPERTY
VdW6
SciTegic.value.DoubleValue
-2.615

@<SCITEGIC>MOL_PROPERTY
VdW12
SciTegic.value.DoubleValue
3.864

@<SCITEGIC>MOL_PROPERTY
Bond
SciTegic.value.DoubleValue
0.056

@<SCITEGIC>MOL_PROPERTY
Angle
SciTegic.value.DoubleValue
0.694

@<SCITEGIC>MOL_PROPERTY
Pdih
SciTegic.value.DoubleValue
6.570

@<SCITEGIC>MOL_PROPERTY
Idih
SciTegic.value.DoubleValue
0.000

@<SCITEGIC>MOL_PROPERTY
Tether
SciTegic.value.DoubleValue
0.000

@<TRIPOS>MOLECULE
guest-s16_confgen4.mol2 : confsearch ligand conformer 941
          13          13           1
SMALL
USER_CHARGES
 
@<TRIPOS>ATOM
       1    C1      19.072886   18.826105   21.090227 C.3        1 MOL1        -0.1693
       2    H1      18.231305   19.504442   20.897391 H          1 MOL1         0.0829
       3    H2      19.209735   18.179895   20.215000 H          1 MOL1         0.0829
       4    C2      19.026609   18.103674   22.477044 C.3        1 MOL1        -0.1768
       5    H3      18.030264   17.868960   22.867129 H          1 MOL1         0.0829
       6    H4      19.654257   17.206789   22.549438 H          1 MOL1         0.0829
       7    C3      19.685760   19.399839   23.037691 C.3        1 MOL1         0.1211
       8    H5      18.968103   20.202148   23.257533 H          1 MOL1         0.0786
       9    C4      20.362129   19.521959   21.638833 C.3        1 MOL1        -0.1768
      10    H6      20.547279   20.542077   21.284923 H          1 MOL1         0.0829
      11    H7      21.282722   18.936016   21.524939 H          1 MOL1         0.0829
      12    O1      20.567956   19.207621   24.119046 O.3        1 MOL1        -0.5515
      13    H8      21.033723   20.058381   24.268948 H          1 MOL1         0.3773
@<TRIPOS>BOND
    1     1     2    1
    2     1     3    1
    3     1     4    1
    4     4     5    1
    5     4     6    1
    6     4     7    1
    7     7     8    1
    8     1     9    1
    9     7     9    1
   10     9    10    1
   11     9    11    1
   12     7    12    1
   13    12    13    1
@<TRIPOS>SUBSTRUCTURE
       1 MOL1            1 RESIDUE      1      MOL     
@<SCITEGIC>MOL_PROPERTY
VConf Rank
SciTegic.value.IntegerValue
941

@<SCITEGIC>MOL_PROPERTY
Conf_Id
SciTegic.value.IntegerValue
22

@<SCITEGIC>MOL_PROPERTY
Delta U+W
SciTegic.value.DoubleValue
0.000

@<SCITEGIC>MOL_PROPERTY
U+W
SciTegic.value.DoubleValue
-3.131

@<SCITEGIC>MOL_PROPERTY
Grad RMS
SciTegic.value.DoubleValue
0.000000

@<SCITEGIC>MOL_PROPERTY
U
SciTegic.value.DoubleValue
-0.154

@<SCITEGIC>MOL_PROPERTY
W
SciTegic.value.DoubleValue
-2.978

@<SCITEGIC>MOL_PROPERTY
W(PB)
SciTegic.value.DoubleValue
-4.579

@<SCITEGIC>MOL_PROPERTY
W(SA)
SciTegic.value.DoubleValue
1.601

@<SCITEGIC>MOL_PROPERTY
Valence
SciTegic.value.DoubleValue
6.333

@<SCITEGIC>MOL_PROPERTY
Coulomb
SciTegic.value.DoubleValue
-7.439

@<SCITEGIC>MOL_PROPERTY
VdW
SciTegic.value.DoubleValue
0.952

@<SCITEGIC>MOL_PROPERTY
VdW6
SciTegic.value.DoubleValue
-2.120

@<SCITEGIC>MOL_PROPERTY
VdW12
SciTegic.value.DoubleValue
3.072

@<SCITEGIC>MOL_PROPERTY
Bond
SciTegic.value.DoubleValue
0.065

@<SCITEGIC>MOL_PROPERTY
Angle
SciTegic.value.DoubleValue
0.931

@<SCITEGIC>MOL_PROPERTY
Pdih
SciTegic.value.DoubleValue
5.338

@<SCITEGIC>MOL_PROPERTY
Idih
SciTegic.value.DoubleValue
0.000

@<SCITEGIC>MOL_PROPERTY
Tether
SciTegic.value.DoubleValue
0.000

@<TRIPOS>MOLECULE
guest-s16_confgen4.mol2 : confsearch ligand conformer 942
          13          13           1
SMALL
USER_CHARGES
 
@<TRIPOS>ATOM
       1    C1      18.927042   19.796886   21.546572 C.3        1 MOL1        -0.1693
       2    H1      18.890926   19.567829   20.473346 H          1 MOL1         0.0829
       3    H2      18.394736   20.739369   21.721823 H          1 MOL1         0.0829
       4    C2      20.346395   19.678820   22.193739 C.3        1 MOL1        -0.1768
       5    H3      20.459574   20.206293   23.149122 H          1 MOL1         0.0829
       6    H4      21.193670   19.933566   21.547673 H          1 MOL1         0.0829
       7    C3      20.025701   18.159414   22.326999 C.3        1 MOL1         0.1211
       8    H5      20.220520   17.580801   21.413591 H          1 MOL1         0.0786
       9    C4      18.540546   18.605158   22.483435 C.3        1 MOL1        -0.1768
      10    H6      18.258051   18.894858   23.503168 H          1 MOL1         0.0829
      11    H7      17.790516   17.907840   22.094639 H          1 MOL1         0.0829
      12    O1      20.584789   17.521768   23.451889 O.3        1 MOL1        -0.5515
      13    H8      21.549634   17.441778   23.291015 H          1 MOL1         0.3773
@<TRIPOS>BOND
    1     1     2    1
    2     1     3    1
    3     1     4    1
    4     4     5    1
    5     4     6    1
    6     4     7    1
    7     7     8    1
    8     1     9    1
    9     7     9    1
   10     9    10    1
   11     9    11    1
   12     7    12    1
   13    12    13    1
@<TRIPOS>SUBSTRUCTURE
       1 MOL1            1 RESIDUE      1      MOL     
@<SCITEGIC>MOL_PROPERTY
VConf Rank
SciTegic.value.IntegerValue
942

@<SCITEGIC>MOL_PROPERTY
Conf_Id
SciTegic.value.IntegerValue
19

@<SCITEGIC>MOL_PROPERTY
Delta U+W
SciTegic.value.DoubleValue
-0.011

@<SCITEGIC>MOL_PROPERTY
U+W
SciTegic.value.DoubleValue
-3.142

@<SCITEGIC>MOL_PROPERTY
Grad RMS
SciTegic.value.DoubleValue
0.000000

@<SCITEGIC>MOL_PROPERTY
U
SciTegic.value.DoubleValue
-0.154

@<SCITEGIC>MOL_PROPERTY
W
SciTegic.value.DoubleValue
-2.989

@<SCITEGIC>MOL_PROPERTY
W(PB)
SciTegic.value.DoubleValue
-4.588

@<SCITEGIC>MOL_PROPERTY
W(SA)
SciTegic.value.DoubleValue
1.599

@<SCITEGIC>MOL_PROPERTY
Valence
SciTegic.value.DoubleValue
6.334

@<SCITEGIC>MOL_PROPERTY
Coulomb
SciTegic.value.DoubleValue
-7.439

@<SCITEGIC>MOL_PROPERTY
VdW
SciTegic.value.DoubleValue
0.951

@<SCITEGIC>MOL_PROPERTY
VdW6
SciTegic.value.DoubleValue
-2.120

@<SCITEGIC>MOL_PROPERTY
VdW12
SciTegic.value.DoubleValue
3.072

@<SCITEGIC>MOL_PROPERTY
Bond
SciTegic.value.DoubleValue
0.065

@<SCITEGIC>MOL_PROPERTY
Angle
SciTegic.value.DoubleValue
0.930

@<SCITEGIC>MOL_PROPERTY
Pdih
SciTegic.value.DoubleValue
5.339

@<SCITEGIC>MOL_PROPERTY
Idih
SciTegic.value.DoubleValue
0.000

@<SCITEGIC>MOL_PROPERTY
Tether
SciTegic.value.DoubleValue
0.000

@<TRIPOS>MOLECULE
guest-s16_confgen4.mol2 : confsearch ligand conformer 943
          13          13           1
SMALL
USER_CHARGES
 
@<TRIPOS>ATOM
       1    C1      18.650704   19.224985   21.556106 C.3        1 MOL1        -0.1693
       2    H1      18.264924   19.154989   20.532264 H          1 MOL1         0.0829
       3    H2      17.826466   19.509316   22.223184 H          1 MOL1         0.0829
       4    C2      19.957413   20.065430   21.743547 C.3        1 MOL1        -0.1768
       5    H3      20.634462   20.052391   20.880876 H          1 MOL1         0.0829
       6    H4      19.819760   21.103639   22.065367 H          1 MOL1         0.0829
       7    C3      20.335055   19.051446   22.868114 C.3        1 MOL1         0.1211
       8    H5      21.407108   18.827127   22.940190 H          1 MOL1         0.0786
       9    C4      19.502443   18.010979   22.055536 C.3        1 MOL1        -0.1768
      10    H6      18.967017   17.258838   22.645412 H          1 MOL1         0.0829
      11    H7      20.068985   17.499426   21.267934 H          1 MOL1         0.0829
      12    O1      19.818721   19.361919   24.146843 O.3        1 MOL1        -0.5515
      13    H8      19.968629   18.579211   24.718727 H          1 MOL1         0.3773
@<TRIPOS>BOND
    1     1     2    1
    2     1     3    1
    3     1     4    1
    4     4     5    1
    5     4     6    1
    6     4     7    1
    7     7     8    1
    8     1     9    1
    9     7     9    1
   10     9    10    1
   11     9    11    1
   12     7    12    1
   13    12    13    1
@<TRIPOS>SUBSTRUCTURE
       1 MOL1            1 RESIDUE      1      MOL     
@<SCITEGIC>MOL_PROPERTY
VConf Rank
SciTegic.value.IntegerValue
943

@<SCITEGIC>MOL_PROPERTY
Conf_Id
SciTegic.value.IntegerValue
20

@<SCITEGIC>MOL_PROPERTY
Delta U+W
SciTegic.value.DoubleValue
1.030

@<SCITEGIC>MOL_PROPERTY
U+W
SciTegic.value.DoubleValue
-2.101

@<SCITEGIC>MOL_PROPERTY
Grad RMS
SciTegic.value.DoubleValue
0.000000

@<SCITEGIC>MOL_PROPERTY
U
SciTegic.value.DoubleValue
0.841

@<SCITEGIC>MOL_PROPERTY
W
SciTegic.value.DoubleValue
-2.942

@<SCITEGIC>MOL_PROPERTY
W(PB)
SciTegic.value.DoubleValue
-4.530

@<SCITEGIC>MOL_PROPERTY
W(SA)
SciTegic.value.DoubleValue
1.587

@<SCITEGIC>MOL_PROPERTY
Valence
SciTegic.value.DoubleValue
6.736

@<SCITEGIC>MOL_PROPERTY
Coulomb
SciTegic.value.DoubleValue
-7.246

@<SCITEGIC>MOL_PROPERTY
VdW
SciTegic.value.DoubleValue
1.352

@<SCITEGIC>MOL_PROPERTY
VdW6
SciTegic.value.DoubleValue
-2.500

@<SCITEGIC>MOL_PROPERTY
VdW12
SciTegic.value.DoubleValue
3.851

@<SCITEGIC>MOL_PROPERTY
Bond
SciTegic.value.DoubleValue
0.063

@<SCITEGIC>MOL_PROPERTY
Angle
SciTegic.value.DoubleValue
0.687

@<SCITEGIC>MOL_PROPERTY
Pdih
SciTegic.value.DoubleValue
5.986

@<SCITEGIC>MOL_PROPERTY
Idih
SciTegic.value.DoubleValue
0.000

@<SCITEGIC>MOL_PROPERTY
Tether
SciTegic.value.DoubleValue
0.000

@<TRIPOS>MOLECULE
guest-s16_confgen4.mol2 : confsearch ligand conformer 944
          13          13           1
SMALL
USER_CHARGES
 
@<TRIPOS>ATOM
       1    C1      19.730635   19.508684   23.367178 C.3        1 MOL1        -0.1693
       2    H1      19.456807   18.890575   24.232411 H          1 MOL1         0.0829
       3    H2      19.940794   20.526561   23.716723 H          1 MOL1         0.0829
       4    C2      18.762051   19.388183   22.144606 C.3        1 MOL1        -0.1768
       5    H3      17.708283   19.203458   22.380705 H          1 MOL1         0.0829
       6    H4      18.822308   20.218016   21.429670 H          1 MOL1         0.0829
       7    C3      19.600013   18.131279   21.760982 C.3        1 MOL1         0.1211
       8    H5      19.296980   17.217229   22.289544 H          1 MOL1         0.0786
       9    C4      20.801830   18.871992   22.421386 C.3        1 MOL1        -0.1768
      10    H6      21.318003   19.586450   21.768314 H          1 MOL1         0.0829
      11    H7      21.549498   18.231391   22.901921 H          1 MOL1         0.0829
      12    O1      19.725506   17.886848   20.380285 O.3        1 MOL1        -0.5515
      13    H8      19.995896   18.732172   19.964310 H          1 MOL1         0.3773
@<TRIPOS>BOND
    1     1     2    1
    2     1     3    1
    3     1     4    1
    4     4     5    1
    5     4     6    1
    6     4     7    1
    7     7     8    1
    8     1     9    1
    9     7     9    1
   10     9    10    1
   11     9    11    1
   12     7    12    1
   13    12    13    1
@<TRIPOS>SUBSTRUCTURE
       1 MOL1            1 RESIDUE      1      MOL     
@<SCITEGIC>MOL_PROPERTY
VConf Rank
SciTegic.value.IntegerValue
944

@<SCITEGIC>MOL_PROPERTY
Conf_Id
SciTegic.value.IntegerValue
24

@<SCITEGIC>MOL_PROPERTY
Delta U+W
SciTegic.value.DoubleValue
0.356

@<SCITEGIC>MOL_PROPERTY
U+W
SciTegic.value.DoubleValue
-2.775

@<SCITEGIC>MOL_PROPERTY
Grad RMS
SciTegic.value.DoubleValue
0.000000

@<SCITEGIC>MOL_PROPERTY
U
SciTegic.value.DoubleValue
-0.184

@<SCITEGIC>MOL_PROPERTY
W
SciTegic.value.DoubleValue
-2.591

@<SCITEGIC>MOL_PROPERTY
W(PB)
SciTegic.value.DoubleValue
-4.184

@<SCITEGIC>MOL_PROPERTY
W(SA)
SciTegic.value.DoubleValue
1.593

@<SCITEGIC>MOL_PROPERTY
Valence
SciTegic.value.DoubleValue
6.840

@<SCITEGIC>MOL_PROPERTY
Coulomb
SciTegic.value.DoubleValue
-7.916

@<SCITEGIC>MOL_PROPERTY
VdW
SciTegic.value.DoubleValue
0.893

@<SCITEGIC>MOL_PROPERTY
VdW6
SciTegic.value.DoubleValue
-2.167

@<SCITEGIC>MOL_PROPERTY
VdW12
SciTegic.value.DoubleValue
3.060

@<SCITEGIC>MOL_PROPERTY
Bond
SciTegic.value.DoubleValue
0.059

@<SCITEGIC>MOL_PROPERTY
Angle
SciTegic.value.DoubleValue
0.918

@<SCITEGIC>MOL_PROPERTY
Pdih
SciTegic.value.DoubleValue
5.862

@<SCITEGIC>MOL_PROPERTY
Idih
SciTegic.value.DoubleValue
0.000

@<SCITEGIC>MOL_PROPERTY
Tether
SciTegic.value.DoubleValue
0.000

@<TRIPOS>MOLECULE
guest-s16_confgen4.mol2 : confsearch ligand conformer 945
          13          13           1
SMALL
USER_CHARGES
 
@<TRIPOS>ATOM
       1    C1      19.613723   19.276449   23.289120 C.3        1 MOL1        -0.1693
       2    H1      19.291555   20.055142   23.990703 H          1 MOL1         0.0829
       3    H2      20.035886   18.443616   23.865717 H          1 MOL1         0.0829
       4    C2      20.494313   19.759160   22.088417 C.3        1 MOL1        -0.1768
       5    H3      20.285507   20.783334   21.756027 H          1 MOL1         0.0829
       6    H4      21.577688   19.645853   22.207449 H          1 MOL1         0.0829
       7    C3      19.782460   18.658116   21.242864 C.3        1 MOL1         0.1211
       8    H5      19.594193   18.930569   20.196532 H          1 MOL1         0.0786
       9    C4      18.568047   18.860715   22.201065 C.3        1 MOL1        -0.1768
      10    H6      17.886949   19.664604   21.896297 H          1 MOL1         0.0829
      11    H7      17.974770   17.965391   22.418149 H          1 MOL1         0.0829
      12    O1      20.381525   17.381984   21.308713 O.3        1 MOL1        -0.5515
      13    H8      20.525239   17.193039   22.258955 H          1 MOL1         0.3773
@<TRIPOS>BOND
    1     1     2    1
    2     1     3    1
    3     1     4    1
    4     4     5    1
    5     4     6    1
    6     4     7    1
    7     7     8    1
    8     1     9    1
    9     7     9    1
   10     9    10    1
   11     9    11    1
   12     7    12    1
   13    12    13    1
@<TRIPOS>SUBSTRUCTURE
       1 MOL1            1 RESIDUE      1      MOL     
@<SCITEGIC>MOL_PROPERTY
VConf Rank
SciTegic.value.IntegerValue
945

@<SCITEGIC>MOL_PROPERTY
Conf_Id
SciTegic.value.IntegerValue
44

@<SCITEGIC>MOL_PROPERTY
Delta U+W
SciTegic.value.DoubleValue
0.823

@<SCITEGIC>MOL_PROPERTY
U+W
SciTegic.value.DoubleValue
-2.308

@<SCITEGIC>MOL_PROPERTY
Grad RMS
SciTegic.value.DoubleValue
0.000000

@<SCITEGIC>MOL_PROPERTY
U
SciTegic.value.DoubleValue
0.039

@<SCITEGIC>MOL_PROPERTY
W
SciTegic.value.DoubleValue
-2.348

@<SCITEGIC>MOL_PROPERTY
W(PB)
SciTegic.value.DoubleValue
-3.918

@<SCITEGIC>MOL_PROPERTY
W(SA)
SciTegic.value.DoubleValue
1.571

@<SCITEGIC>MOL_PROPERTY
Valence
SciTegic.value.DoubleValue
7.320

@<SCITEGIC>MOL_PROPERTY
Coulomb
SciTegic.value.DoubleValue
-8.530

@<SCITEGIC>MOL_PROPERTY
VdW
SciTegic.value.DoubleValue
1.249

@<SCITEGIC>MOL_PROPERTY
VdW6
SciTegic.value.DoubleValue
-2.615

@<SCITEGIC>MOL_PROPERTY
VdW12
SciTegic.value.DoubleValue
3.864

@<SCITEGIC>MOL_PROPERTY
Bond
SciTegic.value.DoubleValue
0.056

@<SCITEGIC>MOL_PROPERTY
Angle
SciTegic.value.DoubleValue
0.694

@<SCITEGIC>MOL_PROPERTY
Pdih
SciTegic.value.DoubleValue
6.570

@<SCITEGIC>MOL_PROPERTY
Idih
SciTegic.value.DoubleValue
0.000

@<SCITEGIC>MOL_PROPERTY
Tether
SciTegic.value.DoubleValue
0.000

@<TRIPOS>MOLECULE
guest-s16_confgen4.mol2 : confsearch ligand conformer 946
          13          13           1
SMALL
USER_CHARGES
 
@<TRIPOS>ATOM
       1    C1      20.743686   18.318889   22.489420 C.3        1 MOL1        -0.1693
       2    H1      20.608477   17.250500   22.275294 H          1 MOL1         0.0829
       3    H2      21.781288   18.484898   22.802727 H          1 MOL1         0.0829
       4    C2      19.641019   18.947726   23.403748 C.3        1 MOL1        -0.1768
       5    H3      19.204340   18.286077   24.159720 H          1 MOL1         0.0829
       6    H4      19.925291   19.892522   23.883471 H          1 MOL1         0.0829
       7    C3      18.817928   19.112517   22.090655 C.3        1 MOL1         0.1211
       8    H5      18.273110   18.206129   21.792836 H          1 MOL1         0.0786
       9    C4      20.197049   19.282240   21.384671 C.3        1 MOL1        -0.1768
      10    H6      20.254560   18.915839   20.353839 H          1 MOL1         0.0829
      11    H7      20.605628   20.299848   21.421164 H          1 MOL1         0.0829
      12    O1      17.974968   20.240325   22.045778 O.3        1 MOL1        -0.5515
      13    H8      17.645384   20.320397   21.124819 H          1 MOL1         0.3773
@<TRIPOS>BOND
    1     1     2    1
    2     1     3    1
    3     1     4    1
    4     4     5    1
    5     4     6    1
    6     4     7    1
    7     7     8    1
    8     1     9    1
    9     7     9    1
   10     9    10    1
   11     9    11    1
   12     7    12    1
   13    12    13    1
@<TRIPOS>SUBSTRUCTURE
       1 MOL1            1 RESIDUE      1      MOL     
@<SCITEGIC>MOL_PROPERTY
VConf Rank
SciTegic.value.IntegerValue
946

@<SCITEGIC>MOL_PROPERTY
Conf_Id
SciTegic.value.IntegerValue
22

@<SCITEGIC>MOL_PROPERTY
Delta U+W
SciTegic.value.DoubleValue
0.000

@<SCITEGIC>MOL_PROPERTY
U+W
SciTegic.value.DoubleValue
-3.131

@<SCITEGIC>MOL_PROPERTY
Grad RMS
SciTegic.value.DoubleValue
0.000000

@<SCITEGIC>MOL_PROPERTY
U
SciTegic.value.DoubleValue
-0.154

@<SCITEGIC>MOL_PROPERTY
W
SciTegic.value.DoubleValue
-2.978

@<SCITEGIC>MOL_PROPERTY
W(PB)
SciTegic.value.DoubleValue
-4.579

@<SCITEGIC>MOL_PROPERTY
W(SA)
SciTegic.value.DoubleValue
1.601

@<SCITEGIC>MOL_PROPERTY
Valence
SciTegic.value.DoubleValue
6.333

@<SCITEGIC>MOL_PROPERTY
Coulomb
SciTegic.value.DoubleValue
-7.439

@<SCITEGIC>MOL_PROPERTY
VdW
SciTegic.value.DoubleValue
0.952

@<SCITEGIC>MOL_PROPERTY
VdW6
SciTegic.value.DoubleValue
-2.120

@<SCITEGIC>MOL_PROPERTY
VdW12
SciTegic.value.DoubleValue
3.072

@<SCITEGIC>MOL_PROPERTY
Bond
SciTegic.value.DoubleValue
0.065

@<SCITEGIC>MOL_PROPERTY
Angle
SciTegic.value.DoubleValue
0.931

@<SCITEGIC>MOL_PROPERTY
Pdih
SciTegic.value.DoubleValue
5.338

@<SCITEGIC>MOL_PROPERTY
Idih
SciTegic.value.DoubleValue
0.000

@<SCITEGIC>MOL_PROPERTY
Tether
SciTegic.value.DoubleValue
0.000

@<TRIPOS>MOLECULE
guest-s16_confgen4.mol2 : confsearch ligand conformer 947
          13          13           1
SMALL
USER_CHARGES
 
@<TRIPOS>ATOM
       1    C1      19.711700   20.106927   22.828414 C.3        1 MOL1        -0.1693
       2    H1      20.730007   20.367359   23.145923 H          1 MOL1         0.0829
       3    H2      19.031150   20.907066   23.143007 H          1 MOL1         0.0829
       4    C2      19.268316   18.649048   23.182433 C.3        1 MOL1        -0.1768
       5    H3      18.183483   18.485197   23.173348 H          1 MOL1         0.0829
       6    H4      19.680450   18.230839   24.107322 H          1 MOL1         0.0829
       7    C3      19.996254   18.238233   21.866936 C.3        1 MOL1         0.1211
       8    H5      21.080868   18.104882   21.980478 H          1 MOL1         0.0786
       9    C4      19.588423   19.646488   21.338413 C.3        1 MOL1        -0.1768
      10    H6      18.574405   19.699845   20.923076 H          1 MOL1         0.0829
      11    H7      20.284172   20.109204   20.630044 H          1 MOL1         0.0829
      12    O1      19.427639   17.148666   21.178408 O.3        1 MOL1        -0.5515
      13    H8      19.625232   16.340627   21.699209 H          1 MOL1         0.3773
@<TRIPOS>BOND
    1     1     2    1
    2     1     3    1
    3     1     4    1
    4     4     5    1
    5     4     6    1
    6     4     7    1
    7     7     8    1
    8     1     9    1
    9     7     9    1
   10     9    10    1
   11     9    11    1
   12     7    12    1
   13    12    13    1
@<TRIPOS>SUBSTRUCTURE
       1 MOL1            1 RESIDUE      1      MOL     
@<SCITEGIC>MOL_PROPERTY
VConf Rank
SciTegic.value.IntegerValue
947

@<SCITEGIC>MOL_PROPERTY
Conf_Id
SciTegic.value.IntegerValue
19

@<SCITEGIC>MOL_PROPERTY
Delta U+W
SciTegic.value.DoubleValue
-0.011

@<SCITEGIC>MOL_PROPERTY
U+W
SciTegic.value.DoubleValue
-3.142

@<SCITEGIC>MOL_PROPERTY
Grad RMS
SciTegic.value.DoubleValue
0.000000

@<SCITEGIC>MOL_PROPERTY
U
SciTegic.value.DoubleValue
-0.154

@<SCITEGIC>MOL_PROPERTY
W
SciTegic.value.DoubleValue
-2.989

@<SCITEGIC>MOL_PROPERTY
W(PB)
SciTegic.value.DoubleValue
-4.588

@<SCITEGIC>MOL_PROPERTY
W(SA)
SciTegic.value.DoubleValue
1.599

@<SCITEGIC>MOL_PROPERTY
Valence
SciTegic.value.DoubleValue
6.334

@<SCITEGIC>MOL_PROPERTY
Coulomb
SciTegic.value.DoubleValue
-7.439

@<SCITEGIC>MOL_PROPERTY
VdW
SciTegic.value.DoubleValue
0.951

@<SCITEGIC>MOL_PROPERTY
VdW6
SciTegic.value.DoubleValue
-2.120

@<SCITEGIC>MOL_PROPERTY
VdW12
SciTegic.value.DoubleValue
3.072

@<SCITEGIC>MOL_PROPERTY
Bond
SciTegic.value.DoubleValue
0.065

@<SCITEGIC>MOL_PROPERTY
Angle
SciTegic.value.DoubleValue
0.930

@<SCITEGIC>MOL_PROPERTY
Pdih
SciTegic.value.DoubleValue
5.339

@<SCITEGIC>MOL_PROPERTY
Idih
SciTegic.value.DoubleValue
0.000

@<SCITEGIC>MOL_PROPERTY
Tether
SciTegic.value.DoubleValue
0.000

@<TRIPOS>MOLECULE
guest-s16_confgen4.mol2 : confsearch ligand conformer 948
          13          13           1
SMALL
USER_CHARGES
 
@<TRIPOS>ATOM
       1    C1      19.988946   19.499837   23.371897 C.3        1 MOL1        -0.1693
       2    H1      19.705685   20.132909   24.220990 H          1 MOL1         0.0829
       3    H2      20.952113   19.022858   23.595523 H          1 MOL1         0.0829
       4    C2      19.906970   20.166535   21.958474 C.3        1 MOL1        -0.1768
       5    H3      19.128195   20.932573   21.861200 H          1 MOL1         0.0829
       6    H4      20.845473   20.568400   21.560843 H          1 MOL1         0.0829
       7    C3      19.491121   18.760515   21.424054 C.3        1 MOL1         0.1211
       8    H5      18.756515   18.780326   20.608717 H          1 MOL1         0.0786
       9    C4      18.886591   18.523058   22.843298 C.3        1 MOL1        -0.1768
      10    H6      18.934923   17.495280   23.219713 H          1 MOL1         0.0829
      11    H7      17.860000   18.890752   22.961135 H          1 MOL1         0.0829
      12    O1      20.568500   17.910951   21.083995 O.3        1 MOL1        -0.5515
      13    H8      20.196657   17.015703   20.934262 H          1 MOL1         0.3773
@<TRIPOS>BOND
    1     1     2    1
    2     1     3    1
    3     1     4    1
    4     4     5    1
    5     4     6    1
    6     4     7    1
    7     7     8    1
    8     1     9    1
    9     7     9    1
   10     9    10    1
   11     9    11    1
   12     7    12    1
   13    12    13    1
@<TRIPOS>SUBSTRUCTURE
       1 MOL1            1 RESIDUE      1      MOL     
@<SCITEGIC>MOL_PROPERTY
VConf Rank
SciTegic.value.IntegerValue
948

@<SCITEGIC>MOL_PROPERTY
Conf_Id
SciTegic.value.IntegerValue
20

@<SCITEGIC>MOL_PROPERTY
Delta U+W
SciTegic.value.DoubleValue
1.030

@<SCITEGIC>MOL_PROPERTY
U+W
SciTegic.value.DoubleValue
-2.101

@<SCITEGIC>MOL_PROPERTY
Grad RMS
SciTegic.value.DoubleValue
0.000000

@<SCITEGIC>MOL_PROPERTY
U
SciTegic.value.DoubleValue
0.841

@<SCITEGIC>MOL_PROPERTY
W
SciTegic.value.DoubleValue
-2.942

@<SCITEGIC>MOL_PROPERTY
W(PB)
SciTegic.value.DoubleValue
-4.530

@<SCITEGIC>MOL_PROPERTY
W(SA)
SciTegic.value.DoubleValue
1.587

@<SCITEGIC>MOL_PROPERTY
Valence
SciTegic.value.DoubleValue
6.736

@<SCITEGIC>MOL_PROPERTY
Coulomb
SciTegic.value.DoubleValue
-7.246

@<SCITEGIC>MOL_PROPERTY
VdW
SciTegic.value.DoubleValue
1.352

@<SCITEGIC>MOL_PROPERTY
VdW6
SciTegic.value.DoubleValue
-2.500

@<SCITEGIC>MOL_PROPERTY
VdW12
SciTegic.value.DoubleValue
3.851

@<SCITEGIC>MOL_PROPERTY
Bond
SciTegic.value.DoubleValue
0.063

@<SCITEGIC>MOL_PROPERTY
Angle
SciTegic.value.DoubleValue
0.687

@<SCITEGIC>MOL_PROPERTY
Pdih
SciTegic.value.DoubleValue
5.986

@<SCITEGIC>MOL_PROPERTY
Idih
SciTegic.value.DoubleValue
0.000

@<SCITEGIC>MOL_PROPERTY
Tether
SciTegic.value.DoubleValue
0.000

@<TRIPOS>MOLECULE
guest-s16_confgen4.mol2 : confsearch ligand conformer 949
          13          13           1
SMALL
USER_CHARGES
 
@<TRIPOS>ATOM
       1    C1      20.735547   19.261823   22.967149 C.3        1 MOL1        -0.1693
       2    H1      21.510615   19.922628   22.556934 H          1 MOL1         0.0829
       3    H2      21.006496   19.002110   23.997468 H          1 MOL1         0.0829
       4    C2      20.336760   18.066961   22.039448 C.3        1 MOL1        -0.1768
       5    H3      21.134598   17.658617   21.409367 H          1 MOL1         0.0829
       6    H4      19.833972   17.237690   22.552187 H          1 MOL1         0.0829
       7    C3      19.380727   19.084179   21.346322 C.3        1 MOL1         0.1211
       8    H5      19.872054   19.710752   20.589554 H          1 MOL1         0.0786
       9    C4      19.268659   19.758866   22.746819 C.3        1 MOL1        -0.1768
      10    H6      18.527137   19.307757   23.417665 H          1 MOL1         0.0829
      11    H7      19.123198   20.844732   22.741454 H          1 MOL1         0.0829
      12    O1      18.184858   18.541079   20.839611 O.3        1 MOL1        -0.5515
      13    H8      17.793981   17.995644   21.554059 H          1 MOL1         0.3773
@<TRIPOS>BOND
    1     1     2    1
    2     1     3    1
    3     1     4    1
    4     4     5    1
    5     4     6    1
    6     4     7    1
    7     7     8    1
    8     1     9    1
    9     7     9    1
   10     9    10    1
   11     9    11    1
   12     7    12    1
   13    12    13    1
@<TRIPOS>SUBSTRUCTURE
       1 MOL1            1 RESIDUE      1      MOL     
@<SCITEGIC>MOL_PROPERTY
VConf Rank
SciTegic.value.IntegerValue
949

@<SCITEGIC>MOL_PROPERTY
Conf_Id
SciTegic.value.IntegerValue
24

@<SCITEGIC>MOL_PROPERTY
Delta U+W
SciTegic.value.DoubleValue
0.356

@<SCITEGIC>MOL_PROPERTY
U+W
SciTegic.value.DoubleValue
-2.775

@<SCITEGIC>MOL_PROPERTY
Grad RMS
SciTegic.value.DoubleValue
0.000000

@<SCITEGIC>MOL_PROPERTY
U
SciTegic.value.DoubleValue
-0.184

@<SCITEGIC>MOL_PROPERTY
W
SciTegic.value.DoubleValue
-2.591

@<SCITEGIC>MOL_PROPERTY
W(PB)
SciTegic.value.DoubleValue
-4.184

@<SCITEGIC>MOL_PROPERTY
W(SA)
SciTegic.value.DoubleValue
1.593

@<SCITEGIC>MOL_PROPERTY
Valence
SciTegic.value.DoubleValue
6.840

@<SCITEGIC>MOL_PROPERTY
Coulomb
SciTegic.value.DoubleValue
-7.916

@<SCITEGIC>MOL_PROPERTY
VdW
SciTegic.value.DoubleValue
0.893

@<SCITEGIC>MOL_PROPERTY
VdW6
SciTegic.value.DoubleValue
-2.167

@<SCITEGIC>MOL_PROPERTY
VdW12
SciTegic.value.DoubleValue
3.060

@<SCITEGIC>MOL_PROPERTY
Bond
SciTegic.value.DoubleValue
0.059

@<SCITEGIC>MOL_PROPERTY
Angle
SciTegic.value.DoubleValue
0.918

@<SCITEGIC>MOL_PROPERTY
Pdih
SciTegic.value.DoubleValue
5.862

@<SCITEGIC>MOL_PROPERTY
Idih
SciTegic.value.DoubleValue
0.000

@<SCITEGIC>MOL_PROPERTY
Tether
SciTegic.value.DoubleValue
0.000

@<TRIPOS>MOLECULE
guest-s16_confgen4.mol2 : confsearch ligand conformer 950
          13          13           1
SMALL
USER_CHARGES
 
@<TRIPOS>ATOM
       1    C1      20.417382   18.111886   22.144487 C.3        1 MOL1        -0.1693
       2    H1      21.392616   17.772699   21.775374 H          1 MOL1         0.0829
       3    H2      19.937129   17.277745   22.671614 H          1 MOL1         0.0829
       4    C2      19.507537   18.842806   21.101378 C.3        1 MOL1        -0.1768
       5    H3      20.056661   19.397865   20.331062 H          1 MOL1         0.0829
       6    H4      18.745060   18.227793   20.610362 H          1 MOL1         0.0829
       7    C3      19.011409   19.724433   22.289057 C.3        1 MOL1         0.1211
       8    H5      18.804754   20.770962   22.031066 H          1 MOL1         0.0786
       9    C4      20.414818   19.470674   22.921547 C.3        1 MOL1        -0.1768
      10    H6      21.186394   20.179677   22.597510 H          1 MOL1         0.0829
      11    H7      20.442054   19.402167   24.014833 H          1 MOL1         0.0829
      12    O1      17.928740   19.183818   23.015205 O.3        1 MOL1        -0.5515
      13    H8      18.167305   18.255446   23.216514 H          1 MOL1         0.3773
@<TRIPOS>BOND
    1     1     2    1
    2     1     3    1
    3     1     4    1
    4     4     5    1
    5     4     6    1
    6     4     7    1
    7     7     8    1
    8     1     9    1
    9     7     9    1
   10     9    10    1
   11     9    11    1
   12     7    12    1
   13    12    13    1
@<TRIPOS>SUBSTRUCTURE
       1 MOL1            1 RESIDUE      1      MOL     
@<SCITEGIC>MOL_PROPERTY
VConf Rank
SciTegic.value.IntegerValue
950

@<SCITEGIC>MOL_PROPERTY
Conf_Id
SciTegic.value.IntegerValue
44

@<SCITEGIC>MOL_PROPERTY
Delta U+W
SciTegic.value.DoubleValue
0.823

@<SCITEGIC>MOL_PROPERTY
U+W
SciTegic.value.DoubleValue
-2.308

@<SCITEGIC>MOL_PROPERTY
Grad RMS
SciTegic.value.DoubleValue
0.000000

@<SCITEGIC>MOL_PROPERTY
U
SciTegic.value.DoubleValue
0.039

@<SCITEGIC>MOL_PROPERTY
W
SciTegic.value.DoubleValue
-2.348

@<SCITEGIC>MOL_PROPERTY
W(PB)
SciTegic.value.DoubleValue
-3.918

@<SCITEGIC>MOL_PROPERTY
W(SA)
SciTegic.value.DoubleValue
1.571

@<SCITEGIC>MOL_PROPERTY
Valence
SciTegic.value.DoubleValue
7.320

@<SCITEGIC>MOL_PROPERTY
Coulomb
SciTegic.value.DoubleValue
-8.530

@<SCITEGIC>MOL_PROPERTY
VdW
SciTegic.value.DoubleValue
1.249

@<SCITEGIC>MOL_PROPERTY
VdW6
SciTegic.value.DoubleValue
-2.615

@<SCITEGIC>MOL_PROPERTY
VdW12
SciTegic.value.DoubleValue
3.864

@<SCITEGIC>MOL_PROPERTY
Bond
SciTegic.value.DoubleValue
0.056

@<SCITEGIC>MOL_PROPERTY
Angle
SciTegic.value.DoubleValue
0.694

@<SCITEGIC>MOL_PROPERTY
Pdih
SciTegic.value.DoubleValue
6.570

@<SCITEGIC>MOL_PROPERTY
Idih
SciTegic.value.DoubleValue
0.000

@<SCITEGIC>MOL_PROPERTY
Tether
SciTegic.value.DoubleValue
0.000

@<TRIPOS>MOLECULE
guest-s16_confgen4.mol2 : confsearch ligand conformer 951
          13          13           1
SMALL
USER_CHARGES
 
@<TRIPOS>ATOM
       1    C1      19.710275   19.614655   21.059805 C.3        1 MOL1        -0.1693
       2    H1      18.780302   19.502206   20.487014 H          1 MOL1         0.0829
       3    H2      20.406842   20.231395   20.479492 H          1 MOL1         0.0829
       4    C2      20.289737   18.280398   21.635382 C.3        1 MOL1        -0.1768
       5    H3      20.118702   17.380120   21.035210 H          1 MOL1         0.0829
       6    H4      21.349835   18.322203   21.914722 H          1 MOL1         0.0829
       7    C3      19.300946   18.503569   22.819162 C.3        1 MOL1         0.1211
       8    H5      18.279815   18.153161   22.615281 H          1 MOL1         0.0786
       9    C4      19.511825   20.025278   22.556246 C.3        1 MOL1        -0.1768
      10    H6      18.652616   20.670665   22.769337 H          1 MOL1         0.0829
      11    H7      20.401564   20.451751   23.036120 H          1 MOL1         0.0829
      12    O1      19.747728   18.040836   24.072482 O.3        1 MOL1        -0.5515
      13    H8      19.122539   18.381670   24.747889 H          1 MOL1         0.3773
@<TRIPOS>BOND
    1     1     2    1
    2     1     3    1
    3     1     4    1
    4     4     5    1
    5     4     6    1
    6     4     7    1
    7     7     8    1
    8     1     9    1
    9     7     9    1
   10     9    10    1
   11     9    11    1
   12     7    12    1
   13    12    13    1
@<TRIPOS>SUBSTRUCTURE
       1 MOL1            1 RESIDUE      1      MOL     
@<SCITEGIC>MOL_PROPERTY
VConf Rank
SciTegic.value.IntegerValue
951

@<SCITEGIC>MOL_PROPERTY
Conf_Id
SciTegic.value.IntegerValue
22

@<SCITEGIC>MOL_PROPERTY
Delta U+W
SciTegic.value.DoubleValue
0.000

@<SCITEGIC>MOL_PROPERTY
U+W
SciTegic.value.DoubleValue
-3.131

@<SCITEGIC>MOL_PROPERTY
Grad RMS
SciTegic.value.DoubleValue
0.000000

@<SCITEGIC>MOL_PROPERTY
U
SciTegic.value.DoubleValue
-0.154

@<SCITEGIC>MOL_PROPERTY
W
SciTegic.value.DoubleValue
-2.978

@<SCITEGIC>MOL_PROPERTY
W(PB)
SciTegic.value.DoubleValue
-4.579

@<SCITEGIC>MOL_PROPERTY
W(SA)
SciTegic.value.DoubleValue
1.601

@<SCITEGIC>MOL_PROPERTY
Valence
SciTegic.value.DoubleValue
6.333

@<SCITEGIC>MOL_PROPERTY
Coulomb
SciTegic.value.DoubleValue
-7.439

@<SCITEGIC>MOL_PROPERTY
VdW
SciTegic.value.DoubleValue
0.952

@<SCITEGIC>MOL_PROPERTY
VdW6
SciTegic.value.DoubleValue
-2.120

@<SCITEGIC>MOL_PROPERTY
VdW12
SciTegic.value.DoubleValue
3.072

@<SCITEGIC>MOL_PROPERTY
Bond
SciTegic.value.DoubleValue
0.065

@<SCITEGIC>MOL_PROPERTY
Angle
SciTegic.value.DoubleValue
0.931

@<SCITEGIC>MOL_PROPERTY
Pdih
SciTegic.value.DoubleValue
5.338

@<SCITEGIC>MOL_PROPERTY
Idih
SciTegic.value.DoubleValue
0.000

@<SCITEGIC>MOL_PROPERTY
Tether
SciTegic.value.DoubleValue
0.000

@<TRIPOS>MOLECULE
guest-s16_confgen4.mol2 : confsearch ligand conformer 952
          13          13           1
SMALL
USER_CHARGES
 
@<TRIPOS>ATOM
       1    C1      19.420970   17.627219   22.137450 C.3        1 MOL1        -0.1693
       2    H1      20.328018   17.058013   21.894850 H          1 MOL1         0.0829
       3    H2      18.571149   16.935061   22.169983 H          1 MOL1         0.0829
       4    C2      19.217037   18.926234   21.289924 C.3        1 MOL1        -0.1768
       5    H3      18.190434   19.313340   21.284684 H          1 MOL1         0.0829
       6    H4      19.586508   18.892455   20.259136 H          1 MOL1         0.0829
       7    C3      20.160008   19.605814   22.328274 C.3        1 MOL1         0.1211
       8    H5      21.229139   19.452655   22.126873 H          1 MOL1         0.0786
       9    C4      19.563695   18.597552   23.356215 C.3        1 MOL1        -0.1768
      10    H6      18.614220   18.914492   23.805247 H          1 MOL1         0.0829
      11    H7      20.240761   18.274924   24.154622 H          1 MOL1         0.0829
      12    O1      19.889716   20.963385   22.589985 O.3        1 MOL1        -0.5515
      13    H8      20.170444   21.473237   21.799766 H          1 MOL1         0.3773
@<TRIPOS>BOND
    1     1     2    1
    2     1     3    1
    3     1     4    1
    4     4     5    1
    5     4     6    1
    6     4     7    1
    7     7     8    1
    8     1     9    1
    9     7     9    1
   10     9    10    1
   11     9    11    1
   12     7    12    1
   13    12    13    1
@<TRIPOS>SUBSTRUCTURE
       1 MOL1            1 RESIDUE      1      MOL     
@<SCITEGIC>MOL_PROPERTY
VConf Rank
SciTegic.value.IntegerValue
952

@<SCITEGIC>MOL_PROPERTY
Conf_Id
SciTegic.value.IntegerValue
19

@<SCITEGIC>MOL_PROPERTY
Delta U+W
SciTegic.value.DoubleValue
-0.011

@<SCITEGIC>MOL_PROPERTY
U+W
SciTegic.value.DoubleValue
-3.142

@<SCITEGIC>MOL_PROPERTY
Grad RMS
SciTegic.value.DoubleValue
0.000000

@<SCITEGIC>MOL_PROPERTY
U
SciTegic.value.DoubleValue
-0.154

@<SCITEGIC>MOL_PROPERTY
W
SciTegic.value.DoubleValue
-2.989

@<SCITEGIC>MOL_PROPERTY
W(PB)
SciTegic.value.DoubleValue
-4.588

@<SCITEGIC>MOL_PROPERTY
W(SA)
SciTegic.value.DoubleValue
1.599

@<SCITEGIC>MOL_PROPERTY
Valence
SciTegic.value.DoubleValue
6.334

@<SCITEGIC>MOL_PROPERTY
Coulomb
SciTegic.value.DoubleValue
-7.439

@<SCITEGIC>MOL_PROPERTY
VdW
SciTegic.value.DoubleValue
0.951

@<SCITEGIC>MOL_PROPERTY
VdW6
SciTegic.value.DoubleValue
-2.120

@<SCITEGIC>MOL_PROPERTY
VdW12
SciTegic.value.DoubleValue
3.072

@<SCITEGIC>MOL_PROPERTY
Bond
SciTegic.value.DoubleValue
0.065

@<SCITEGIC>MOL_PROPERTY
Angle
SciTegic.value.DoubleValue
0.930

@<SCITEGIC>MOL_PROPERTY
Pdih
SciTegic.value.DoubleValue
5.339

@<SCITEGIC>MOL_PROPERTY
Idih
SciTegic.value.DoubleValue
0.000

@<SCITEGIC>MOL_PROPERTY
Tether
SciTegic.value.DoubleValue
0.000

@<TRIPOS>MOLECULE
guest-s16_confgen4.mol2 : confsearch ligand conformer 953
          13          13           1
SMALL
USER_CHARGES
 
@<TRIPOS>ATOM
       1    C1      18.441358   18.823193   22.494126 C.3        1 MOL1        -0.1693
       2    H1      17.596231   18.165312   22.259752 H          1 MOL1         0.0829
       3    H2      18.128648   19.533297   23.270768 H          1 MOL1         0.0829
       4    C2      19.165389   19.476493   21.270219 C.3        1 MOL1        -0.1768
       5    H3      19.154683   18.868471   20.357553 H          1 MOL1         0.0829
       6    H4      18.855316   20.496051   21.015762 H          1 MOL1         0.0829
       7    C3      20.479183   19.355521   22.103728 C.3        1 MOL1         0.1211
       8    H5      21.376363   19.130474   21.512767 H          1 MOL1         0.0786
       9    C4      19.808664   18.115001   22.772764 C.3        1 MOL1        -0.1768
      10    H6      20.056021   17.945820   23.826588 H          1 MOL1         0.0829
      11    H7      19.953602   17.176225   22.224433 H          1 MOL1         0.0829
      12    O1      20.732935   20.439561   22.974712 O.3        1 MOL1        -0.5515
      13    H8      21.473293   20.174276   23.560928 H          1 MOL1         0.3773
@<TRIPOS>BOND
    1     1     2    1
    2     1     3    1
    3     1     4    1
    4     4     5    1
    5     4     6    1
    6     4     7    1
    7     7     8    1
    8     1     9    1
    9     7     9    1
   10     9    10    1
   11     9    11    1
   12     7    12    1
   13    12    13    1
@<TRIPOS>SUBSTRUCTURE
       1 MOL1            1 RESIDUE      1      MOL     
@<SCITEGIC>MOL_PROPERTY
VConf Rank
SciTegic.value.IntegerValue
953

@<SCITEGIC>MOL_PROPERTY
Conf_Id
SciTegic.value.IntegerValue
20

@<SCITEGIC>MOL_PROPERTY
Delta U+W
SciTegic.value.DoubleValue
1.030

@<SCITEGIC>MOL_PROPERTY
U+W
SciTegic.value.DoubleValue
-2.101

@<SCITEGIC>MOL_PROPERTY
Grad RMS
SciTegic.value.DoubleValue
0.000000

@<SCITEGIC>MOL_PROPERTY
U
SciTegic.value.DoubleValue
0.841

@<SCITEGIC>MOL_PROPERTY
W
SciTegic.value.DoubleValue
-2.942

@<SCITEGIC>MOL_PROPERTY
W(PB)
SciTegic.value.DoubleValue
-4.530

@<SCITEGIC>MOL_PROPERTY
W(SA)
SciTegic.value.DoubleValue
1.587

@<SCITEGIC>MOL_PROPERTY
Valence
SciTegic.value.DoubleValue
6.736

@<SCITEGIC>MOL_PROPERTY
Coulomb
SciTegic.value.DoubleValue
-7.246

@<SCITEGIC>MOL_PROPERTY
VdW
SciTegic.value.DoubleValue
1.352

@<SCITEGIC>MOL_PROPERTY
VdW6
SciTegic.value.DoubleValue
-2.500

@<SCITEGIC>MOL_PROPERTY
VdW12
SciTegic.value.DoubleValue
3.851

@<SCITEGIC>MOL_PROPERTY
Bond
SciTegic.value.DoubleValue
0.063

@<SCITEGIC>MOL_PROPERTY
Angle
SciTegic.value.DoubleValue
0.687

@<SCITEGIC>MOL_PROPERTY
Pdih
SciTegic.value.DoubleValue
5.986

@<SCITEGIC>MOL_PROPERTY
Idih
SciTegic.value.DoubleValue
0.000

@<SCITEGIC>MOL_PROPERTY
Tether
SciTegic.value.DoubleValue
0.000

@<TRIPOS>MOLECULE
guest-s16_confgen4.mol2 : confsearch ligand conformer 954
          13          13           1
SMALL
USER_CHARGES
 
@<TRIPOS>ATOM
       1    C1      20.499769   18.752544   21.194536 C.3        1 MOL1        -0.1693
       2    H1      21.162616   19.567582   20.875135 H          1 MOL1         0.0829
       3    H2      20.646447   17.898471   20.522624 H          1 MOL1         0.0829
       4    C2      19.016435   19.178338   21.451005 C.3        1 MOL1        -0.1768
       5    H3      18.632133   19.989434   20.822730 H          1 MOL1         0.0829
       6    H4      18.294816   18.352189   21.439572 H          1 MOL1         0.0829
       7    C3      19.510504   19.596569   22.868797 C.3        1 MOL1         0.1211
       8    H5      19.966686   20.595265   22.903430 H          1 MOL1         0.0786
       9    C4      20.542280   18.437144   22.726225 C.3        1 MOL1        -0.1768
      10    H6      20.161706   17.445329   22.999820 H          1 MOL1         0.0829
      11    H7      21.505531   18.593652   23.224167 H          1 MOL1         0.0829
      12    O1      18.570356   19.444951   23.905595 O.3        1 MOL1        -0.5515
      13    H8      18.199323   18.541368   23.824402 H          1 MOL1         0.3773
@<TRIPOS>BOND
    1     1     2    1
    2     1     3    1
    3     1     4    1
    4     4     5    1
    5     4     6    1
    6     4     7    1
    7     7     8    1
    8     1     9    1
    9     7     9    1
   10     9    10    1
   11     9    11    1
   12     7    12    1
   13    12    13    1
@<TRIPOS>SUBSTRUCTURE
       1 MOL1            1 RESIDUE      1      MOL     
@<SCITEGIC>MOL_PROPERTY
VConf Rank
SciTegic.value.IntegerValue
954

@<SCITEGIC>MOL_PROPERTY
Conf_Id
SciTegic.value.IntegerValue
24

@<SCITEGIC>MOL_PROPERTY
Delta U+W
SciTegic.value.DoubleValue
0.356

@<SCITEGIC>MOL_PROPERTY
U+W
SciTegic.value.DoubleValue
-2.775

@<SCITEGIC>MOL_PROPERTY
Grad RMS
SciTegic.value.DoubleValue
0.000000

@<SCITEGIC>MOL_PROPERTY
U
SciTegic.value.DoubleValue
-0.184

@<SCITEGIC>MOL_PROPERTY
W
SciTegic.value.DoubleValue
-2.591

@<SCITEGIC>MOL_PROPERTY
W(PB)
SciTegic.value.DoubleValue
-4.184

@<SCITEGIC>MOL_PROPERTY
W(SA)
SciTegic.value.DoubleValue
1.593

@<SCITEGIC>MOL_PROPERTY
Valence
SciTegic.value.DoubleValue
6.840

@<SCITEGIC>MOL_PROPERTY
Coulomb
SciTegic.value.DoubleValue
-7.916

@<SCITEGIC>MOL_PROPERTY
VdW
SciTegic.value.DoubleValue
0.893

@<SCITEGIC>MOL_PROPERTY
VdW6
SciTegic.value.DoubleValue
-2.167

@<SCITEGIC>MOL_PROPERTY
VdW12
SciTegic.value.DoubleValue
3.060

@<SCITEGIC>MOL_PROPERTY
Bond
SciTegic.value.DoubleValue
0.059

@<SCITEGIC>MOL_PROPERTY
Angle
SciTegic.value.DoubleValue
0.918

@<SCITEGIC>MOL_PROPERTY
Pdih
SciTegic.value.DoubleValue
5.862

@<SCITEGIC>MOL_PROPERTY
Idih
SciTegic.value.DoubleValue
0.000

@<SCITEGIC>MOL_PROPERTY
Tether
SciTegic.value.DoubleValue
0.000

@<TRIPOS>MOLECULE
guest-s16_confgen4.mol2 : confsearch ligand conformer 955
          13          13           1
SMALL
USER_CHARGES
 
@<TRIPOS>ATOM
       1    C1      19.187569   18.498005   23.096347 C.3        1 MOL1        -0.1693
       2    H1      19.039913   17.577063   23.672921 H          1 MOL1         0.0829
       3    H2      18.606969   19.300012   23.569616 H          1 MOL1         0.0829
       4    C2      18.997646   18.373453   21.547621 C.3        1 MOL1        -0.1768
       5    H3      19.254681   17.389389   21.137052 H          1 MOL1         0.0829
       6    H4      18.018078   18.669173   21.155568 H          1 MOL1         0.0829
       7    C3      20.133614   19.434619   21.415358 C.3        1 MOL1         0.1211
       8    H5      20.800914   19.290512   20.556038 H          1 MOL1         0.0786
       9    C4      20.672199   18.867243   22.765175 C.3        1 MOL1        -0.1768
      10    H6      21.339809   18.004249   22.653133 H          1 MOL1         0.0829
      11    H7      21.150187   19.592762   23.432900 H          1 MOL1         0.0829
      12    O1      19.699036   20.776260   21.468931 O.3        1 MOL1        -0.5515
      13    H8      19.111242   20.845231   22.249350 H          1 MOL1         0.3773
@<TRIPOS>BOND
    1     1     2    1
    2     1     3    1
    3     1     4    1
    4     4     5    1
    5     4     6    1
    6     4     7    1
    7     7     8    1
    8     1     9    1
    9     7     9    1
   10     9    10    1
   11     9    11    1
   12     7    12    1
   13    12    13    1
@<TRIPOS>SUBSTRUCTURE
       1 MOL1            1 RESIDUE      1      MOL     
@<SCITEGIC>MOL_PROPERTY
VConf Rank
SciTegic.value.IntegerValue
955

@<SCITEGIC>MOL_PROPERTY
Conf_Id
SciTegic.value.IntegerValue
44

@<SCITEGIC>MOL_PROPERTY
Delta U+W
SciTegic.value.DoubleValue
0.823

@<SCITEGIC>MOL_PROPERTY
U+W
SciTegic.value.DoubleValue
-2.308

@<SCITEGIC>MOL_PROPERTY
Grad RMS
SciTegic.value.DoubleValue
0.000000

@<SCITEGIC>MOL_PROPERTY
U
SciTegic.value.DoubleValue
0.039

@<SCITEGIC>MOL_PROPERTY
W
SciTegic.value.DoubleValue
-2.348

@<SCITEGIC>MOL_PROPERTY
W(PB)
SciTegic.value.DoubleValue
-3.918

@<SCITEGIC>MOL_PROPERTY
W(SA)
SciTegic.value.DoubleValue
1.571

@<SCITEGIC>MOL_PROPERTY
Valence
SciTegic.value.DoubleValue
7.320

@<SCITEGIC>MOL_PROPERTY
Coulomb
SciTegic.value.DoubleValue
-8.530

@<SCITEGIC>MOL_PROPERTY
VdW
SciTegic.value.DoubleValue
1.249

@<SCITEGIC>MOL_PROPERTY
VdW6
SciTegic.value.DoubleValue
-2.615

@<SCITEGIC>MOL_PROPERTY
VdW12
SciTegic.value.DoubleValue
3.864

@<SCITEGIC>MOL_PROPERTY
Bond
SciTegic.value.DoubleValue
0.056

@<SCITEGIC>MOL_PROPERTY
Angle
SciTegic.value.DoubleValue
0.694

@<SCITEGIC>MOL_PROPERTY
Pdih
SciTegic.value.DoubleValue
6.570

@<SCITEGIC>MOL_PROPERTY
Idih
SciTegic.value.DoubleValue
0.000

@<SCITEGIC>MOL_PROPERTY
Tether
SciTegic.value.DoubleValue
0.000

@<TRIPOS>MOLECULE
guest-s16_confgen4.mol2 : confsearch ligand conformer 956
          13          13           1
SMALL
USER_CHARGES
 
@<TRIPOS>ATOM
       1    C1      20.370113   19.468242   21.215736 C.3        1 MOL1        -0.1693
       2    H1      21.419672   19.146621   21.239625 H          1 MOL1         0.0829
       3    H2      20.194878   20.023642   20.286670 H          1 MOL1         0.0829
       4    C2      19.864647   20.150431   22.529673 C.3        1 MOL1        -0.1768
       5    H3      20.605717   20.732117   23.088615 H          1 MOL1         0.0829
       6    H4      18.956120   20.754409   22.414015 H          1 MOL1         0.0829
       7    C3      19.614719   18.700090   23.042405 C.3        1 MOL1         0.1211
       8    H5      20.510478   18.215645   23.454705 H          1 MOL1         0.0786
       9    C4      19.333601   18.345480   21.550957 C.3        1 MOL1        -0.1768
      10    H6      19.605420   17.330283   21.241666 H          1 MOL1         0.0829
      11    H7      18.309036   18.553701   21.218233 H          1 MOL1         0.0829
      12    O1      18.518623   18.550131   23.914548 O.3        1 MOL1        -0.5515
      13    H8      18.369704   17.587116   24.031296 H          1 MOL1         0.3773
@<TRIPOS>BOND
    1     1     2    1
    2     1     3    1
    3     1     4    1
    4     4     5    1
    5     4     6    1
    6     4     7    1
    7     7     8    1
    8     1     9    1
    9     7     9    1
   10     9    10    1
   11     9    11    1
   12     7    12    1
   13    12    13    1
@<TRIPOS>SUBSTRUCTURE
       1 MOL1            1 RESIDUE      1      MOL     
@<SCITEGIC>MOL_PROPERTY
VConf Rank
SciTegic.value.IntegerValue
956

@<SCITEGIC>MOL_PROPERTY
Conf_Id
SciTegic.value.IntegerValue
22

@<SCITEGIC>MOL_PROPERTY
Delta U+W
SciTegic.value.DoubleValue
0.000

@<SCITEGIC>MOL_PROPERTY
U+W
SciTegic.value.DoubleValue
-3.131

@<SCITEGIC>MOL_PROPERTY
Grad RMS
SciTegic.value.DoubleValue
0.000000

@<SCITEGIC>MOL_PROPERTY
U
SciTegic.value.DoubleValue
-0.154

@<SCITEGIC>MOL_PROPERTY
W
SciTegic.value.DoubleValue
-2.978

@<SCITEGIC>MOL_PROPERTY
W(PB)
SciTegic.value.DoubleValue
-4.579

@<SCITEGIC>MOL_PROPERTY
W(SA)
SciTegic.value.DoubleValue
1.601

@<SCITEGIC>MOL_PROPERTY
Valence
SciTegic.value.DoubleValue
6.333

@<SCITEGIC>MOL_PROPERTY
Coulomb
SciTegic.value.DoubleValue
-7.439

@<SCITEGIC>MOL_PROPERTY
VdW
SciTegic.value.DoubleValue
0.952

@<SCITEGIC>MOL_PROPERTY
VdW6
SciTegic.value.DoubleValue
-2.120

@<SCITEGIC>MOL_PROPERTY
VdW12
SciTegic.value.DoubleValue
3.072

@<SCITEGIC>MOL_PROPERTY
Bond
SciTegic.value.DoubleValue
0.065

@<SCITEGIC>MOL_PROPERTY
Angle
SciTegic.value.DoubleValue
0.931

@<SCITEGIC>MOL_PROPERTY
Pdih
SciTegic.value.DoubleValue
5.338

@<SCITEGIC>MOL_PROPERTY
Idih
SciTegic.value.DoubleValue
0.000

@<SCITEGIC>MOL_PROPERTY
Tether
SciTegic.value.DoubleValue
0.000

@<TRIPOS>MOLECULE
guest-s16_confgen4.mol2 : confsearch ligand conformer 957
          13          13           1
SMALL
USER_CHARGES
 
@<TRIPOS>ATOM
       1    C1      19.360842   17.668930   22.545376 C.3        1 MOL1        -0.1693
       2    H1      18.326748   17.377356   22.319060 H          1 MOL1         0.0829
       3    H2      19.869709   16.818923   23.015355 H          1 MOL1         0.0829
       4    C2      19.508416   19.045924   23.273002 C.3        1 MOL1        -0.1768
       5    H3      20.467127   19.192551   23.786000 H          1 MOL1         0.0829
       6    H4      18.697180   19.319534   23.956527 H          1 MOL1         0.0829
       7    C3      19.435214   19.669840   21.846620 C.3        1 MOL1         0.1211
       8    H5      18.411770   19.800220   21.468961 H          1 MOL1         0.0786
       9    C4      20.120602   18.356305   21.363181 C.3        1 MOL1        -0.1768
      10    H6      21.213773   18.353511   21.455668 H          1 MOL1         0.0829
      11    H7      19.851351   18.021597   20.355492 H          1 MOL1         0.0829
      12    O1      20.189571   20.845406   21.663488 O.3        1 MOL1        -0.5515
      13    H8      19.729795   21.564285   22.148280 H          1 MOL1         0.3773
@<TRIPOS>BOND
    1     1     2    1
    2     1     3    1
    3     1     4    1
    4     4     5    1
    5     4     6    1
    6     4     7    1
    7     7     8    1
    8     1     9    1
    9     7     9    1
   10     9    10    1
   11     9    11    1
   12     7    12    1
   13    12    13    1
@<TRIPOS>SUBSTRUCTURE
       1 MOL1            1 RESIDUE      1      MOL     
@<SCITEGIC>MOL_PROPERTY
VConf Rank
SciTegic.value.IntegerValue
957

@<SCITEGIC>MOL_PROPERTY
Conf_Id
SciTegic.value.IntegerValue
19

@<SCITEGIC>MOL_PROPERTY
Delta U+W
SciTegic.value.DoubleValue
-0.011

@<SCITEGIC>MOL_PROPERTY
U+W
SciTegic.value.DoubleValue
-3.142

@<SCITEGIC>MOL_PROPERTY
Grad RMS
SciTegic.value.DoubleValue
0.000000

@<SCITEGIC>MOL_PROPERTY
U
SciTegic.value.DoubleValue
-0.154

@<SCITEGIC>MOL_PROPERTY
W
SciTegic.value.DoubleValue
-2.989

@<SCITEGIC>MOL_PROPERTY
W(PB)
SciTegic.value.DoubleValue
-4.588

@<SCITEGIC>MOL_PROPERTY
W(SA)
SciTegic.value.DoubleValue
1.599

@<SCITEGIC>MOL_PROPERTY
Valence
SciTegic.value.DoubleValue
6.334

@<SCITEGIC>MOL_PROPERTY
Coulomb
SciTegic.value.DoubleValue
-7.439

@<SCITEGIC>MOL_PROPERTY
VdW
SciTegic.value.DoubleValue
0.951

@<SCITEGIC>MOL_PROPERTY
VdW6
SciTegic.value.DoubleValue
-2.120

@<SCITEGIC>MOL_PROPERTY
VdW12
SciTegic.value.DoubleValue
3.072

@<SCITEGIC>MOL_PROPERTY
Bond
SciTegic.value.DoubleValue
0.065

@<SCITEGIC>MOL_PROPERTY
Angle
SciTegic.value.DoubleValue
0.930

@<SCITEGIC>MOL_PROPERTY
Pdih
SciTegic.value.DoubleValue
5.339

@<SCITEGIC>MOL_PROPERTY
Idih
SciTegic.value.DoubleValue
0.000

@<SCITEGIC>MOL_PROPERTY
Tether
SciTegic.value.DoubleValue
0.000

@<TRIPOS>MOLECULE
guest-s16_confgen4.mol2 : confsearch ligand conformer 958
          13          13           1
SMALL
USER_CHARGES
 
@<TRIPOS>ATOM
       1    C1      18.870228   19.693979   23.006134 C.3        1 MOL1        -0.1693
       2    H1      18.804537   20.382154   23.857061 H          1 MOL1         0.0829
       3    H2      17.863970   19.552266   22.590719 H          1 MOL1         0.0829
       4    C2      19.663771   18.367916   23.252750 C.3        1 MOL1        -0.1768
       5    H3      20.482531   18.455630   23.977115 H          1 MOL1         0.0829
       6    H4      19.062942   17.487951   23.507817 H          1 MOL1         0.0829
       7    C3      20.114703   18.472153   21.762374 C.3        1 MOL1         0.1211
       8    H5      21.137421   18.123743   21.568796 H          1 MOL1         0.0786
       9    C4      19.973106   20.015902   21.943720 C.3        1 MOL1        -0.1768
      10    H6      19.641635   20.574374   21.061344 H          1 MOL1         0.0829
      11    H7      20.866987   20.503835   22.350995 H          1 MOL1         0.0829
      12    O1      19.222634   17.896077   20.829372 O.3        1 MOL1        -0.5515
      13    H8      19.517223   18.173717   19.935902 H          1 MOL1         0.3773
@<TRIPOS>BOND
    1     1     2    1
    2     1     3    1
    3     1     4    1
    4     4     5    1
    5     4     6    1
    6     4     7    1
    7     7     8    1
    8     1     9    1
    9     7     9    1
   10     9    10    1
   11     9    11    1
   12     7    12    1
   13    12    13    1
@<TRIPOS>SUBSTRUCTURE
       1 MOL1            1 RESIDUE      1      MOL     
@<SCITEGIC>MOL_PROPERTY
VConf Rank
SciTegic.value.IntegerValue
958

@<SCITEGIC>MOL_PROPERTY
Conf_Id
SciTegic.value.IntegerValue
20

@<SCITEGIC>MOL_PROPERTY
Delta U+W
SciTegic.value.DoubleValue
1.030

@<SCITEGIC>MOL_PROPERTY
U+W
SciTegic.value.DoubleValue
-2.101

@<SCITEGIC>MOL_PROPERTY
Grad RMS
SciTegic.value.DoubleValue
0.000000

@<SCITEGIC>MOL_PROPERTY
U
SciTegic.value.DoubleValue
0.841

@<SCITEGIC>MOL_PROPERTY
W
SciTegic.value.DoubleValue
-2.942

@<SCITEGIC>MOL_PROPERTY
W(PB)
SciTegic.value.DoubleValue
-4.530

@<SCITEGIC>MOL_PROPERTY
W(SA)
SciTegic.value.DoubleValue
1.587

@<SCITEGIC>MOL_PROPERTY
Valence
SciTegic.value.DoubleValue
6.736

@<SCITEGIC>MOL_PROPERTY
Coulomb
SciTegic.value.DoubleValue
-7.246

@<SCITEGIC>MOL_PROPERTY
VdW
SciTegic.value.DoubleValue
1.352

@<SCITEGIC>MOL_PROPERTY
VdW6
SciTegic.value.DoubleValue
-2.500

@<SCITEGIC>MOL_PROPERTY
VdW12
SciTegic.value.DoubleValue
3.851

@<SCITEGIC>MOL_PROPERTY
Bond
SciTegic.value.DoubleValue
0.063

@<SCITEGIC>MOL_PROPERTY
Angle
SciTegic.value.DoubleValue
0.687

@<SCITEGIC>MOL_PROPERTY
Pdih
SciTegic.value.DoubleValue
5.986

@<SCITEGIC>MOL_PROPERTY
Idih
SciTegic.value.DoubleValue
0.000

@<SCITEGIC>MOL_PROPERTY
Tether
SciTegic.value.DoubleValue
0.000

@<TRIPOS>MOLECULE
guest-s16_confgen4.mol2 : confsearch ligand conformer 959
          13          13           1
SMALL
USER_CHARGES
 
@<TRIPOS>ATOM
       1    C1      20.281354   18.304536   21.244596 C.3        1 MOL1        -0.1693
       2    H1      21.193835   18.714068   20.791463 H          1 MOL1         0.0829
       3    H2      20.022349   17.372320   20.728542 H          1 MOL1         0.0829
       4    C2      19.119590   19.336938   21.422943 C.3        1 MOL1        -0.1768
       5    H3      19.054583   20.125325   20.664977 H          1 MOL1         0.0829
       6    H4      18.126133   18.889956   21.551933 H          1 MOL1         0.0829
       7    C3      19.837610   19.730673   22.749056 C.3        1 MOL1         0.1211
       8    H5      20.660659   20.445389   22.613168 H          1 MOL1         0.0786
       9    C4      20.298265   18.242885   22.807693 C.3        1 MOL1        -0.1768
      10    H6      19.568257   17.551368   23.246191 H          1 MOL1         0.0829
      11    H7      21.274207   18.065057   23.272674 H          1 MOL1         0.0829
      12    O1      18.990930   20.142951   23.795467 O.3        1 MOL1        -0.5515
      13    H8      18.280830   19.471371   23.869333 H          1 MOL1         0.3773
@<TRIPOS>BOND
    1     1     2    1
    2     1     3    1
    3     1     4    1
    4     4     5    1
    5     4     6    1
    6     4     7    1
    7     7     8    1
    8     1     9    1
    9     7     9    1
   10     9    10    1
   11     9    11    1
   12     7    12    1
   13    12    13    1
@<TRIPOS>SUBSTRUCTURE
       1 MOL1            1 RESIDUE      1      MOL     
@<SCITEGIC>MOL_PROPERTY
VConf Rank
SciTegic.value.IntegerValue
959

@<SCITEGIC>MOL_PROPERTY
Conf_Id
SciTegic.value.IntegerValue
24

@<SCITEGIC>MOL_PROPERTY
Delta U+W
SciTegic.value.DoubleValue
0.356

@<SCITEGIC>MOL_PROPERTY
U+W
SciTegic.value.DoubleValue
-2.775

@<SCITEGIC>MOL_PROPERTY
Grad RMS
SciTegic.value.DoubleValue
0.000000

@<SCITEGIC>MOL_PROPERTY
U
SciTegic.value.DoubleValue
-0.184

@<SCITEGIC>MOL_PROPERTY
W
SciTegic.value.DoubleValue
-2.591

@<SCITEGIC>MOL_PROPERTY
W(PB)
SciTegic.value.DoubleValue
-4.184

@<SCITEGIC>MOL_PROPERTY
W(SA)
SciTegic.value.DoubleValue
1.593

@<SCITEGIC>MOL_PROPERTY
Valence
SciTegic.value.DoubleValue
6.840

@<SCITEGIC>MOL_PROPERTY
Coulomb
SciTegic.value.DoubleValue
-7.916

@<SCITEGIC>MOL_PROPERTY
VdW
SciTegic.value.DoubleValue
0.893

@<SCITEGIC>MOL_PROPERTY
VdW6
SciTegic.value.DoubleValue
-2.167

@<SCITEGIC>MOL_PROPERTY
VdW12
SciTegic.value.DoubleValue
3.060

@<SCITEGIC>MOL_PROPERTY
Bond
SciTegic.value.DoubleValue
0.059

@<SCITEGIC>MOL_PROPERTY
Angle
SciTegic.value.DoubleValue
0.918

@<SCITEGIC>MOL_PROPERTY
Pdih
SciTegic.value.DoubleValue
5.862

@<SCITEGIC>MOL_PROPERTY
Idih
SciTegic.value.DoubleValue
0.000

@<SCITEGIC>MOL_PROPERTY
Tether
SciTegic.value.DoubleValue
0.000

@<TRIPOS>MOLECULE
guest-s16_confgen4.mol2 : confsearch ligand conformer 960
          13          13           1
SMALL
USER_CHARGES
 
@<TRIPOS>ATOM
       1    C1      19.221200   18.513001   21.296103 C.3        1 MOL1        -0.1693
       2    H1      18.612381   18.692979   20.402055 H          1 MOL1         0.0829
       3    H2      19.488117   17.448950   21.325170 H          1 MOL1         0.0829
       4    C2      18.653275   19.086267   22.637358 C.3        1 MOL1        -0.1768
       5    H3      18.053133   19.997179   22.522972 H          1 MOL1         0.0829
       6    H4      18.099772   18.381635   23.268101 H          1 MOL1         0.0829
       7    C3      20.135840   19.348182   23.046496 C.3        1 MOL1         0.1211
       8    H5      20.296878   20.259628   23.636259 H          1 MOL1         0.0786
       9    C4      20.416963   19.498137   21.519251 C.3        1 MOL1        -0.1768
      10    H6      20.249251   20.510032   21.130721 H          1 MOL1         0.0829
      11    H7      21.398599   19.152002   21.176776 H          1 MOL1         0.0829
      12    O1      20.781587   18.254801   23.662335 O.3        1 MOL1        -0.5515
      13    H8      20.604859   17.475179   23.096411 H          1 MOL1         0.3773
@<TRIPOS>BOND
    1     1     2    1
    2     1     3    1
    3     1     4    1
    4     4     5    1
    5     4     6    1
    6     4     7    1
    7     7     8    1
    8     1     9    1
    9     7     9    1
   10     9    10    1
   11     9    11    1
   12     7    12    1
   13    12    13    1
@<TRIPOS>SUBSTRUCTURE
       1 MOL1            1 RESIDUE      1      MOL     
@<SCITEGIC>MOL_PROPERTY
VConf Rank
SciTegic.value.IntegerValue
960

@<SCITEGIC>MOL_PROPERTY
Conf_Id
SciTegic.value.IntegerValue
44

@<SCITEGIC>MOL_PROPERTY
Delta U+W
SciTegic.value.DoubleValue
0.823

@<SCITEGIC>MOL_PROPERTY
U+W
SciTegic.value.DoubleValue
-2.308

@<SCITEGIC>MOL_PROPERTY
Grad RMS
SciTegic.value.DoubleValue
0.000000

@<SCITEGIC>MOL_PROPERTY
U
SciTegic.value.DoubleValue
0.039

@<SCITEGIC>MOL_PROPERTY
W
SciTegic.value.DoubleValue
-2.348

@<SCITEGIC>MOL_PROPERTY
W(PB)
SciTegic.value.DoubleValue
-3.918

@<SCITEGIC>MOL_PROPERTY
W(SA)
SciTegic.value.DoubleValue
1.571

@<SCITEGIC>MOL_PROPERTY
Valence
SciTegic.value.DoubleValue
7.320

@<SCITEGIC>MOL_PROPERTY
Coulomb
SciTegic.value.DoubleValue
-8.530

@<SCITEGIC>MOL_PROPERTY
VdW
SciTegic.value.DoubleValue
1.249

@<SCITEGIC>MOL_PROPERTY
VdW6
SciTegic.value.DoubleValue
-2.615

@<SCITEGIC>MOL_PROPERTY
VdW12
SciTegic.value.DoubleValue
3.864

@<SCITEGIC>MOL_PROPERTY
Bond
SciTegic.value.DoubleValue
0.056

@<SCITEGIC>MOL_PROPERTY
Angle
SciTegic.value.DoubleValue
0.694

@<SCITEGIC>MOL_PROPERTY
Pdih
SciTegic.value.DoubleValue
6.570

@<SCITEGIC>MOL_PROPERTY
Idih
SciTegic.value.DoubleValue
0.000

@<SCITEGIC>MOL_PROPERTY
Tether
SciTegic.value.DoubleValue
0.000

@<TRIPOS>MOLECULE
guest-s16_confgen4.mol2 : confsearch ligand conformer 961
          13          13           1
SMALL
USER_CHARGES
 
@<TRIPOS>ATOM
       1    C1      18.954410   18.507473   23.221272 C.3        1 MOL1        -0.1693
       2    H1      18.159268   17.839961   22.863831 H          1 MOL1         0.0829
       3    H2      18.956396   18.494370   24.317703 H          1 MOL1         0.0829
       4    C2      18.972746   19.920928   22.551110 C.3        1 MOL1        -0.1768
       5    H3      17.999477   20.331022   22.260367 H          1 MOL1         0.0829
       6    H4      19.526219   20.686869   23.108413 H          1 MOL1         0.0829
       7    C3      19.787185   19.236417   21.412259 C.3        1 MOL1         0.1211
       8    H5      19.162814   18.721389   20.669313 H          1 MOL1         0.0786
       9    C4      20.342208   18.301720   22.529168 C.3        1 MOL1        -0.1768
      10    H6      20.580252   17.277772   22.220886 H          1 MOL1         0.0829
      11    H7      21.195841   18.711147   23.083673 H          1 MOL1         0.0829
      12    O1      20.744094   20.054809   20.780512 O.3        1 MOL1        -0.5515
      13    H8      21.291816   19.474029   20.209636 H          1 MOL1         0.3773
@<TRIPOS>BOND
    1     1     2    1
    2     1     3    1
    3     1     4    1
    4     4     5    1
    5     4     6    1
    6     4     7    1
    7     7     8    1
    8     1     9    1
    9     7     9    1
   10     9    10    1
   11     9    11    1
   12     7    12    1
   13    12    13    1
@<TRIPOS>SUBSTRUCTURE
       1 MOL1            1 RESIDUE      1      MOL     
@<SCITEGIC>MOL_PROPERTY
VConf Rank
SciTegic.value.IntegerValue
961

@<SCITEGIC>MOL_PROPERTY
Conf_Id
SciTegic.value.IntegerValue
22

@<SCITEGIC>MOL_PROPERTY
Delta U+W
SciTegic.value.DoubleValue
0.000

@<SCITEGIC>MOL_PROPERTY
U+W
SciTegic.value.DoubleValue
-3.131

@<SCITEGIC>MOL_PROPERTY
Grad RMS
SciTegic.value.DoubleValue
0.000000

@<SCITEGIC>MOL_PROPERTY
U
SciTegic.value.DoubleValue
-0.154

@<SCITEGIC>MOL_PROPERTY
W
SciTegic.value.DoubleValue
-2.978

@<SCITEGIC>MOL_PROPERTY
W(PB)
SciTegic.value.DoubleValue
-4.579

@<SCITEGIC>MOL_PROPERTY
W(SA)
SciTegic.value.DoubleValue
1.601

@<SCITEGIC>MOL_PROPERTY
Valence
SciTegic.value.DoubleValue
6.333

@<SCITEGIC>MOL_PROPERTY
Coulomb
SciTegic.value.DoubleValue
-7.439

@<SCITEGIC>MOL_PROPERTY
VdW
SciTegic.value.DoubleValue
0.952

@<SCITEGIC>MOL_PROPERTY
VdW6
SciTegic.value.DoubleValue
-2.120

@<SCITEGIC>MOL_PROPERTY
VdW12
SciTegic.value.DoubleValue
3.072

@<SCITEGIC>MOL_PROPERTY
Bond
SciTegic.value.DoubleValue
0.065

@<SCITEGIC>MOL_PROPERTY
Angle
SciTegic.value.DoubleValue
0.931

@<SCITEGIC>MOL_PROPERTY
Pdih
SciTegic.value.DoubleValue
5.338

@<SCITEGIC>MOL_PROPERTY
Idih
SciTegic.value.DoubleValue
0.000

@<SCITEGIC>MOL_PROPERTY
Tether
SciTegic.value.DoubleValue
0.000

@<TRIPOS>MOLECULE
guest-s16_confgen4.mol2 : confsearch ligand conformer 962
          13          13           1
SMALL
USER_CHARGES
 
@<TRIPOS>ATOM
       1    C1      19.218337   18.962018   20.992516 C.3        1 MOL1        -0.1693
       2    H1      19.634160   19.802024   20.420619 H          1 MOL1         0.0829
       3    H2      18.522059   18.410781   20.349341 H          1 MOL1         0.0829
       4    C2      18.688381   19.337610   22.415684 C.3        1 MOL1        -0.1768
       5    H3      17.993202   18.609775   22.852463 H          1 MOL1         0.0829
       6    H4      18.261420   20.340892   22.521994 H          1 MOL1         0.0829
       7    C3      20.168595   19.176294   22.876269 C.3        1 MOL1         0.1211
       8    H5      20.789817   20.065146   22.699958 H          1 MOL1         0.0786
       9    C4      20.278763   18.100295   21.754247 C.3        1 MOL1        -0.1768
      10    H6      19.934196   17.100902   22.047628 H          1 MOL1         0.0829
      11    H7      21.260521   18.008563   21.277070 H          1 MOL1         0.0829
      12    O1      20.342401   18.696974   24.189507 O.3        1 MOL1        -0.5515
      13    H8      20.090250   19.423107   24.799715 H          1 MOL1         0.3773
@<TRIPOS>BOND
    1     1     2    1
    2     1     3    1
    3     1     4    1
    4     4     5    1
    5     4     6    1
    6     4     7    1
    7     7     8    1
    8     1     9    1
    9     7     9    1
   10     9    10    1
   11     9    11    1
   12     7    12    1
   13    12    13    1
@<TRIPOS>SUBSTRUCTURE
       1 MOL1            1 RESIDUE      1      MOL     
@<SCITEGIC>MOL_PROPERTY
VConf Rank
SciTegic.value.IntegerValue
962

@<SCITEGIC>MOL_PROPERTY
Conf_Id
SciTegic.value.IntegerValue
19

@<SCITEGIC>MOL_PROPERTY
Delta U+W
SciTegic.value.DoubleValue
-0.011

@<SCITEGIC>MOL_PROPERTY
U+W
SciTegic.value.DoubleValue
-3.142

@<SCITEGIC>MOL_PROPERTY
Grad RMS
SciTegic.value.DoubleValue
0.000000

@<SCITEGIC>MOL_PROPERTY
U
SciTegic.value.DoubleValue
-0.154

@<SCITEGIC>MOL_PROPERTY
W
SciTegic.value.DoubleValue
-2.989

@<SCITEGIC>MOL_PROPERTY
W(PB)
SciTegic.value.DoubleValue
-4.588

@<SCITEGIC>MOL_PROPERTY
W(SA)
SciTegic.value.DoubleValue
1.599

@<SCITEGIC>MOL_PROPERTY
Valence
SciTegic.value.DoubleValue
6.334

@<SCITEGIC>MOL_PROPERTY
Coulomb
SciTegic.value.DoubleValue
-7.439

@<SCITEGIC>MOL_PROPERTY
VdW
SciTegic.value.DoubleValue
0.951

@<SCITEGIC>MOL_PROPERTY
VdW6
SciTegic.value.DoubleValue
-2.120

@<SCITEGIC>MOL_PROPERTY
VdW12
SciTegic.value.DoubleValue
3.072

@<SCITEGIC>MOL_PROPERTY
Bond
SciTegic.value.DoubleValue
0.065

@<SCITEGIC>MOL_PROPERTY
Angle
SciTegic.value.DoubleValue
0.930

@<SCITEGIC>MOL_PROPERTY
Pdih
SciTegic.value.DoubleValue
5.339

@<SCITEGIC>MOL_PROPERTY
Idih
SciTegic.value.DoubleValue
0.000

@<SCITEGIC>MOL_PROPERTY
Tether
SciTegic.value.DoubleValue
0.000

@<TRIPOS>MOLECULE
guest-s16_confgen4.mol2 : confsearch ligand conformer 963
          13          13           1
SMALL
USER_CHARGES
 
@<TRIPOS>ATOM
       1    C1      19.635966   20.285532   22.301696 C.3        1 MOL1        -0.1693
       2    H1      19.658643   21.174074   22.943533 H          1 MOL1         0.0829
       3    H2      19.693441   20.607804   21.253820 H          1 MOL1         0.0829
       4    C2      18.502741   19.248649   22.601107 C.3        1 MOL1        -0.1768
       5    H3      18.199803   19.197015   23.653879 H          1 MOL1         0.0829
       6    H4      17.602928   19.326760   21.980922 H          1 MOL1         0.0829
       7    C3      19.526133   18.149984   22.175628 C.3        1 MOL1         0.1211
       8    H5      19.451816   17.212345   22.741422 H          1 MOL1         0.0786
       9    C4      20.625325   19.134839   22.683501 C.3        1 MOL1        -0.1768
      10    H6      21.575031   19.117008   22.137522 H          1 MOL1         0.0829
      11    H7      20.837370   19.056041   23.756721 H          1 MOL1         0.0829
      12    O1      19.563422   17.876775   20.789226 O.3        1 MOL1        -0.5515
      13    H8      20.349067   17.312870   20.625124 H          1 MOL1         0.3773
@<TRIPOS>BOND
    1     1     2    1
    2     1     3    1
    3     1     4    1
    4     4     5    1
    5     4     6    1
    6     4     7    1
    7     7     8    1
    8     1     9    1
    9     7     9    1
   10     9    10    1
   11     9    11    1
   12     7    12    1
   13    12    13    1
@<TRIPOS>SUBSTRUCTURE
       1 MOL1            1 RESIDUE      1      MOL     
@<SCITEGIC>MOL_PROPERTY
VConf Rank
SciTegic.value.IntegerValue
963

@<SCITEGIC>MOL_PROPERTY
Conf_Id
SciTegic.value.IntegerValue
20

@<SCITEGIC>MOL_PROPERTY
Delta U+W
SciTegic.value.DoubleValue
1.030

@<SCITEGIC>MOL_PROPERTY
U+W
SciTegic.value.DoubleValue
-2.101

@<SCITEGIC>MOL_PROPERTY
Grad RMS
SciTegic.value.DoubleValue
0.000000

@<SCITEGIC>MOL_PROPERTY
U
SciTegic.value.DoubleValue
0.841

@<SCITEGIC>MOL_PROPERTY
W
SciTegic.value.DoubleValue
-2.942

@<SCITEGIC>MOL_PROPERTY
W(PB)
SciTegic.value.DoubleValue
-4.530

@<SCITEGIC>MOL_PROPERTY
W(SA)
SciTegic.value.DoubleValue
1.587

@<SCITEGIC>MOL_PROPERTY
Valence
SciTegic.value.DoubleValue
6.736

@<SCITEGIC>MOL_PROPERTY
Coulomb
SciTegic.value.DoubleValue
-7.246

@<SCITEGIC>MOL_PROPERTY
VdW
SciTegic.value.DoubleValue
1.352

@<SCITEGIC>MOL_PROPERTY
VdW6
SciTegic.value.DoubleValue
-2.500

@<SCITEGIC>MOL_PROPERTY
VdW12
SciTegic.value.DoubleValue
3.851

@<SCITEGIC>MOL_PROPERTY
Bond
SciTegic.value.DoubleValue
0.063

@<SCITEGIC>MOL_PROPERTY
Angle
SciTegic.value.DoubleValue
0.687

@<SCITEGIC>MOL_PROPERTY
Pdih
SciTegic.value.DoubleValue
5.986

@<SCITEGIC>MOL_PROPERTY
Idih
SciTegic.value.DoubleValue
0.000

@<SCITEGIC>MOL_PROPERTY
Tether
SciTegic.value.DoubleValue
0.000

@<TRIPOS>MOLECULE
guest-s16_confgen4.mol2 : confsearch ligand conformer 964
          13          13           1
SMALL
USER_CHARGES
 
@<TRIPOS>ATOM
       1    C1      20.909558   19.491792   22.183115 C.3        1 MOL1        -0.1693
       2    H1      21.103627   20.258225   21.421153 H          1 MOL1         0.0829
       3    H2      21.817711   19.356435   22.782581 H          1 MOL1         0.0829
       4    C2      20.242898   18.184555   21.640848 C.3        1 MOL1        -0.1768
       5    H3      20.513325   17.893133   20.619949 H          1 MOL1         0.0829
       6    H4      20.349116   17.311125   22.296001 H          1 MOL1         0.0829
       7    C3      18.896551   18.955358   21.790414 C.3        1 MOL1         0.1211
       8    H5      18.663948   19.611889   20.940969 H          1 MOL1         0.0786
       9    C4      19.580219   19.687876   22.984218 C.3        1 MOL1        -0.1768
      10    H6      19.538320   19.150457   23.939631 H          1 MOL1         0.0829
      11    H7      19.265398   20.724114   23.149720 H          1 MOL1         0.0829
      12    O1      17.781209   18.164388   22.125370 O.3        1 MOL1        -0.5515
      13    H8      18.046721   17.603492   22.884065 H          1 MOL1         0.3773
@<TRIPOS>BOND
    1     1     2    1
    2     1     3    1
    3     1     4    1
    4     4     5    1
    5     4     6    1
    6     4     7    1
    7     7     8    1
    8     1     9    1
    9     7     9    1
   10     9    10    1
   11     9    11    1
   12     7    12    1
   13    12    13    1
@<TRIPOS>SUBSTRUCTURE
       1 MOL1            1 RESIDUE      1      MOL     
@<SCITEGIC>MOL_PROPERTY
VConf Rank
SciTegic.value.IntegerValue
964

@<SCITEGIC>MOL_PROPERTY
Conf_Id
SciTegic.value.IntegerValue
24

@<SCITEGIC>MOL_PROPERTY
Delta U+W
SciTegic.value.DoubleValue
0.356

@<SCITEGIC>MOL_PROPERTY
U+W
SciTegic.value.DoubleValue
-2.775

@<SCITEGIC>MOL_PROPERTY
Grad RMS
SciTegic.value.DoubleValue
0.000000

@<SCITEGIC>MOL_PROPERTY
U
SciTegic.value.DoubleValue
-0.184

@<SCITEGIC>MOL_PROPERTY
W
SciTegic.value.DoubleValue
-2.591

@<SCITEGIC>MOL_PROPERTY
W(PB)
SciTegic.value.DoubleValue
-4.184

@<SCITEGIC>MOL_PROPERTY
W(SA)
SciTegic.value.DoubleValue
1.593

@<SCITEGIC>MOL_PROPERTY
Valence
SciTegic.value.DoubleValue
6.840

@<SCITEGIC>MOL_PROPERTY
Coulomb
SciTegic.value.DoubleValue
-7.916

@<SCITEGIC>MOL_PROPERTY
VdW
SciTegic.value.DoubleValue
0.893

@<SCITEGIC>MOL_PROPERTY
VdW6
SciTegic.value.DoubleValue
-2.167

@<SCITEGIC>MOL_PROPERTY
VdW12
SciTegic.value.DoubleValue
3.060

@<SCITEGIC>MOL_PROPERTY
Bond
SciTegic.value.DoubleValue
0.059

@<SCITEGIC>MOL_PROPERTY
Angle
SciTegic.value.DoubleValue
0.918

@<SCITEGIC>MOL_PROPERTY
Pdih
SciTegic.value.DoubleValue
5.862

@<SCITEGIC>MOL_PROPERTY
Idih
SciTegic.value.DoubleValue
0.000

@<SCITEGIC>MOL_PROPERTY
Tether
SciTegic.value.DoubleValue
0.000

@<TRIPOS>MOLECULE
guest-s16_confgen4.mol2 : confsearch ligand conformer 965
          13          13           1
SMALL
USER_CHARGES
 
@<TRIPOS>ATOM
       1    C1      19.200904   19.847586   22.713769 C.3        1 MOL1        -0.1693
       2    H1      18.752921   20.228253   23.639392 H          1 MOL1         0.0829
       3    H2      19.158104   20.640588   21.956398 H          1 MOL1         0.0829
       4    C2      18.690711   18.448482   22.231746 C.3        1 MOL1        -0.1768
       5    H3      18.380450   17.775770   23.040580 H          1 MOL1         0.0829
       6    H4      17.906594   18.457475   21.466377 H          1 MOL1         0.0829
       7    C3      20.142358   18.198484   21.717728 C.3        1 MOL1         0.1211
       8    H5      20.493721   17.163332   21.815148 H          1 MOL1         0.0786
       9    C4      20.596535   19.154845   22.863631 C.3        1 MOL1        -0.1768
      10    H6      20.753554   18.655325   23.827394 H          1 MOL1         0.0829
      11    H7      21.471276   19.778668   22.648266 H          1 MOL1         0.0829
      12    O1      20.398379   18.674072   20.413889 O.3        1 MOL1        -0.5515
      13    H8      20.066350   19.595091   20.385691 H          1 MOL1         0.3773
@<TRIPOS>BOND
    1     1     2    1
    2     1     3    1
    3     1     4    1
    4     4     5    1
    5     4     6    1
    6     4     7    1
    7     7     8    1
    8     1     9    1
    9     7     9    1
   10     9    10    1
   11     9    11    1
   12     7    12    1
   13    12    13    1
@<TRIPOS>SUBSTRUCTURE
       1 MOL1            1 RESIDUE      1      MOL     
@<SCITEGIC>MOL_PROPERTY
VConf Rank
SciTegic.value.IntegerValue
965

@<SCITEGIC>MOL_PROPERTY
Conf_Id
SciTegic.value.IntegerValue
44

@<SCITEGIC>MOL_PROPERTY
Delta U+W
SciTegic.value.DoubleValue
0.823

@<SCITEGIC>MOL_PROPERTY
U+W
SciTegic.value.DoubleValue
-2.308

@<SCITEGIC>MOL_PROPERTY
Grad RMS
SciTegic.value.DoubleValue
0.000000

@<SCITEGIC>MOL_PROPERTY
U
SciTegic.value.DoubleValue
0.039

@<SCITEGIC>MOL_PROPERTY
W
SciTegic.value.DoubleValue
-2.348

@<SCITEGIC>MOL_PROPERTY
W(PB)
SciTegic.value.DoubleValue
-3.918

@<SCITEGIC>MOL_PROPERTY
W(SA)
SciTegic.value.DoubleValue
1.571

@<SCITEGIC>MOL_PROPERTY
Valence
SciTegic.value.DoubleValue
7.320

@<SCITEGIC>MOL_PROPERTY
Coulomb
SciTegic.value.DoubleValue
-8.530

@<SCITEGIC>MOL_PROPERTY
VdW
SciTegic.value.DoubleValue
1.249

@<SCITEGIC>MOL_PROPERTY
VdW6
SciTegic.value.DoubleValue
-2.615

@<SCITEGIC>MOL_PROPERTY
VdW12
SciTegic.value.DoubleValue
3.864

@<SCITEGIC>MOL_PROPERTY
Bond
SciTegic.value.DoubleValue
0.056

@<SCITEGIC>MOL_PROPERTY
Angle
SciTegic.value.DoubleValue
0.694

@<SCITEGIC>MOL_PROPERTY
Pdih
SciTegic.value.DoubleValue
6.570

@<SCITEGIC>MOL_PROPERTY
Idih
SciTegic.value.DoubleValue
0.000

@<SCITEGIC>MOL_PROPERTY
Tether
SciTegic.value.DoubleValue
0.000

@<TRIPOS>MOLECULE
guest-s16_confgen4.mol2 : confsearch ligand conformer 966
          13          13           1
SMALL
USER_CHARGES
 
@<TRIPOS>ATOM
       1    C1      19.000893   17.913249   22.102410 C.3        1 MOL1        -0.1693
       2    H1      18.032497   18.039012   21.600436 H          1 MOL1         0.0829
       3    H2      19.158891   16.845699   22.296604 H          1 MOL1         0.0829
       4    C2      19.240079   18.874511   23.313225 C.3        1 MOL1        -0.1768
       5    H3      18.352748   19.153858   23.891645 H          1 MOL1         0.0829
       6    H4      20.026841   18.553144   24.006993 H          1 MOL1         0.0829
       7    C3      19.705152   19.908587   22.244000 C.3        1 MOL1         0.1211
       8    H5      18.879740   20.458301   21.771167 H          1 MOL1         0.0786
       9    C4      20.191092   18.672515   21.428413 C.3        1 MOL1        -0.1768
      10    H6      20.144807   18.770978   20.338306 H          1 MOL1         0.0829
      11    H7      21.186224   18.304568   21.707913 H          1 MOL1         0.0829
      12    O1      20.719933   20.791879   22.661804 O.3        1 MOL1        -0.5515
      13    H8      21.033830   21.271606   21.865228 H          1 MOL1         0.3773
@<TRIPOS>BOND
    1     1     2    1
    2     1     3    1
    3     1     4    1
    4     4     5    1
    5     4     6    1
    6     4     7    1
    7     7     8    1
    8     1     9    1
    9     7     9    1
   10     9    10    1
   11     9    11    1
   12     7    12    1
   13    12    13    1
@<TRIPOS>SUBSTRUCTURE
       1 MOL1            1 RESIDUE      1      MOL     
@<SCITEGIC>MOL_PROPERTY
VConf Rank
SciTegic.value.IntegerValue
966

@<SCITEGIC>MOL_PROPERTY
Conf_Id
SciTegic.value.IntegerValue
22

@<SCITEGIC>MOL_PROPERTY
Delta U+W
SciTegic.value.DoubleValue
0.000

@<SCITEGIC>MOL_PROPERTY
U+W
SciTegic.value.DoubleValue
-3.131

@<SCITEGIC>MOL_PROPERTY
Grad RMS
SciTegic.value.DoubleValue
0.000000

@<SCITEGIC>MOL_PROPERTY
U
SciTegic.value.DoubleValue
-0.154

@<SCITEGIC>MOL_PROPERTY
W
SciTegic.value.DoubleValue
-2.978

@<SCITEGIC>MOL_PROPERTY
W(PB)
SciTegic.value.DoubleValue
-4.579

@<SCITEGIC>MOL_PROPERTY
W(SA)
SciTegic.value.DoubleValue
1.601

@<SCITEGIC>MOL_PROPERTY
Valence
SciTegic.value.DoubleValue
6.333

@<SCITEGIC>MOL_PROPERTY
Coulomb
SciTegic.value.DoubleValue
-7.439

@<SCITEGIC>MOL_PROPERTY
VdW
SciTegic.value.DoubleValue
0.952

@<SCITEGIC>MOL_PROPERTY
VdW6
SciTegic.value.DoubleValue
-2.120

@<SCITEGIC>MOL_PROPERTY
VdW12
SciTegic.value.DoubleValue
3.072

@<SCITEGIC>MOL_PROPERTY
Bond
SciTegic.value.DoubleValue
0.065

@<SCITEGIC>MOL_PROPERTY
Angle
SciTegic.value.DoubleValue
0.931

@<SCITEGIC>MOL_PROPERTY
Pdih
SciTegic.value.DoubleValue
5.338

@<SCITEGIC>MOL_PROPERTY
Idih
SciTegic.value.DoubleValue
0.000

@<SCITEGIC>MOL_PROPERTY
Tether
SciTegic.value.DoubleValue
0.000

@<TRIPOS>MOLECULE
guest-s16_confgen4.mol2 : confsearch ligand conformer 967
          13          13           1
SMALL
USER_CHARGES
 
@<TRIPOS>ATOM
       1    C1      20.669520   18.493765   22.933576 C.3        1 MOL1        -0.1693
       2    H1      21.344511   17.854575   22.349273 H          1 MOL1         0.0829
       3    H2      21.041617   18.547007   23.963647 H          1 MOL1         0.0829
       4    C2      19.149256   18.163846   22.768406 C.3        1 MOL1        -0.1768
       5    H3      18.506338   18.554308   23.567147 H          1 MOL1         0.0829
       6    H4      18.900072   17.110706   22.598177 H          1 MOL1         0.0829
       7    C3      19.217594   19.060708   21.495550 C.3        1 MOL1         0.1211
       8    H5      19.589643   18.539896   20.602580 H          1 MOL1         0.0786
       9    C4      20.315648   19.860401   22.259495 C.3        1 MOL1        -0.1768
      10    H6      19.927586   20.624229   22.944739 H          1 MOL1         0.0829
      11    H7      21.097365   20.309588   21.637312 H          1 MOL1         0.0829
      12    O1      18.042919   19.780671   21.201708 O.3        1 MOL1        -0.5515
      13    H8      17.380030   19.134680   20.875400 H          1 MOL1         0.3773
@<TRIPOS>BOND
    1     1     2    1
    2     1     3    1
    3     1     4    1
    4     4     5    1
    5     4     6    1
    6     4     7    1
    7     7     8    1
    8     1     9    1
    9     7     9    1
   10     9    10    1
   11     9    11    1
   12     7    12    1
   13    12    13    1
@<TRIPOS>SUBSTRUCTURE
       1 MOL1            1 RESIDUE      1      MOL     
@<SCITEGIC>MOL_PROPERTY
VConf Rank
SciTegic.value.IntegerValue
967

@<SCITEGIC>MOL_PROPERTY
Conf_Id
SciTegic.value.IntegerValue
19

@<SCITEGIC>MOL_PROPERTY
Delta U+W
SciTegic.value.DoubleValue
-0.011

@<SCITEGIC>MOL_PROPERTY
U+W
SciTegic.value.DoubleValue
-3.142

@<SCITEGIC>MOL_PROPERTY
Grad RMS
SciTegic.value.DoubleValue
0.000000

@<SCITEGIC>MOL_PROPERTY
U
SciTegic.value.DoubleValue
-0.154

@<SCITEGIC>MOL_PROPERTY
W
SciTegic.value.DoubleValue
-2.989

@<SCITEGIC>MOL_PROPERTY
W(PB)
SciTegic.value.DoubleValue
-4.588

@<SCITEGIC>MOL_PROPERTY
W(SA)
SciTegic.value.DoubleValue
1.599

@<SCITEGIC>MOL_PROPERTY
Valence
SciTegic.value.DoubleValue
6.334

@<SCITEGIC>MOL_PROPERTY
Coulomb
SciTegic.value.DoubleValue
-7.439

@<SCITEGIC>MOL_PROPERTY
VdW
SciTegic.value.DoubleValue
0.951

@<SCITEGIC>MOL_PROPERTY
VdW6
SciTegic.value.DoubleValue
-2.120

@<SCITEGIC>MOL_PROPERTY
VdW12
SciTegic.value.DoubleValue
3.072

@<SCITEGIC>MOL_PROPERTY
Bond
SciTegic.value.DoubleValue
0.065

@<SCITEGIC>MOL_PROPERTY
Angle
SciTegic.value.DoubleValue
0.930

@<SCITEGIC>MOL_PROPERTY
Pdih
SciTegic.value.DoubleValue
5.339

@<SCITEGIC>MOL_PROPERTY
Idih
SciTegic.value.DoubleValue
0.000

@<SCITEGIC>MOL_PROPERTY
Tether
SciTegic.value.DoubleValue
0.000

@<TRIPOS>MOLECULE
guest-s16_confgen4.mol2 : confsearch ligand conformer 968
          13          13           1
SMALL
USER_CHARGES
 
@<TRIPOS>ATOM
       1    C1      20.391398   19.665264   23.033770 C.3        1 MOL1        -0.1693
       2    H1      21.248528   20.346687   23.088253 H          1 MOL1         0.0829
       3    H2      20.014632   19.493032   24.050427 H          1 MOL1         0.0829
       4    C2      20.598602   18.364449   22.188833 C.3        1 MOL1        -0.1768
       5    H3      21.291045   18.475081   21.345596 H          1 MOL1         0.0829
       6    H4      20.871377   17.464179   22.750528 H          1 MOL1         0.0829
       7    C3      19.092467   18.490710   21.800191 C.3        1 MOL1         0.1211
       8    H5      18.857007   18.176658   20.775134 H          1 MOL1         0.0786
       9    C4      19.288849   20.028123   21.984286 C.3        1 MOL1        -0.1768
      10    H6      18.423571   20.579937   22.367885 H          1 MOL1         0.0829
      11    H7      19.664027   20.542780   21.091345 H          1 MOL1         0.0829
      12    O1      18.191350   17.890640   22.709064 O.3        1 MOL1        -0.5515
      13    H8      17.288834   18.182156   22.458786 H          1 MOL1         0.3773
@<TRIPOS>BOND
    1     1     2    1
    2     1     3    1
    3     1     4    1
    4     4     5    1
    5     4     6    1
    6     4     7    1
    7     7     8    1
    8     1     9    1
    9     7     9    1
   10     9    10    1
   11     9    11    1
   12     7    12    1
   13    12    13    1
@<TRIPOS>SUBSTRUCTURE
       1 MOL1            1 RESIDUE      1      MOL     
@<SCITEGIC>MOL_PROPERTY
VConf Rank
SciTegic.value.IntegerValue
968

@<SCITEGIC>MOL_PROPERTY
Conf_Id
SciTegic.value.IntegerValue
20

@<SCITEGIC>MOL_PROPERTY
Delta U+W
SciTegic.value.DoubleValue
1.030

@<SCITEGIC>MOL_PROPERTY
U+W
SciTegic.value.DoubleValue
-2.101

@<SCITEGIC>MOL_PROPERTY
Grad RMS
SciTegic.value.DoubleValue
0.000000

@<SCITEGIC>MOL_PROPERTY
U
SciTegic.value.DoubleValue
0.841

@<SCITEGIC>MOL_PROPERTY
W
SciTegic.value.DoubleValue
-2.942

@<SCITEGIC>MOL_PROPERTY
W(PB)
SciTegic.value.DoubleValue
-4.530

@<SCITEGIC>MOL_PROPERTY
W(SA)
SciTegic.value.DoubleValue
1.587

@<SCITEGIC>MOL_PROPERTY
Valence
SciTegic.value.DoubleValue
6.736

@<SCITEGIC>MOL_PROPERTY
Coulomb
SciTegic.value.DoubleValue
-7.246

@<SCITEGIC>MOL_PROPERTY
VdW
SciTegic.value.DoubleValue
1.352

@<SCITEGIC>MOL_PROPERTY
VdW6
SciTegic.value.DoubleValue
-2.500

@<SCITEGIC>MOL_PROPERTY
VdW12
SciTegic.value.DoubleValue
3.851

@<SCITEGIC>MOL_PROPERTY
Bond
SciTegic.value.DoubleValue
0.063

@<SCITEGIC>MOL_PROPERTY
Angle
SciTegic.value.DoubleValue
0.687

@<SCITEGIC>MOL_PROPERTY
Pdih
SciTegic.value.DoubleValue
5.986

@<SCITEGIC>MOL_PROPERTY
Idih
SciTegic.value.DoubleValue
0.000

@<SCITEGIC>MOL_PROPERTY
Tether
SciTegic.value.DoubleValue
0.000

@<TRIPOS>MOLECULE
guest-s16_confgen4.mol2 : confsearch ligand conformer 969
          13          13           1
SMALL
USER_CHARGES
 
@<TRIPOS>ATOM
       1    C1      20.893558   19.515934   22.318043 C.3        1 MOL1        -0.1693
       2    H1      21.502280   19.620068   21.410142 H          1 MOL1         0.0829
       3    H2      21.446285   19.946980   23.161319 H          1 MOL1         0.0829
       4    C2      20.297272   18.087606   22.545372 C.3        1 MOL1        -0.1768
       5    H3      20.904948   17.248962   22.188022 H          1 MOL1         0.0829
       6    H4      19.984264   17.881284   23.576315 H          1 MOL1         0.0829
       7    C3      19.152422   18.547842   21.593185 C.3        1 MOL1         0.1211
       8    H5      19.394439   18.446842   20.526452 H          1 MOL1         0.0786
       9    C4      19.406118   19.975592   22.164432 C.3        1 MOL1        -0.1768
      10    H6      18.893927   20.191258   23.110232 H          1 MOL1         0.0829
      11    H7      19.226768   20.804326   21.470656 H          1 MOL1         0.0829
      12    O1      17.883154   18.003990   21.867046 O.3        1 MOL1        -0.5515
      13    H8      17.723168   18.122155   22.826818 H          1 MOL1         0.3773
@<TRIPOS>BOND
    1     1     2    1
    2     1     3    1
    3     1     4    1
    4     4     5    1
    5     4     6    1
    6     4     7    1
    7     7     8    1
    8     1     9    1
    9     7     9    1
   10     9    10    1
   11     9    11    1
   12     7    12    1
   13    12    13    1
@<TRIPOS>SUBSTRUCTURE
       1 MOL1            1 RESIDUE      1      MOL     
@<SCITEGIC>MOL_PROPERTY
VConf Rank
SciTegic.value.IntegerValue
969

@<SCITEGIC>MOL_PROPERTY
Conf_Id
SciTegic.value.IntegerValue
24

@<SCITEGIC>MOL_PROPERTY
Delta U+W
SciTegic.value.DoubleValue
0.356

@<SCITEGIC>MOL_PROPERTY
U+W
SciTegic.value.DoubleValue
-2.775

@<SCITEGIC>MOL_PROPERTY
Grad RMS
SciTegic.value.DoubleValue
0.000000

@<SCITEGIC>MOL_PROPERTY
U
SciTegic.value.DoubleValue
-0.184

@<SCITEGIC>MOL_PROPERTY
W
SciTegic.value.DoubleValue
-2.591

@<SCITEGIC>MOL_PROPERTY
W(PB)
SciTegic.value.DoubleValue
-4.184

@<SCITEGIC>MOL_PROPERTY
W(SA)
SciTegic.value.DoubleValue
1.593

@<SCITEGIC>MOL_PROPERTY
Valence
SciTegic.value.DoubleValue
6.840

@<SCITEGIC>MOL_PROPERTY
Coulomb
SciTegic.value.DoubleValue
-7.916

@<SCITEGIC>MOL_PROPERTY
VdW
SciTegic.value.DoubleValue
0.893

@<SCITEGIC>MOL_PROPERTY
VdW6
SciTegic.value.DoubleValue
-2.167

@<SCITEGIC>MOL_PROPERTY
VdW12
SciTegic.value.DoubleValue
3.060

@<SCITEGIC>MOL_PROPERTY
Bond
SciTegic.value.DoubleValue
0.059

@<SCITEGIC>MOL_PROPERTY
Angle
SciTegic.value.DoubleValue
0.918

@<SCITEGIC>MOL_PROPERTY
Pdih
SciTegic.value.DoubleValue
5.862

@<SCITEGIC>MOL_PROPERTY
Idih
SciTegic.value.DoubleValue
0.000

@<SCITEGIC>MOL_PROPERTY
Tether
SciTegic.value.DoubleValue
0.000

@<TRIPOS>MOLECULE
guest-s16_confgen4.mol2 : confsearch ligand conformer 970
          13          13           1
SMALL
USER_CHARGES
 
@<TRIPOS>ATOM
       1    C1      20.189559   17.985587   21.987002 C.3        1 MOL1        -0.1693
       2    H1      20.682627   17.368749   21.226234 H          1 MOL1         0.0829
       3    H2      20.161563   17.419941   22.926980 H          1 MOL1         0.0829
       4    C2      18.827213   18.631541   21.566413 C.3        1 MOL1        -0.1768
       5    H3      18.745338   18.861108   20.497015 H          1 MOL1         0.0829
       6    H4      17.922569   18.097510   21.878082 H          1 MOL1         0.0829
       7    C3      19.237643   19.850544   22.449346 C.3        1 MOL1         0.1211
       8    H5      18.924039   20.827632   22.060195 H          1 MOL1         0.0786
       9    C4      20.710318   19.455840   22.118540 C.3        1 MOL1        -0.1768
      10    H6      21.090153   19.887511   21.184516 H          1 MOL1         0.0829
      11    H7      21.444756   19.639289   22.910786 H          1 MOL1         0.0829
      12    O1      18.887043   19.738875   23.811821 O.3        1 MOL1        -0.5515
      13    H8      19.189036   18.853843   24.103080 H          1 MOL1         0.3773
@<TRIPOS>BOND
    1     1     2    1
    2     1     3    1
    3     1     4    1
    4     4     5    1
    5     4     6    1
    6     4     7    1
    7     7     8    1
    8     1     9    1
    9     7     9    1
   10     9    10    1
   11     9    11    1
   12     7    12    1
   13    12    13    1
@<TRIPOS>SUBSTRUCTURE
       1 MOL1            1 RESIDUE      1      MOL     
@<SCITEGIC>MOL_PROPERTY
VConf Rank
SciTegic.value.IntegerValue
970

@<SCITEGIC>MOL_PROPERTY
Conf_Id
SciTegic.value.IntegerValue
44

@<SCITEGIC>MOL_PROPERTY
Delta U+W
SciTegic.value.DoubleValue
0.823

@<SCITEGIC>MOL_PROPERTY
U+W
SciTegic.value.DoubleValue
-2.308

@<SCITEGIC>MOL_PROPERTY
Grad RMS
SciTegic.value.DoubleValue
0.000000

@<SCITEGIC>MOL_PROPERTY
U
SciTegic.value.DoubleValue
0.039

@<SCITEGIC>MOL_PROPERTY
W
SciTegic.value.DoubleValue
-2.348

@<SCITEGIC>MOL_PROPERTY
W(PB)
SciTegic.value.DoubleValue
-3.918

@<SCITEGIC>MOL_PROPERTY
W(SA)
SciTegic.value.DoubleValue
1.571

@<SCITEGIC>MOL_PROPERTY
Valence
SciTegic.value.DoubleValue
7.320

@<SCITEGIC>MOL_PROPERTY
Coulomb
SciTegic.value.DoubleValue
-8.530

@<SCITEGIC>MOL_PROPERTY
VdW
SciTegic.value.DoubleValue
1.249

@<SCITEGIC>MOL_PROPERTY
VdW6
SciTegic.value.DoubleValue
-2.615

@<SCITEGIC>MOL_PROPERTY
VdW12
SciTegic.value.DoubleValue
3.864

@<SCITEGIC>MOL_PROPERTY
Bond
SciTegic.value.DoubleValue
0.056

@<SCITEGIC>MOL_PROPERTY
Angle
SciTegic.value.DoubleValue
0.694

@<SCITEGIC>MOL_PROPERTY
Pdih
SciTegic.value.DoubleValue
6.570

@<SCITEGIC>MOL_PROPERTY
Idih
SciTegic.value.DoubleValue
0.000

@<SCITEGIC>MOL_PROPERTY
Tether
SciTegic.value.DoubleValue
0.000

@<TRIPOS>MOLECULE
guest-s16_confgen4.mol2 : confsearch ligand conformer 971
          13          13           1
SMALL
USER_CHARGES
 
@<TRIPOS>ATOM
       1    C1      20.208890   18.738991   21.084085 C.3        1 MOL1        -0.1693
       2    H1      20.590941   17.710771   21.035232 H          1 MOL1         0.0829
       3    H2      20.347949   19.211392   20.104372 H          1 MOL1         0.0829
       4    C2      20.701562   19.562153   22.319798 C.3        1 MOL1        -0.1768
       5    H3      21.708472   19.331478   22.684329 H          1 MOL1         0.0829
       6    H4      20.604417   20.649980   22.215965 H          1 MOL1         0.0829
       7    C3      19.529885   18.879832   23.088210 C.3        1 MOL1         0.1211
       8    H5      19.772028   17.876461   23.464606 H          1 MOL1         0.0786
       9    C4      18.785870   18.879136   21.718671 C.3        1 MOL1        -0.1768
      10    H6      18.097794   18.043709   21.549010 H          1 MOL1         0.0829
      11    H7      18.268426   19.816874   21.480566 H          1 MOL1         0.0829
      12    O1      18.934714   19.662427   24.097102 O.3        1 MOL1        -0.5515
      13    H8      18.121779   19.194704   24.386197 H          1 MOL1         0.3773
@<TRIPOS>BOND
    1     1     2    1
    2     1     3    1
    3     1     4    1
    4     4     5    1
    5     4     6    1
    6     4     7    1
    7     7     8    1
    8     1     9    1
    9     7     9    1
   10     9    10    1
   11     9    11    1
   12     7    12    1
   13    12    13    1
@<TRIPOS>SUBSTRUCTURE
       1 MOL1            1 RESIDUE      1      MOL     
@<SCITEGIC>MOL_PROPERTY
VConf Rank
SciTegic.value.IntegerValue
971

@<SCITEGIC>MOL_PROPERTY
Conf_Id
SciTegic.value.IntegerValue
22

@<SCITEGIC>MOL_PROPERTY
Delta U+W
SciTegic.value.DoubleValue
0.000

@<SCITEGIC>MOL_PROPERTY
U+W
SciTegic.value.DoubleValue
-3.131

@<SCITEGIC>MOL_PROPERTY
Grad RMS
SciTegic.value.DoubleValue
0.000000

@<SCITEGIC>MOL_PROPERTY
U
SciTegic.value.DoubleValue
-0.154

@<SCITEGIC>MOL_PROPERTY
W
SciTegic.value.DoubleValue
-2.978

@<SCITEGIC>MOL_PROPERTY
W(PB)
SciTegic.value.DoubleValue
-4.579

@<SCITEGIC>MOL_PROPERTY
W(SA)
SciTegic.value.DoubleValue
1.601

@<SCITEGIC>MOL_PROPERTY
Valence
SciTegic.value.DoubleValue
6.333

@<SCITEGIC>MOL_PROPERTY
Coulomb
SciTegic.value.DoubleValue
-7.439

@<SCITEGIC>MOL_PROPERTY
VdW
SciTegic.value.DoubleValue
0.952

@<SCITEGIC>MOL_PROPERTY
VdW6
SciTegic.value.DoubleValue
-2.120

@<SCITEGIC>MOL_PROPERTY
VdW12
SciTegic.value.DoubleValue
3.072

@<SCITEGIC>MOL_PROPERTY
Bond
SciTegic.value.DoubleValue
0.065

@<SCITEGIC>MOL_PROPERTY
Angle
SciTegic.value.DoubleValue
0.931

@<SCITEGIC>MOL_PROPERTY
Pdih
SciTegic.value.DoubleValue
5.338

@<SCITEGIC>MOL_PROPERTY
Idih
SciTegic.value.DoubleValue
0.000

@<SCITEGIC>MOL_PROPERTY
Tether
SciTegic.value.DoubleValue
0.000

@<TRIPOS>MOLECULE
guest-s16_confgen4.mol2 : confsearch ligand conformer 972
          13          13           1
SMALL
USER_CHARGES
 
@<TRIPOS>ATOM
       1    C1      18.687445   18.590117   21.384866 C.3        1 MOL1        -0.1693
       2    H1      19.072970   18.078395   20.493183 H          1 MOL1         0.0829
       3    H2      17.604681   18.721861   21.272598 H          1 MOL1         0.0829
       4    C2      19.493854   19.861448   21.810014 C.3        1 MOL1        -0.1768
       5    H3      18.950815   20.548611   22.470854 H          1 MOL1         0.0829
       6    H4      19.947751   20.438778   20.997093 H          1 MOL1         0.0829
       7    C3      20.439597   18.865899   22.547336 C.3        1 MOL1         0.1211
       8    H5      21.198453   18.407925   21.898137 H          1 MOL1         0.0786
       9    C4      19.168568   17.986060   22.745358 C.3        1 MOL1        -0.1768
      10    H6      18.556011   18.261297   23.612885 H          1 MOL1         0.0829
      11    H7      19.336362   16.903682   22.761604 H          1 MOL1         0.0829
      12    O1      21.024082   19.354972   23.732129 O.3        1 MOL1        -0.5515
      13    H8      21.701511   20.015336   23.470953 H          1 MOL1         0.3773
@<TRIPOS>BOND
    1     1     2    1
    2     1     3    1
    3     1     4    1
    4     4     5    1
    5     4     6    1
    6     4     7    1
    7     7     8    1
    8     1     9    1
    9     7     9    1
   10     9    10    1
   11     9    11    1
   12     7    12    1
   13    12    13    1
@<TRIPOS>SUBSTRUCTURE
       1 MOL1            1 RESIDUE      1      MOL     
@<SCITEGIC>MOL_PROPERTY
VConf Rank
SciTegic.value.IntegerValue
972

@<SCITEGIC>MOL_PROPERTY
Conf_Id
SciTegic.value.IntegerValue
19

@<SCITEGIC>MOL_PROPERTY
Delta U+W
SciTegic.value.DoubleValue
-0.011

@<SCITEGIC>MOL_PROPERTY
U+W
SciTegic.value.DoubleValue
-3.142

@<SCITEGIC>MOL_PROPERTY
Grad RMS
SciTegic.value.DoubleValue
0.000000

@<SCITEGIC>MOL_PROPERTY
U
SciTegic.value.DoubleValue
-0.154

@<SCITEGIC>MOL_PROPERTY
W
SciTegic.value.DoubleValue
-2.989

@<SCITEGIC>MOL_PROPERTY
W(PB)
SciTegic.value.DoubleValue
-4.588

@<SCITEGIC>MOL_PROPERTY
W(SA)
SciTegic.value.DoubleValue
1.599

@<SCITEGIC>MOL_PROPERTY
Valence
SciTegic.value.DoubleValue
6.334

@<SCITEGIC>MOL_PROPERTY
Coulomb
SciTegic.value.DoubleValue
-7.439

@<SCITEGIC>MOL_PROPERTY
VdW
SciTegic.value.DoubleValue
0.951

@<SCITEGIC>MOL_PROPERTY
VdW6
SciTegic.value.DoubleValue
-2.120

@<SCITEGIC>MOL_PROPERTY
VdW12
SciTegic.value.DoubleValue
3.072

@<SCITEGIC>MOL_PROPERTY
Bond
SciTegic.value.DoubleValue
0.065

@<SCITEGIC>MOL_PROPERTY
Angle
SciTegic.value.DoubleValue
0.930

@<SCITEGIC>MOL_PROPERTY
Pdih
SciTegic.value.DoubleValue
5.339

@<SCITEGIC>MOL_PROPERTY
Idih
SciTegic.value.DoubleValue
0.000

@<SCITEGIC>MOL_PROPERTY
Tether
SciTegic.value.DoubleValue
0.000

@<TRIPOS>MOLECULE
guest-s16_confgen4.mol2 : confsearch ligand conformer 973
          13          13           1
SMALL
USER_CHARGES
 
@<TRIPOS>ATOM
       1    C1      18.752627   18.710753   21.489232 C.3        1 MOL1        -0.1693
       2    H1      18.408973   18.759733   20.449290 H          1 MOL1         0.0829
       3    H2      18.080480   18.048446   22.050279 H          1 MOL1         0.0829
       4    C2      19.041611   20.082786   22.184203 C.3        1 MOL1        -0.1768
       5    H3      19.391171   20.871259   21.506792 H          1 MOL1         0.0829
       6    H4      18.234715   20.486848   22.805528 H          1 MOL1         0.0829
       7    C3      20.183718   19.345959   22.951084 C.3        1 MOL1         0.1211
       8    H5      21.076446   19.956505   23.138387 H          1 MOL1         0.0786
       9    C4      20.275935   18.419882   21.698098 C.3        1 MOL1        -0.1768
      10    H6      20.543315   17.375254   21.892037 H          1 MOL1         0.0829
      11    H7      20.924848   18.805000   20.902127 H          1 MOL1         0.0829
      12    O1      19.780280   18.700677   24.142299 O.3        1 MOL1        -0.5515
      13    H8      20.527570   18.136595   24.434744 H          1 MOL1         0.3773
@<TRIPOS>BOND
    1     1     2    1
    2     1     3    1
    3     1     4    1
    4     4     5    1
    5     4     6    1
    6     4     7    1
    7     7     8    1
    8     1     9    1
    9     7     9    1
   10     9    10    1
   11     9    11    1
   12     7    12    1
   13    12    13    1
@<TRIPOS>SUBSTRUCTURE
       1 MOL1            1 RESIDUE      1      MOL     
@<SCITEGIC>MOL_PROPERTY
VConf Rank
SciTegic.value.IntegerValue
973

@<SCITEGIC>MOL_PROPERTY
Conf_Id
SciTegic.value.IntegerValue
20

@<SCITEGIC>MOL_PROPERTY
Delta U+W
SciTegic.value.DoubleValue
1.030

@<SCITEGIC>MOL_PROPERTY
U+W
SciTegic.value.DoubleValue
-2.101

@<SCITEGIC>MOL_PROPERTY
Grad RMS
SciTegic.value.DoubleValue
0.000000

@<SCITEGIC>MOL_PROPERTY
U
SciTegic.value.DoubleValue
0.841

@<SCITEGIC>MOL_PROPERTY
W
SciTegic.value.DoubleValue
-2.942

@<SCITEGIC>MOL_PROPERTY
W(PB)
SciTegic.value.DoubleValue
-4.530

@<SCITEGIC>MOL_PROPERTY
W(SA)
SciTegic.value.DoubleValue
1.587

@<SCITEGIC>MOL_PROPERTY
Valence
SciTegic.value.DoubleValue
6.736

@<SCITEGIC>MOL_PROPERTY
Coulomb
SciTegic.value.DoubleValue
-7.246

@<SCITEGIC>MOL_PROPERTY
VdW
SciTegic.value.DoubleValue
1.352

@<SCITEGIC>MOL_PROPERTY
VdW6
SciTegic.value.DoubleValue
-2.500

@<SCITEGIC>MOL_PROPERTY
VdW12
SciTegic.value.DoubleValue
3.851

@<SCITEGIC>MOL_PROPERTY
Bond
SciTegic.value.DoubleValue
0.063

@<SCITEGIC>MOL_PROPERTY
Angle
SciTegic.value.DoubleValue
0.687

@<SCITEGIC>MOL_PROPERTY
Pdih
SciTegic.value.DoubleValue
5.986

@<SCITEGIC>MOL_PROPERTY
Idih
SciTegic.value.DoubleValue
0.000

@<SCITEGIC>MOL_PROPERTY
Tether
SciTegic.value.DoubleValue
0.000

@<TRIPOS>MOLECULE
guest-s16_confgen4.mol2 : confsearch ligand conformer 974
          13          13           1
SMALL
USER_CHARGES
 
@<TRIPOS>ATOM
       1    C1      19.801780   18.653064   20.967314 C.3        1 MOL1        -0.1693
       2    H1      19.890618   17.592699   20.696384 H          1 MOL1         0.0829
       3    H2      19.779245   19.248731   20.046936 H          1 MOL1         0.0829
       4    C2      20.801219   19.131895   22.071488 C.3        1 MOL1        -0.1768
       5    H3      21.779258   18.638346   22.083362 H          1 MOL1         0.0829
       6    H4      20.954313   20.217455   22.110335 H          1 MOL1         0.0829
       7    C3      19.753235   18.581754   23.085505 C.3        1 MOL1         0.1211
       8    H5      19.832227   17.500605   23.263186 H          1 MOL1         0.0786
       9    C4      18.686002   18.968480   22.017509 C.3        1 MOL1        -0.1768
      10    H6      18.366320   20.017514   22.044291 H          1 MOL1         0.0829
      11    H7      17.795983   18.330611   21.981714 H          1 MOL1         0.0829
      12    O1      19.668199   19.279525   24.305219 O.3        1 MOL1        -0.5515
      13    H8      19.600202   20.232157   24.084793 H          1 MOL1         0.3773
@<TRIPOS>BOND
    1     1     2    1
    2     1     3    1
    3     1     4    1
    4     4     5    1
    5     4     6    1
    6     4     7    1
    7     7     8    1
    8     1     9    1
    9     7     9    1
   10     9    10    1
   11     9    11    1
   12     7    12    1
   13    12    13    1
@<TRIPOS>SUBSTRUCTURE
       1 MOL1            1 RESIDUE      1      MOL     
@<SCITEGIC>MOL_PROPERTY
VConf Rank
SciTegic.value.IntegerValue
974

@<SCITEGIC>MOL_PROPERTY
Conf_Id
SciTegic.value.IntegerValue
24

@<SCITEGIC>MOL_PROPERTY
Delta U+W
SciTegic.value.DoubleValue
0.356

@<SCITEGIC>MOL_PROPERTY
U+W
SciTegic.value.DoubleValue
-2.775

@<SCITEGIC>MOL_PROPERTY
Grad RMS
SciTegic.value.DoubleValue
0.000000

@<SCITEGIC>MOL_PROPERTY
U
SciTegic.value.DoubleValue
-0.184

@<SCITEGIC>MOL_PROPERTY
W
SciTegic.value.DoubleValue
-2.591

@<SCITEGIC>MOL_PROPERTY
W(PB)
SciTegic.value.DoubleValue
-4.184

@<SCITEGIC>MOL_PROPERTY
W(SA)
SciTegic.value.DoubleValue
1.593

@<SCITEGIC>MOL_PROPERTY
Valence
SciTegic.value.DoubleValue
6.840

@<SCITEGIC>MOL_PROPERTY
Coulomb
SciTegic.value.DoubleValue
-7.916

@<SCITEGIC>MOL_PROPERTY
VdW
SciTegic.value.DoubleValue
0.893

@<SCITEGIC>MOL_PROPERTY
VdW6
SciTegic.value.DoubleValue
-2.167

@<SCITEGIC>MOL_PROPERTY
VdW12
SciTegic.value.DoubleValue
3.060

@<SCITEGIC>MOL_PROPERTY
Bond
SciTegic.value.DoubleValue
0.059

@<SCITEGIC>MOL_PROPERTY
Angle
SciTegic.value.DoubleValue
0.918

@<SCITEGIC>MOL_PROPERTY
Pdih
SciTegic.value.DoubleValue
5.862

@<SCITEGIC>MOL_PROPERTY
Idih
SciTegic.value.DoubleValue
0.000

@<SCITEGIC>MOL_PROPERTY
Tether
SciTegic.value.DoubleValue
0.000

@<TRIPOS>MOLECULE
guest-s16_confgen4.mol2 : confsearch ligand conformer 975
          13          13           1
SMALL
USER_CHARGES
 
@<TRIPOS>ATOM
       1    C1      18.682960   19.415607   22.426880 C.3        1 MOL1        -0.1693
       2    H1      17.769420   19.342452   23.028933 H          1 MOL1         0.0829
       3    H2      18.585264   20.275376   21.751937 H          1 MOL1         0.0829
       4    C2      19.158527   18.091145   21.741479 C.3        1 MOL1        -0.1768
       5    H3      18.904228   17.178267   22.293748 H          1 MOL1         0.0829
       6    H4      18.866146   17.957144   20.693975 H          1 MOL1         0.0829
       7    C3      20.614489   18.596641   21.983639 C.3        1 MOL1         0.1211
       8    H5      21.341136   17.810222   22.224502 H          1 MOL1         0.0786
       9    C4      20.031441   19.350244   23.219006 C.3        1 MOL1        -0.1768
      10    H6      19.991166   18.746079   24.133544 H          1 MOL1         0.0829
      11    H7      20.498854   20.312180   23.457565 H          1 MOL1         0.0829
      12    O1      21.127040   19.432475   20.968553 O.3        1 MOL1        -0.5515
      13    H8      20.441186   20.110139   20.796247 H          1 MOL1         0.3773
@<TRIPOS>BOND
    1     1     2    1
    2     1     3    1
    3     1     4    1
    4     4     5    1
    5     4     6    1
    6     4     7    1
    7     7     8    1
    8     1     9    1
    9     7     9    1
   10     9    10    1
   11     9    11    1
   12     7    12    1
   13    12    13    1
@<TRIPOS>SUBSTRUCTURE
       1 MOL1            1 RESIDUE      1      MOL     
@<SCITEGIC>MOL_PROPERTY
VConf Rank
SciTegic.value.IntegerValue
975

@<SCITEGIC>MOL_PROPERTY
Conf_Id
SciTegic.value.IntegerValue
44

@<SCITEGIC>MOL_PROPERTY
Delta U+W
SciTegic.value.DoubleValue
0.823

@<SCITEGIC>MOL_PROPERTY
U+W
SciTegic.value.DoubleValue
-2.308

@<SCITEGIC>MOL_PROPERTY
Grad RMS
SciTegic.value.DoubleValue
0.000000

@<SCITEGIC>MOL_PROPERTY
U
SciTegic.value.DoubleValue
0.039

@<SCITEGIC>MOL_PROPERTY
W
SciTegic.value.DoubleValue
-2.348

@<SCITEGIC>MOL_PROPERTY
W(PB)
SciTegic.value.DoubleValue
-3.918

@<SCITEGIC>MOL_PROPERTY
W(SA)
SciTegic.value.DoubleValue
1.571

@<SCITEGIC>MOL_PROPERTY
Valence
SciTegic.value.DoubleValue
7.320

@<SCITEGIC>MOL_PROPERTY
Coulomb
SciTegic.value.DoubleValue
-8.530

@<SCITEGIC>MOL_PROPERTY
VdW
SciTegic.value.DoubleValue
1.249

@<SCITEGIC>MOL_PROPERTY
VdW6
SciTegic.value.DoubleValue
-2.615

@<SCITEGIC>MOL_PROPERTY
VdW12
SciTegic.value.DoubleValue
3.864

@<SCITEGIC>MOL_PROPERTY
Bond
SciTegic.value.DoubleValue
0.056

@<SCITEGIC>MOL_PROPERTY
Angle
SciTegic.value.DoubleValue
0.694

@<SCITEGIC>MOL_PROPERTY
Pdih
SciTegic.value.DoubleValue
6.570

@<SCITEGIC>MOL_PROPERTY
Idih
SciTegic.value.DoubleValue
0.000

@<SCITEGIC>MOL_PROPERTY
Tether
SciTegic.value.DoubleValue
0.000

@<TRIPOS>MOLECULE
guest-s16_confgen4.mol2 : confsearch ligand conformer 976
          13          13           1
SMALL
USER_CHARGES
 
@<TRIPOS>ATOM
       1    C1      19.069024   17.890429   22.013051 C.3        1 MOL1        -0.1693
       2    H1      18.721125   17.385002   22.923598 H          1 MOL1         0.0829
       3    H2      18.763709   17.295836   21.143810 H          1 MOL1         0.0829
       4    C2      20.567033   18.340093   22.045882 C.3        1 MOL1        -0.1768
       5    H3      21.250953   17.702702   22.616800 H          1 MOL1         0.0829
       6    H4      21.008971   18.539297   21.061710 H          1 MOL1         0.0829
       7    C3      20.043980   19.607317   22.787102 C.3        1 MOL1         0.1211
       8    H5      19.902703   19.462010   23.866911 H          1 MOL1         0.0786
       9    C4      18.743990   19.419306   21.948132 C.3        1 MOL1        -0.1768
      10    H6      17.813188   19.735389   22.431735 H          1 MOL1         0.0829
      11    H7      18.784302   19.853878   20.941496 H          1 MOL1         0.0829
      12    O1      20.760156   20.793173   22.531396 O.3        1 MOL1        -0.5515
      13    H8      20.243593   21.533475   22.916519 H          1 MOL1         0.3773
@<TRIPOS>BOND
    1     1     2    1
    2     1     3    1
    3     1     4    1
    4     4     5    1
    5     4     6    1
    6     4     7    1
    7     7     8    1
    8     1     9    1
    9     7     9    1
   10     9    10    1
   11     9    11    1
   12     7    12    1
   13    12    13    1
@<TRIPOS>SUBSTRUCTURE
       1 MOL1            1 RESIDUE      1      MOL     
@<SCITEGIC>MOL_PROPERTY
VConf Rank
SciTegic.value.IntegerValue
976

@<SCITEGIC>MOL_PROPERTY
Conf_Id
SciTegic.value.IntegerValue
22

@<SCITEGIC>MOL_PROPERTY
Delta U+W
SciTegic.value.DoubleValue
0.000

@<SCITEGIC>MOL_PROPERTY
U+W
SciTegic.value.DoubleValue
-3.131

@<SCITEGIC>MOL_PROPERTY
Grad RMS
SciTegic.value.DoubleValue
0.000000

@<SCITEGIC>MOL_PROPERTY
U
SciTegic.value.DoubleValue
-0.154

@<SCITEGIC>MOL_PROPERTY
W
SciTegic.value.DoubleValue
-2.978

@<SCITEGIC>MOL_PROPERTY
W(PB)
SciTegic.value.DoubleValue
-4.579

@<SCITEGIC>MOL_PROPERTY
W(SA)
SciTegic.value.DoubleValue
1.601

@<SCITEGIC>MOL_PROPERTY
Valence
SciTegic.value.DoubleValue
6.333

@<SCITEGIC>MOL_PROPERTY
Coulomb
SciTegic.value.DoubleValue
-7.439

@<SCITEGIC>MOL_PROPERTY
VdW
SciTegic.value.DoubleValue
0.952

@<SCITEGIC>MOL_PROPERTY
VdW6
SciTegic.value.DoubleValue
-2.120

@<SCITEGIC>MOL_PROPERTY
VdW12
SciTegic.value.DoubleValue
3.072

@<SCITEGIC>MOL_PROPERTY
Bond
SciTegic.value.DoubleValue
0.065

@<SCITEGIC>MOL_PROPERTY
Angle
SciTegic.value.DoubleValue
0.931

@<SCITEGIC>MOL_PROPERTY
Pdih
SciTegic.value.DoubleValue
5.338

@<SCITEGIC>MOL_PROPERTY
Idih
SciTegic.value.DoubleValue
0.000

@<SCITEGIC>MOL_PROPERTY
Tether
SciTegic.value.DoubleValue
0.000

@<TRIPOS>MOLECULE
guest-s16_confgen4.mol2 : confsearch ligand conformer 977
          13          13           1
SMALL
USER_CHARGES
 
@<TRIPOS>ATOM
       1    C1      20.850987   19.202342   21.830587 C.3        1 MOL1        -0.1693
       2    H1      21.139382   18.652604   20.924938 H          1 MOL1         0.0829
       3    H2      21.706766   19.801086   22.164482 H          1 MOL1         0.0829
       4    C2      20.149561   18.334959   22.927391 C.3        1 MOL1        -0.1768
       5    H3      20.155893   18.774671   23.932581 H          1 MOL1         0.0829
       6    H4      20.474066   17.290922   22.997075 H          1 MOL1         0.0829
       7    C3      18.841717   18.587906   22.118221 C.3        1 MOL1         0.1211
       8    H5      18.705001   17.906468   21.267331 H          1 MOL1         0.0786
       9    C4      19.482981   19.954722   21.731648 C.3        1 MOL1        -0.1768
      10    H6      19.340677   20.749649   22.474227 H          1 MOL1         0.0829
      11    H7      19.215348   20.343798   20.743238 H          1 MOL1         0.0829
      12    O1      17.664004   18.671111   22.886738 O.3        1 MOL1        -0.5515
      13    H8      17.455718   17.764143   23.198554 H          1 MOL1         0.3773
@<TRIPOS>BOND
    1     1     2    1
    2     1     3    1
    3     1     4    1
    4     4     5    1
    5     4     6    1
    6     4     7    1
    7     7     8    1
    8     1     9    1
    9     7     9    1
   10     9    10    1
   11     9    11    1
   12     7    12    1
   13    12    13    1
@<TRIPOS>SUBSTRUCTURE
       1 MOL1            1 RESIDUE      1      MOL     
@<SCITEGIC>MOL_PROPERTY
VConf Rank
SciTegic.value.IntegerValue
977

@<SCITEGIC>MOL_PROPERTY
Conf_Id
SciTegic.value.IntegerValue
19

@<SCITEGIC>MOL_PROPERTY
Delta U+W
SciTegic.value.DoubleValue
-0.011

@<SCITEGIC>MOL_PROPERTY
U+W
SciTegic.value.DoubleValue
-3.142

@<SCITEGIC>MOL_PROPERTY
Grad RMS
SciTegic.value.DoubleValue
0.000000

@<SCITEGIC>MOL_PROPERTY
U
SciTegic.value.DoubleValue
-0.154

@<SCITEGIC>MOL_PROPERTY
W
SciTegic.value.DoubleValue
-2.989

@<SCITEGIC>MOL_PROPERTY
W(PB)
SciTegic.value.DoubleValue
-4.588

@<SCITEGIC>MOL_PROPERTY
W(SA)
SciTegic.value.DoubleValue
1.599

@<SCITEGIC>MOL_PROPERTY
Valence
SciTegic.value.DoubleValue
6.334

@<SCITEGIC>MOL_PROPERTY
Coulomb
SciTegic.value.DoubleValue
-7.439

@<SCITEGIC>MOL_PROPERTY
VdW
SciTegic.value.DoubleValue
0.951

@<SCITEGIC>MOL_PROPERTY
VdW6
SciTegic.value.DoubleValue
-2.120

@<SCITEGIC>MOL_PROPERTY
VdW12
SciTegic.value.DoubleValue
3.072

@<SCITEGIC>MOL_PROPERTY
Bond
SciTegic.value.DoubleValue
0.065

@<SCITEGIC>MOL_PROPERTY
Angle
SciTegic.value.DoubleValue
0.930

@<SCITEGIC>MOL_PROPERTY
Pdih
SciTegic.value.DoubleValue
5.339

@<SCITEGIC>MOL_PROPERTY
Idih
SciTegic.value.DoubleValue
0.000

@<SCITEGIC>MOL_PROPERTY
Tether
SciTegic.value.DoubleValue
0.000

@<TRIPOS>MOLECULE
guest-s16_confgen4.mol2 : confsearch ligand conformer 978
          13          13           1
SMALL
USER_CHARGES
 
@<TRIPOS>ATOM
       1    C1      19.804235   20.020080   21.535728 C.3        1 MOL1        -0.1693
       2    H1      20.468093   20.855797   21.285037 H          1 MOL1         0.0829
       3    H2      18.988181   19.987677   20.802099 H          1 MOL1         0.0829
       4    C2      19.340160   19.933052   23.027718 C.3        1 MOL1        -0.1768
       5    H3      20.066087   20.319479   23.753300 H          1 MOL1         0.0829
       6    H4      18.357700   20.363053   23.251911 H          1 MOL1         0.0829
       7    C3      19.377216   18.383098   22.849678 C.3        1 MOL1         0.1211
       8    H5      19.701162   17.828360   23.739699 H          1 MOL1         0.0786
       9    C4      20.499509   18.642657   21.796500 C.3        1 MOL1        -0.1768
      10    H6      20.529685   17.951371   20.947049 H          1 MOL1         0.0829
      11    H7      21.507160   18.716468   22.223308 H          1 MOL1         0.0829
      12    O1      18.191103   17.815460   22.330960 O.3        1 MOL1        -0.5515
      13    H8      18.391396   16.883147   22.101113 H          1 MOL1         0.3773
@<TRIPOS>BOND
    1     1     2    1
    2     1     3    1
    3     1     4    1
    4     4     5    1
    5     4     6    1
    6     4     7    1
    7     7     8    1
    8     1     9    1
    9     7     9    1
   10     9    10    1
   11     9    11    1
   12     7    12    1
   13    12    13    1
@<TRIPOS>SUBSTRUCTURE
       1 MOL1            1 RESIDUE      1      MOL     
@<SCITEGIC>MOL_PROPERTY
VConf Rank
SciTegic.value.IntegerValue
978

@<SCITEGIC>MOL_PROPERTY
Conf_Id
SciTegic.value.IntegerValue
20

@<SCITEGIC>MOL_PROPERTY
Delta U+W
SciTegic.value.DoubleValue
1.030

@<SCITEGIC>MOL_PROPERTY
U+W
SciTegic.value.DoubleValue
-2.101

@<SCITEGIC>MOL_PROPERTY
Grad RMS
SciTegic.value.DoubleValue
0.000000

@<SCITEGIC>MOL_PROPERTY
U
SciTegic.value.DoubleValue
0.841

@<SCITEGIC>MOL_PROPERTY
W
SciTegic.value.DoubleValue
-2.942

@<SCITEGIC>MOL_PROPERTY
W(PB)
SciTegic.value.DoubleValue
-4.530

@<SCITEGIC>MOL_PROPERTY
W(SA)
SciTegic.value.DoubleValue
1.587

@<SCITEGIC>MOL_PROPERTY
Valence
SciTegic.value.DoubleValue
6.736

@<SCITEGIC>MOL_PROPERTY
Coulomb
SciTegic.value.DoubleValue
-7.246

@<SCITEGIC>MOL_PROPERTY
VdW
SciTegic.value.DoubleValue
1.352

@<SCITEGIC>MOL_PROPERTY
VdW6
SciTegic.value.DoubleValue
-2.500

@<SCITEGIC>MOL_PROPERTY
VdW12
SciTegic.value.DoubleValue
3.851

@<SCITEGIC>MOL_PROPERTY
Bond
SciTegic.value.DoubleValue
0.063

@<SCITEGIC>MOL_PROPERTY
Angle
SciTegic.value.DoubleValue
0.687

@<SCITEGIC>MOL_PROPERTY
Pdih
SciTegic.value.DoubleValue
5.986

@<SCITEGIC>MOL_PROPERTY
Idih
SciTegic.value.DoubleValue
0.000

@<SCITEGIC>MOL_PROPERTY
Tether
SciTegic.value.DoubleValue
0.000

@<TRIPOS>MOLECULE
guest-s16_confgen4.mol2 : confsearch ligand conformer 979
          13          13           1
SMALL
USER_CHARGES
 
@<TRIPOS>ATOM
       1    C1      18.946102   18.360473   23.018513 C.3        1 MOL1        -0.1693
       2    H1      17.968689   18.041810   22.632783 H          1 MOL1         0.0829
       3    H2      19.014063   18.077998   24.075874 H          1 MOL1         0.0829
       4    C2      19.335168   19.836294   22.675095 C.3        1 MOL1        -0.1768
       5    H3      18.506986   20.550547   22.609917 H          1 MOL1         0.0829
       6    H4      20.118689   20.263185   23.313255 H          1 MOL1         0.0829
       7    C3      19.838665   19.258250   21.318072 C.3        1 MOL1         0.1211
       8    H5      19.045703   19.128642   20.569001 H          1 MOL1         0.0786
       9    C4      20.164469   17.962962   22.121337 C.3        1 MOL1        -0.1768
      10    H6      21.133347   17.971140   22.635726 H          1 MOL1         0.0829
      11    H7      20.068686   17.022778   21.567106 H          1 MOL1         0.0829
      12    O1      20.948985   19.916029   20.755637 O.3        1 MOL1        -0.5515
      13    H8      21.619051   20.002730   21.465718 H          1 MOL1         0.3773
@<TRIPOS>BOND
    1     1     2    1
    2     1     3    1
    3     1     4    1
    4     4     5    1
    5     4     6    1
    6     4     7    1
    7     7     8    1
    8     1     9    1
    9     7     9    1
   10     9    10    1
   11     9    11    1
   12     7    12    1
   13    12    13    1
@<TRIPOS>SUBSTRUCTURE
       1 MOL1            1 RESIDUE      1      MOL     
@<SCITEGIC>MOL_PROPERTY
VConf Rank
SciTegic.value.IntegerValue
979

@<SCITEGIC>MOL_PROPERTY
Conf_Id
SciTegic.value.IntegerValue
24

@<SCITEGIC>MOL_PROPERTY
Delta U+W
SciTegic.value.DoubleValue
0.356

@<SCITEGIC>MOL_PROPERTY
U+W
SciTegic.value.DoubleValue
-2.775

@<SCITEGIC>MOL_PROPERTY
Grad RMS
SciTegic.value.DoubleValue
0.000000

@<SCITEGIC>MOL_PROPERTY
U
SciTegic.value.DoubleValue
-0.184

@<SCITEGIC>MOL_PROPERTY
W
SciTegic.value.DoubleValue
-2.591

@<SCITEGIC>MOL_PROPERTY
W(PB)
SciTegic.value.DoubleValue
-4.184

@<SCITEGIC>MOL_PROPERTY
W(SA)
SciTegic.value.DoubleValue
1.593

@<SCITEGIC>MOL_PROPERTY
Valence
SciTegic.value.DoubleValue
6.840

@<SCITEGIC>MOL_PROPERTY
Coulomb
SciTegic.value.DoubleValue
-7.916

@<SCITEGIC>MOL_PROPERTY
VdW
SciTegic.value.DoubleValue
0.893

@<SCITEGIC>MOL_PROPERTY
VdW6
SciTegic.value.DoubleValue
-2.167

@<SCITEGIC>MOL_PROPERTY
VdW12
SciTegic.value.DoubleValue
3.060

@<SCITEGIC>MOL_PROPERTY
Bond
SciTegic.value.DoubleValue
0.059

@<SCITEGIC>MOL_PROPERTY
Angle
SciTegic.value.DoubleValue
0.918

@<SCITEGIC>MOL_PROPERTY
Pdih
SciTegic.value.DoubleValue
5.862

@<SCITEGIC>MOL_PROPERTY
Idih
SciTegic.value.DoubleValue
0.000

@<SCITEGIC>MOL_PROPERTY
Tether
SciTegic.value.DoubleValue
0.000

@<TRIPOS>MOLECULE
guest-s16_confgen4.mol2 : confsearch ligand conformer 980
          13          13           1
SMALL
USER_CHARGES
 
@<TRIPOS>ATOM
       1    C1      18.910953   19.775463   22.288540 C.3        1 MOL1        -0.1693
       2    H1      18.533533   20.718406   21.875276 H          1 MOL1         0.0829
       3    H2      18.268618   19.483787   23.129151 H          1 MOL1         0.0829
       4    C2      20.447055   19.724673   22.585102 C.3        1 MOL1        -0.1768
       5    H3      21.057918   20.347708   21.920504 H          1 MOL1         0.0829
       6    H4      20.746140   19.922990   23.620441 H          1 MOL1         0.0829
       7    C3      20.384498   18.222262   22.169360 C.3        1 MOL1         0.1211
       8    H5      21.270729   17.854347   21.636708 H          1 MOL1         0.0786
       9    C4      19.194105   18.638368   21.250766 C.3        1 MOL1        -0.1768
      10    H6      19.497761   18.995058   20.259010 H          1 MOL1         0.0829
      11    H7      18.402602   17.891151   21.124679 H          1 MOL1         0.0829
      12    O1      20.044797   17.333634   23.211795 O.3        1 MOL1        -0.5515
      13    H8      19.253149   17.710123   23.648676 H          1 MOL1         0.3773
@<TRIPOS>BOND
    1     1     2    1
    2     1     3    1
    3     1     4    1
    4     4     5    1
    5     4     6    1
    6     4     7    1
    7     7     8    1
    8     1     9    1
    9     7     9    1
   10     9    10    1
   11     9    11    1
   12     7    12    1
   13    12    13    1
@<TRIPOS>SUBSTRUCTURE
       1 MOL1            1 RESIDUE      1      MOL     
@<SCITEGIC>MOL_PROPERTY
VConf Rank
SciTegic.value.IntegerValue
980

@<SCITEGIC>MOL_PROPERTY
Conf_Id
SciTegic.value.IntegerValue
44

@<SCITEGIC>MOL_PROPERTY
Delta U+W
SciTegic.value.DoubleValue
0.823

@<SCITEGIC>MOL_PROPERTY
U+W
SciTegic.value.DoubleValue
-2.308

@<SCITEGIC>MOL_PROPERTY
Grad RMS
SciTegic.value.DoubleValue
0.000000

@<SCITEGIC>MOL_PROPERTY
U
SciTegic.value.DoubleValue
0.039

@<SCITEGIC>MOL_PROPERTY
W
SciTegic.value.DoubleValue
-2.348

@<SCITEGIC>MOL_PROPERTY
W(PB)
SciTegic.value.DoubleValue
-3.918

@<SCITEGIC>MOL_PROPERTY
W(SA)
SciTegic.value.DoubleValue
1.571

@<SCITEGIC>MOL_PROPERTY
Valence
SciTegic.value.DoubleValue
7.320

@<SCITEGIC>MOL_PROPERTY
Coulomb
SciTegic.value.DoubleValue
-8.530

@<SCITEGIC>MOL_PROPERTY
VdW
SciTegic.value.DoubleValue
1.249

@<SCITEGIC>MOL_PROPERTY
VdW6
SciTegic.value.DoubleValue
-2.615

@<SCITEGIC>MOL_PROPERTY
VdW12
SciTegic.value.DoubleValue
3.864

@<SCITEGIC>MOL_PROPERTY
Bond
SciTegic.value.DoubleValue
0.056

@<SCITEGIC>MOL_PROPERTY
Angle
SciTegic.value.DoubleValue
0.694

@<SCITEGIC>MOL_PROPERTY
Pdih
SciTegic.value.DoubleValue
6.570

@<SCITEGIC>MOL_PROPERTY
Idih
SciTegic.value.DoubleValue
0.000

@<SCITEGIC>MOL_PROPERTY
Tether
SciTegic.value.DoubleValue
0.000

@<TRIPOS>MOLECULE
guest-s16_confgen4.mol2 : confsearch ligand conformer 981
          13          13           1
SMALL
USER_CHARGES
 
@<TRIPOS>ATOM
       1    C1      19.088537   20.057248   21.633772 C.3        1 MOL1        -0.1693
       2    H1      19.310582   20.101177   20.559364 H          1 MOL1         0.0829
       3    H2      18.388697   20.864598   21.880244 H          1 MOL1         0.0829
       4    C2      20.345113   19.931599   22.557100 C.3        1 MOL1        -0.1768
       5    H3      21.256547   20.425733   22.203434 H          1 MOL1         0.0829
       6    H4      20.175890   20.210957   23.604434 H          1 MOL1         0.0829
       7    C3      20.249873   18.402111   22.273473 C.3        1 MOL1         0.1211
       8    H5      20.721025   18.096671   21.329130 H          1 MOL1         0.0786
       9    C4      18.712530   18.635383   22.166920 C.3        1 MOL1        -0.1768
      10    H6      18.177649   17.983885   21.467188 H          1 MOL1         0.0829
      11    H7      18.183245   18.631690   23.127980 H          1 MOL1         0.0829
      12    O1      20.660927   17.566780   23.330735 O.3        1 MOL1        -0.5515
      13    H8      20.402110   16.650075   23.094369 H          1 MOL1         0.3773
@<TRIPOS>BOND
    1     1     2    1
    2     1     3    1
    3     1     4    1
    4     4     5    1
    5     4     6    1
    6     4     7    1
    7     7     8    1
    8     1     9    1
    9     7     9    1
   10     9    10    1
   11     9    11    1
   12     7    12    1
   13    12    13    1
@<TRIPOS>SUBSTRUCTURE
       1 MOL1            1 RESIDUE      1      MOL     
@<SCITEGIC>MOL_PROPERTY
VConf Rank
SciTegic.value.IntegerValue
981

@<SCITEGIC>MOL_PROPERTY
Conf_Id
SciTegic.value.IntegerValue
22

@<SCITEGIC>MOL_PROPERTY
Delta U+W
SciTegic.value.DoubleValue
0.000

@<SCITEGIC>MOL_PROPERTY
U+W
SciTegic.value.DoubleValue
-3.131

@<SCITEGIC>MOL_PROPERTY
Grad RMS
SciTegic.value.DoubleValue
0.000000

@<SCITEGIC>MOL_PROPERTY
U
SciTegic.value.DoubleValue
-0.154

@<SCITEGIC>MOL_PROPERTY
W
SciTegic.value.DoubleValue
-2.978

@<SCITEGIC>MOL_PROPERTY
W(PB)
SciTegic.value.DoubleValue
-4.579

@<SCITEGIC>MOL_PROPERTY
W(SA)
SciTegic.value.DoubleValue
1.601

@<SCITEGIC>MOL_PROPERTY
Valence
SciTegic.value.DoubleValue
6.333

@<SCITEGIC>MOL_PROPERTY
Coulomb
SciTegic.value.DoubleValue
-7.439

@<SCITEGIC>MOL_PROPERTY
VdW
SciTegic.value.DoubleValue
0.952

@<SCITEGIC>MOL_PROPERTY
VdW6
SciTegic.value.DoubleValue
-2.120

@<SCITEGIC>MOL_PROPERTY
VdW12
SciTegic.value.DoubleValue
3.072

@<SCITEGIC>MOL_PROPERTY
Bond
SciTegic.value.DoubleValue
0.065

@<SCITEGIC>MOL_PROPERTY
Angle
SciTegic.value.DoubleValue
0.931

@<SCITEGIC>MOL_PROPERTY
Pdih
SciTegic.value.DoubleValue
5.338

@<SCITEGIC>MOL_PROPERTY
Idih
SciTegic.value.DoubleValue
0.000

@<SCITEGIC>MOL_PROPERTY
Tether
SciTegic.value.DoubleValue
0.000

@<TRIPOS>MOLECULE
guest-s16_confgen4.mol2 : confsearch ligand conformer 982
          13          13           1
SMALL
USER_CHARGES
 
@<TRIPOS>ATOM
       1    C1      19.668578   20.054693   21.563864 C.3        1 MOL1        -0.1693
       2    H1      19.130267   20.878312   22.051161 H          1 MOL1         0.0829
       3    H2      20.050523   20.408216   20.598734 H          1 MOL1         0.0829
       4    C2      18.899353   18.692669   21.541152 C.3        1 MOL1        -0.1768
       5    H3      19.261762   17.974261   20.795268 H          1 MOL1         0.0829
       6    H4      17.808098   18.756309   21.468455 H          1 MOL1         0.0829
       7    C3      19.474230   18.483261   22.974631 C.3        1 MOL1         0.1211
       8    H5      18.893537   18.978872   23.764710 H          1 MOL1         0.0786
       9    C4      20.697246   19.312772   22.479670 C.3        1 MOL1        -0.1768
      10    H6      21.454477   18.729057   21.941652 H          1 MOL1         0.0829
      11    H7      21.197216   19.923632   23.239170 H          1 MOL1         0.0829
      12    O1      19.753871   17.147138   23.322662 O.3        1 MOL1        -0.5515
      13    H8      18.892942   16.695188   23.455879 H          1 MOL1         0.3773
@<TRIPOS>BOND
    1     1     2    1
    2     1     3    1
    3     1     4    1
    4     4     5    1
    5     4     6    1
    6     4     7    1
    7     7     8    1
    8     1     9    1
    9     7     9    1
   10     9    10    1
   11     9    11    1
   12     7    12    1
   13    12    13    1
@<TRIPOS>SUBSTRUCTURE
       1 MOL1            1 RESIDUE      1      MOL     
@<SCITEGIC>MOL_PROPERTY
VConf Rank
SciTegic.value.IntegerValue
982

@<SCITEGIC>MOL_PROPERTY
Conf_Id
SciTegic.value.IntegerValue
19

@<SCITEGIC>MOL_PROPERTY
Delta U+W
SciTegic.value.DoubleValue
-0.011

@<SCITEGIC>MOL_PROPERTY
U+W
SciTegic.value.DoubleValue
-3.142

@<SCITEGIC>MOL_PROPERTY
Grad RMS
SciTegic.value.DoubleValue
0.000000

@<SCITEGIC>MOL_PROPERTY
U
SciTegic.value.DoubleValue
-0.154

@<SCITEGIC>MOL_PROPERTY
W
SciTegic.value.DoubleValue
-2.989

@<SCITEGIC>MOL_PROPERTY
W(PB)
SciTegic.value.DoubleValue
-4.588

@<SCITEGIC>MOL_PROPERTY
W(SA)
SciTegic.value.DoubleValue
1.599

@<SCITEGIC>MOL_PROPERTY
Valence
SciTegic.value.DoubleValue
6.334

@<SCITEGIC>MOL_PROPERTY
Coulomb
SciTegic.value.DoubleValue
-7.439

@<SCITEGIC>MOL_PROPERTY
VdW
SciTegic.value.DoubleValue
0.951

@<SCITEGIC>MOL_PROPERTY
VdW6
SciTegic.value.DoubleValue
-2.120

@<SCITEGIC>MOL_PROPERTY
VdW12
SciTegic.value.DoubleValue
3.072

@<SCITEGIC>MOL_PROPERTY
Bond
SciTegic.value.DoubleValue
0.065

@<SCITEGIC>MOL_PROPERTY
Angle
SciTegic.value.DoubleValue
0.930

@<SCITEGIC>MOL_PROPERTY
Pdih
SciTegic.value.DoubleValue
5.339

@<SCITEGIC>MOL_PROPERTY
Idih
SciTegic.value.DoubleValue
0.000

@<SCITEGIC>MOL_PROPERTY
Tether
SciTegic.value.DoubleValue
0.000

@<TRIPOS>MOLECULE
guest-s16_confgen4.mol2 : confsearch ligand conformer 983
          13          13           1
SMALL
USER_CHARGES
 
@<TRIPOS>ATOM
       1    C1      19.467435   17.891977   21.905529 C.3        1 MOL1        -0.1693
       2    H1      19.964546   16.944011   21.668427 H          1 MOL1         0.0829
       3    H2      18.381547   17.745584   21.837532 H          1 MOL1         0.0829
       4    C2      20.000770   19.156160   21.152957 C.3        1 MOL1        -0.1768
       5    H3      21.068351   19.121023   20.904358 H          1 MOL1         0.0829
       6    H4      19.442407   19.455176   20.258969 H          1 MOL1         0.0829
       7    C3      19.673250   19.952221   22.454666 C.3        1 MOL1         0.1211
       8    H5      20.377898   20.761701   22.684942 H          1 MOL1         0.0786
       9    C4      19.946137   18.613362   23.209043 C.3        1 MOL1        -0.1768
      10    H6      19.342062   18.435978   24.105693 H          1 MOL1         0.0829
      11    H7      21.000847   18.446034   23.459166 H          1 MOL1         0.0829
      12    O1      18.344898   20.427449   22.542889 O.3        1 MOL1        -0.5515
      13    H8      18.211538   20.749018   23.459929 H          1 MOL1         0.3773
@<TRIPOS>BOND
    1     1     2    1
    2     1     3    1
    3     1     4    1
    4     4     5    1
    5     4     6    1
    6     4     7    1
    7     7     8    1
    8     1     9    1
    9     7     9    1
   10     9    10    1
   11     9    11    1
   12     7    12    1
   13    12    13    1
@<TRIPOS>SUBSTRUCTURE
       1 MOL1            1 RESIDUE      1      MOL     
@<SCITEGIC>MOL_PROPERTY
VConf Rank
SciTegic.value.IntegerValue
983

@<SCITEGIC>MOL_PROPERTY
Conf_Id
SciTegic.value.IntegerValue
20

@<SCITEGIC>MOL_PROPERTY
Delta U+W
SciTegic.value.DoubleValue
1.030

@<SCITEGIC>MOL_PROPERTY
U+W
SciTegic.value.DoubleValue
-2.101

@<SCITEGIC>MOL_PROPERTY
Grad RMS
SciTegic.value.DoubleValue
0.000000

@<SCITEGIC>MOL_PROPERTY
U
SciTegic.value.DoubleValue
0.841

@<SCITEGIC>MOL_PROPERTY
W
SciTegic.value.DoubleValue
-2.942

@<SCITEGIC>MOL_PROPERTY
W(PB)
SciTegic.value.DoubleValue
-4.530

@<SCITEGIC>MOL_PROPERTY
W(SA)
SciTegic.value.DoubleValue
1.587

@<SCITEGIC>MOL_PROPERTY
Valence
SciTegic.value.DoubleValue
6.736

@<SCITEGIC>MOL_PROPERTY
Coulomb
SciTegic.value.DoubleValue
-7.246

@<SCITEGIC>MOL_PROPERTY
VdW
SciTegic.value.DoubleValue
1.352

@<SCITEGIC>MOL_PROPERTY
VdW6
SciTegic.value.DoubleValue
-2.500

@<SCITEGIC>MOL_PROPERTY
VdW12
SciTegic.value.DoubleValue
3.851

@<SCITEGIC>MOL_PROPERTY
Bond
SciTegic.value.DoubleValue
0.063

@<SCITEGIC>MOL_PROPERTY
Angle
SciTegic.value.DoubleValue
0.687

@<SCITEGIC>MOL_PROPERTY
Pdih
SciTegic.value.DoubleValue
5.986

@<SCITEGIC>MOL_PROPERTY
Idih
SciTegic.value.DoubleValue
0.000

@<SCITEGIC>MOL_PROPERTY
Tether
SciTegic.value.DoubleValue
0.000

@<TRIPOS>MOLECULE
guest-s16_confgen4.mol2 : confsearch ligand conformer 984
          13          13           1
SMALL
USER_CHARGES
 
@<TRIPOS>ATOM
       1    C1      19.431033   20.167063   21.947883 C.3        1 MOL1        -0.1693
       2    H1      19.337424   20.457211   20.893028 H          1 MOL1         0.0829
       3    H2      19.218001   21.043116   22.572039 H          1 MOL1         0.0829
       4    C2      20.735467   19.376481   22.295428 C.3        1 MOL1        -0.1768
       5    H3      21.626013   19.635372   21.712165 H          1 MOL1         0.0829
       6    H4      20.999998   19.375675   23.360045 H          1 MOL1         0.0829
       7    C3      19.953805   18.116950   21.814033 C.3        1 MOL1         0.1211
       8    H5      19.970769   17.973052   20.725135 H          1 MOL1         0.0786
       9    C4      18.679976   18.849884   22.332994 C.3        1 MOL1        -0.1768
      10    H6      18.485078   18.731379   23.406009 H          1 MOL1         0.0829
      11    H7      17.755211   18.643709   21.782910 H          1 MOL1         0.0829
      12    O1      20.273308   16.917145   22.477511 O.3        1 MOL1        -0.5515
      13    H8      20.242520   17.105800   23.438855 H          1 MOL1         0.3773
@<TRIPOS>BOND
    1     1     2    1
    2     1     3    1
    3     1     4    1
    4     4     5    1
    5     4     6    1
    6     4     7    1
    7     7     8    1
    8     1     9    1
    9     7     9    1
   10     9    10    1
   11     9    11    1
   12     7    12    1
   13    12    13    1
@<TRIPOS>SUBSTRUCTURE
       1 MOL1            1 RESIDUE      1      MOL     
@<SCITEGIC>MOL_PROPERTY
VConf Rank
SciTegic.value.IntegerValue
984

@<SCITEGIC>MOL_PROPERTY
Conf_Id
SciTegic.value.IntegerValue
24

@<SCITEGIC>MOL_PROPERTY
Delta U+W
SciTegic.value.DoubleValue
0.356

@<SCITEGIC>MOL_PROPERTY
U+W
SciTegic.value.DoubleValue
-2.775

@<SCITEGIC>MOL_PROPERTY
Grad RMS
SciTegic.value.DoubleValue
0.000000

@<SCITEGIC>MOL_PROPERTY
U
SciTegic.value.DoubleValue
-0.184

@<SCITEGIC>MOL_PROPERTY
W
SciTegic.value.DoubleValue
-2.591

@<SCITEGIC>MOL_PROPERTY
W(PB)
SciTegic.value.DoubleValue
-4.184

@<SCITEGIC>MOL_PROPERTY
W(SA)
SciTegic.value.DoubleValue
1.593

@<SCITEGIC>MOL_PROPERTY
Valence
SciTegic.value.DoubleValue
6.840

@<SCITEGIC>MOL_PROPERTY
Coulomb
SciTegic.value.DoubleValue
-7.916

@<SCITEGIC>MOL_PROPERTY
VdW
SciTegic.value.DoubleValue
0.893

@<SCITEGIC>MOL_PROPERTY
VdW6
SciTegic.value.DoubleValue
-2.167

@<SCITEGIC>MOL_PROPERTY
VdW12
SciTegic.value.DoubleValue
3.060

@<SCITEGIC>MOL_PROPERTY
Bond
SciTegic.value.DoubleValue
0.059

@<SCITEGIC>MOL_PROPERTY
Angle
SciTegic.value.DoubleValue
0.918

@<SCITEGIC>MOL_PROPERTY
Pdih
SciTegic.value.DoubleValue
5.862

@<SCITEGIC>MOL_PROPERTY
Idih
SciTegic.value.DoubleValue
0.000

@<SCITEGIC>MOL_PROPERTY
Tether
SciTegic.value.DoubleValue
0.000

@<TRIPOS>MOLECULE
guest-s16_confgen4.mol2 : confsearch ligand conformer 985
          13          13           1
SMALL
USER_CHARGES
 
@<TRIPOS>ATOM
       1    C1      19.744639   20.093069   22.268090 C.3        1 MOL1        -0.1693
       2    H1      19.740207   21.032860   21.703160 H          1 MOL1         0.0829
       3    H2      19.837080   20.330774   23.335445 H          1 MOL1         0.0829
       4    C2      20.726970   18.989126   21.751879 C.3        1 MOL1        -0.1768
       5    H3      20.906214   19.011704   20.670040 H          1 MOL1         0.0829
       6    H4      21.693751   18.924917   22.263661 H          1 MOL1         0.0829
       7    C3      19.649736   17.952065   22.196922 C.3        1 MOL1         0.1211
       8    H5      19.562804   17.070971   21.548382 H          1 MOL1         0.0786
       9    C4      18.606667   19.077664   21.915802 C.3        1 MOL1        -0.1768
      10    H6      18.266044   19.121951   20.874154 H          1 MOL1         0.0829
      11    H7      17.727904   19.090522   22.570263 H          1 MOL1         0.0829
      12    O1      19.737347   17.550471   23.547024 O.3        1 MOL1        -0.5515
      13    H8      19.812495   18.371878   24.075186 H          1 MOL1         0.3773
@<TRIPOS>BOND
    1     1     2    1
    2     1     3    1
    3     1     4    1
    4     4     5    1
    5     4     6    1
    6     4     7    1
    7     7     8    1
    8     1     9    1
    9     7     9    1
   10     9    10    1
   11     9    11    1
   12     7    12    1
   13    12    13    1
@<TRIPOS>SUBSTRUCTURE
       1 MOL1            1 RESIDUE      1      MOL     
@<SCITEGIC>MOL_PROPERTY
VConf Rank
SciTegic.value.IntegerValue
985

@<SCITEGIC>MOL_PROPERTY
Conf_Id
SciTegic.value.IntegerValue
44

@<SCITEGIC>MOL_PROPERTY
Delta U+W
SciTegic.value.DoubleValue
0.823

@<SCITEGIC>MOL_PROPERTY
U+W
SciTegic.value.DoubleValue
-2.308

@<SCITEGIC>MOL_PROPERTY
Grad RMS
SciTegic.value.DoubleValue
0.000000

@<SCITEGIC>MOL_PROPERTY
U
SciTegic.value.DoubleValue
0.039

@<SCITEGIC>MOL_PROPERTY
W
SciTegic.value.DoubleValue
-2.348

@<SCITEGIC>MOL_PROPERTY
W(PB)
SciTegic.value.DoubleValue
-3.918

@<SCITEGIC>MOL_PROPERTY
W(SA)
SciTegic.value.DoubleValue
1.571

@<SCITEGIC>MOL_PROPERTY
Valence
SciTegic.value.DoubleValue
7.320

@<SCITEGIC>MOL_PROPERTY
Coulomb
SciTegic.value.DoubleValue
-8.530

@<SCITEGIC>MOL_PROPERTY
VdW
SciTegic.value.DoubleValue
1.249

@<SCITEGIC>MOL_PROPERTY
VdW6
SciTegic.value.DoubleValue
-2.615

@<SCITEGIC>MOL_PROPERTY
VdW12
SciTegic.value.DoubleValue
3.864

@<SCITEGIC>MOL_PROPERTY
Bond
SciTegic.value.DoubleValue
0.056

@<SCITEGIC>MOL_PROPERTY
Angle
SciTegic.value.DoubleValue
0.694

@<SCITEGIC>MOL_PROPERTY
Pdih
SciTegic.value.DoubleValue
6.570

@<SCITEGIC>MOL_PROPERTY
Idih
SciTegic.value.DoubleValue
0.000

@<SCITEGIC>MOL_PROPERTY
Tether
SciTegic.value.DoubleValue
0.000

@<TRIPOS>MOLECULE
guest-s16_confgen4.mol2 : confsearch ligand conformer 986
          13          13           1
SMALL
USER_CHARGES
 
@<TRIPOS>ATOM
       1    C1      20.671814   19.709571   22.784508 C.3        1 MOL1        -0.1693
       2    H1      21.601167   19.640537   22.203885 H          1 MOL1         0.0829
       3    H2      20.841670   20.374104   23.640009 H          1 MOL1         0.0829
       4    C2      19.997157   18.335141   23.105581 C.3        1 MOL1        -0.1768
       5    H3      20.674052   17.486006   23.249609 H          1 MOL1         0.0829
       6    H4      19.278532   18.358123   23.934216 H          1 MOL1         0.0829
       7    C3      19.355171   18.457545   21.690760 C.3        1 MOL1         0.1211
       8    H5      20.011138   18.120996   20.876203 H          1 MOL1         0.0786
       9    C4      19.389404   19.996386   21.935691 C.3        1 MOL1        -0.1768
      10    H6      19.529734   20.619035   21.045304 H          1 MOL1         0.0829
      11    H7      18.538514   20.385804   22.508520 H          1 MOL1         0.0829
      12    O1      18.069553   17.896129   21.562134 O.3        1 MOL1        -0.5515
      13    H8      17.714821   18.178530   20.691721 H          1 MOL1         0.3773
@<TRIPOS>BOND
    1     1     2    1
    2     1     3    1
    3     1     4    1
    4     4     5    1
    5     4     6    1
    6     4     7    1
    7     7     8    1
    8     1     9    1
    9     7     9    1
   10     9    10    1
   11     9    11    1
   12     7    12    1
   13    12    13    1
@<TRIPOS>SUBSTRUCTURE
       1 MOL1            1 RESIDUE      1      MOL     
@<SCITEGIC>MOL_PROPERTY
VConf Rank
SciTegic.value.IntegerValue
986

@<SCITEGIC>MOL_PROPERTY
Conf_Id
SciTegic.value.IntegerValue
22

@<SCITEGIC>MOL_PROPERTY
Delta U+W
SciTegic.value.DoubleValue
0.000

@<SCITEGIC>MOL_PROPERTY
U+W
SciTegic.value.DoubleValue
-3.131

@<SCITEGIC>MOL_PROPERTY
Grad RMS
SciTegic.value.DoubleValue
0.000000

@<SCITEGIC>MOL_PROPERTY
U
SciTegic.value.DoubleValue
-0.154

@<SCITEGIC>MOL_PROPERTY
W
SciTegic.value.DoubleValue
-2.978

@<SCITEGIC>MOL_PROPERTY
W(PB)
SciTegic.value.DoubleValue
-4.579

@<SCITEGIC>MOL_PROPERTY
W(SA)
SciTegic.value.DoubleValue
1.601

@<SCITEGIC>MOL_PROPERTY
Valence
SciTegic.value.DoubleValue
6.333

@<SCITEGIC>MOL_PROPERTY
Coulomb
SciTegic.value.DoubleValue
-7.439

@<SCITEGIC>MOL_PROPERTY
VdW
SciTegic.value.DoubleValue
0.952

@<SCITEGIC>MOL_PROPERTY
VdW6
SciTegic.value.DoubleValue
-2.120

@<SCITEGIC>MOL_PROPERTY
VdW12
SciTegic.value.DoubleValue
3.072

@<SCITEGIC>MOL_PROPERTY
Bond
SciTegic.value.DoubleValue
0.065

@<SCITEGIC>MOL_PROPERTY
Angle
SciTegic.value.DoubleValue
0.931

@<SCITEGIC>MOL_PROPERTY
Pdih
SciTegic.value.DoubleValue
5.338

@<SCITEGIC>MOL_PROPERTY
Idih
SciTegic.value.DoubleValue
0.000

@<SCITEGIC>MOL_PROPERTY
Tether
SciTegic.value.DoubleValue
0.000

@<TRIPOS>MOLECULE
guest-s16_confgen4.mol2 : confsearch ligand conformer 987
          13          13           1
SMALL
USER_CHARGES
 
@<TRIPOS>ATOM
       1    C1      18.735933   19.743724   22.769297 C.3        1 MOL1        -0.1693
       2    H1      19.175205   20.654916   23.196328 H          1 MOL1         0.0829
       3    H2      17.655007   19.756456   22.953073 H          1 MOL1         0.0829
       4    C2      19.481016   18.420147   23.143895 C.3        1 MOL1        -0.1768
       5    H3      18.888237   17.506805   23.008941 H          1 MOL1         0.0829
       6    H4      19.948932   18.393837   24.134114 H          1 MOL1         0.0829
       7    C3      20.427854   18.759387   21.953261 C.3        1 MOL1         0.1211
       8    H5      21.228008   19.467934   22.207775 H          1 MOL1         0.0786
       9    C4      19.179737   19.428547   21.302666 C.3        1 MOL1        -0.1768
      10    H6      18.522658   18.735885   20.762249 H          1 MOL1         0.0829
      11    H7      19.382734   20.293773   20.662247 H          1 MOL1         0.0829
      12    O1      20.945726   17.648103   21.259427 O.3        1 MOL1        -0.5515
      13    H8      21.611052   17.224868   21.843737 H          1 MOL1         0.3773
@<TRIPOS>BOND
    1     1     2    1
    2     1     3    1
    3     1     4    1
    4     4     5    1
    5     4     6    1
    6     4     7    1
    7     7     8    1
    8     1     9    1
    9     7     9    1
   10     9    10    1
   11     9    11    1
   12     7    12    1
   13    12    13    1
@<TRIPOS>SUBSTRUCTURE
       1 MOL1            1 RESIDUE      1      MOL     
@<SCITEGIC>MOL_PROPERTY
VConf Rank
SciTegic.value.IntegerValue
987

@<SCITEGIC>MOL_PROPERTY
Conf_Id
SciTegic.value.IntegerValue
19

@<SCITEGIC>MOL_PROPERTY
Delta U+W
SciTegic.value.DoubleValue
-0.011

@<SCITEGIC>MOL_PROPERTY
U+W
SciTegic.value.DoubleValue
-3.142

@<SCITEGIC>MOL_PROPERTY
Grad RMS
SciTegic.value.DoubleValue
0.000000

@<SCITEGIC>MOL_PROPERTY
U
SciTegic.value.DoubleValue
-0.154

@<SCITEGIC>MOL_PROPERTY
W
SciTegic.value.DoubleValue
-2.989

@<SCITEGIC>MOL_PROPERTY
W(PB)
SciTegic.value.DoubleValue
-4.588

@<SCITEGIC>MOL_PROPERTY
W(SA)
SciTegic.value.DoubleValue
1.599

@<SCITEGIC>MOL_PROPERTY
Valence
SciTegic.value.DoubleValue
6.334

@<SCITEGIC>MOL_PROPERTY
Coulomb
SciTegic.value.DoubleValue
-7.439

@<SCITEGIC>MOL_PROPERTY
VdW
SciTegic.value.DoubleValue
0.951

@<SCITEGIC>MOL_PROPERTY
VdW6
SciTegic.value.DoubleValue
-2.120

@<SCITEGIC>MOL_PROPERTY
VdW12
SciTegic.value.DoubleValue
3.072

@<SCITEGIC>MOL_PROPERTY
Bond
SciTegic.value.DoubleValue
0.065

@<SCITEGIC>MOL_PROPERTY
Angle
SciTegic.value.DoubleValue
0.930

@<SCITEGIC>MOL_PROPERTY
Pdih
SciTegic.value.DoubleValue
5.339

@<SCITEGIC>MOL_PROPERTY
Idih
SciTegic.value.DoubleValue
0.000

@<SCITEGIC>MOL_PROPERTY
Tether
SciTegic.value.DoubleValue
0.000

@<TRIPOS>MOLECULE
guest-s16_confgen4.mol2 : confsearch ligand conformer 988
          13          13           1
SMALL
USER_CHARGES
 
@<TRIPOS>ATOM
       1    C1      20.176959   17.952038   22.195800 C.3        1 MOL1        -0.1693
       2    H1      21.121666   17.427245   22.011144 H          1 MOL1         0.0829
       3    H2      19.412552   17.213135   22.469498 H          1 MOL1         0.0829
       4    C2      19.729917   18.972384   21.096700 C.3        1 MOL1        -0.1768
       5    H3      20.556213   19.459785   20.565248 H          1 MOL1         0.0829
       6    H4      19.009806   18.600645   20.359379 H          1 MOL1         0.0829
       7    C3      19.130725   19.820068   22.261960 C.3        1 MOL1         0.1211
       8    H5      19.207781   20.906227   22.123634 H          1 MOL1         0.0786
       9    C4      20.252729   19.192333   23.146919 C.3        1 MOL1        -0.1768
      10    H6      19.991653   19.010374   24.195290 H          1 MOL1         0.0829
      11    H7      21.206461   19.732890   23.112757 H          1 MOL1         0.0829
      12    O1      17.812050   19.472057   22.633616 O.3        1 MOL1        -0.5515
      13    H8      17.613174   19.940516   23.472156 H          1 MOL1         0.3773
@<TRIPOS>BOND
    1     1     2    1
    2     1     3    1
    3     1     4    1
    4     4     5    1
    5     4     6    1
    6     4     7    1
    7     7     8    1
    8     1     9    1
    9     7     9    1
   10     9    10    1
   11     9    11    1
   12     7    12    1
   13    12    13    1
@<TRIPOS>SUBSTRUCTURE
       1 MOL1            1 RESIDUE      1      MOL     
@<SCITEGIC>MOL_PROPERTY
VConf Rank
SciTegic.value.IntegerValue
988

@<SCITEGIC>MOL_PROPERTY
Conf_Id
SciTegic.value.IntegerValue
20

@<SCITEGIC>MOL_PROPERTY
Delta U+W
SciTegic.value.DoubleValue
1.030

@<SCITEGIC>MOL_PROPERTY
U+W
SciTegic.value.DoubleValue
-2.101

@<SCITEGIC>MOL_PROPERTY
Grad RMS
SciTegic.value.DoubleValue
0.000000

@<SCITEGIC>MOL_PROPERTY
U
SciTegic.value.DoubleValue
0.841

@<SCITEGIC>MOL_PROPERTY
W
SciTegic.value.DoubleValue
-2.942

@<SCITEGIC>MOL_PROPERTY
W(PB)
SciTegic.value.DoubleValue
-4.530

@<SCITEGIC>MOL_PROPERTY
W(SA)
SciTegic.value.DoubleValue
1.587

@<SCITEGIC>MOL_PROPERTY
Valence
SciTegic.value.DoubleValue
6.736

@<SCITEGIC>MOL_PROPERTY
Coulomb
SciTegic.value.DoubleValue
-7.246

@<SCITEGIC>MOL_PROPERTY
VdW
SciTegic.value.DoubleValue
1.352

@<SCITEGIC>MOL_PROPERTY
VdW6
SciTegic.value.DoubleValue
-2.500

@<SCITEGIC>MOL_PROPERTY
VdW12
SciTegic.value.DoubleValue
3.851

@<SCITEGIC>MOL_PROPERTY
Bond
SciTegic.value.DoubleValue
0.063

@<SCITEGIC>MOL_PROPERTY
Angle
SciTegic.value.DoubleValue
0.687

@<SCITEGIC>MOL_PROPERTY
Pdih
SciTegic.value.DoubleValue
5.986

@<SCITEGIC>MOL_PROPERTY
Idih
SciTegic.value.DoubleValue
0.000

@<SCITEGIC>MOL_PROPERTY
Tether
SciTegic.value.DoubleValue
0.000

@<TRIPOS>MOLECULE
guest-s16_confgen4.mol2 : confsearch ligand conformer 989
          13          13           1
SMALL
USER_CHARGES
 
@<TRIPOS>ATOM
       1    C1      19.617001   20.008905   22.927438 C.3        1 MOL1        -0.1693
       2    H1      18.691348   20.128922   23.505739 H          1 MOL1         0.0829
       3    H2      20.258446   20.879541   23.108999 H          1 MOL1         0.0829
       4    C2      19.405244   19.611844   21.429153 C.3        1 MOL1        -0.1768
       5    H3      18.500792   20.002584   20.950006 H          1 MOL1         0.0829
       6    H4      20.263990   19.812877   20.776828 H          1 MOL1         0.0829
       7    C3      19.312832   18.148507   21.957606 C.3        1 MOL1         0.1211
       8    H5      18.317638   17.873883   22.332922 H          1 MOL1         0.0786
       9    C4      20.301126   18.609380   23.071170 C.3        1 MOL1        -0.1768
      10    H6      21.360114   18.586351   22.785857 H          1 MOL1         0.0829
      11    H7      20.187876   18.114790   24.042173 H          1 MOL1         0.0829
      12    O1      19.804029   17.158715   21.085336 O.3        1 MOL1        -0.5515
      13    H8      20.688168   17.456539   20.784807 H          1 MOL1         0.3773
@<TRIPOS>BOND
    1     1     2    1
    2     1     3    1
    3     1     4    1
    4     4     5    1
    5     4     6    1
    6     4     7    1
    7     7     8    1
    8     1     9    1
    9     7     9    1
   10     9    10    1
   11     9    11    1
   12     7    12    1
   13    12    13    1
@<TRIPOS>SUBSTRUCTURE
       1 MOL1            1 RESIDUE      1      MOL     
@<SCITEGIC>MOL_PROPERTY
VConf Rank
SciTegic.value.IntegerValue
989

@<SCITEGIC>MOL_PROPERTY
Conf_Id
SciTegic.value.IntegerValue
24

@<SCITEGIC>MOL_PROPERTY
Delta U+W
SciTegic.value.DoubleValue
0.356

@<SCITEGIC>MOL_PROPERTY
U+W
SciTegic.value.DoubleValue
-2.775

@<SCITEGIC>MOL_PROPERTY
Grad RMS
SciTegic.value.DoubleValue
0.000000

@<SCITEGIC>MOL_PROPERTY
U
SciTegic.value.DoubleValue
-0.184

@<SCITEGIC>MOL_PROPERTY
W
SciTegic.value.DoubleValue
-2.591

@<SCITEGIC>MOL_PROPERTY
W(PB)
SciTegic.value.DoubleValue
-4.184

@<SCITEGIC>MOL_PROPERTY
W(SA)
SciTegic.value.DoubleValue
1.593

@<SCITEGIC>MOL_PROPERTY
Valence
SciTegic.value.DoubleValue
6.840

@<SCITEGIC>MOL_PROPERTY
Coulomb
SciTegic.value.DoubleValue
-7.916

@<SCITEGIC>MOL_PROPERTY
VdW
SciTegic.value.DoubleValue
0.893

@<SCITEGIC>MOL_PROPERTY
VdW6
SciTegic.value.DoubleValue
-2.167

@<SCITEGIC>MOL_PROPERTY
VdW12
SciTegic.value.DoubleValue
3.060

@<SCITEGIC>MOL_PROPERTY
Bond
SciTegic.value.DoubleValue
0.059

@<SCITEGIC>MOL_PROPERTY
Angle
SciTegic.value.DoubleValue
0.918

@<SCITEGIC>MOL_PROPERTY
Pdih
SciTegic.value.DoubleValue
5.862

@<SCITEGIC>MOL_PROPERTY
Idih
SciTegic.value.DoubleValue
0.000

@<SCITEGIC>MOL_PROPERTY
Tether
SciTegic.value.DoubleValue
0.000

@<TRIPOS>MOLECULE
guest-s16_confgen4.mol2 : confsearch ligand conformer 990
          13          13           1
SMALL
USER_CHARGES
 
@<TRIPOS>ATOM
       1    C1      18.608824   19.261742   22.282341 C.3        1 MOL1        -0.1693
       2    H1      17.886201   19.974177   22.697824 H          1 MOL1         0.0829
       3    H2      18.060927   18.518443   21.689373 H          1 MOL1         0.0829
       4    C2      19.640907   18.664277   23.296234 C.3        1 MOL1        -0.1768
       5    H3      19.903490   19.334519   24.123784 H          1 MOL1         0.0829
       6    H4      19.397200   17.679298   23.709915 H          1 MOL1         0.0829
       7    C3      20.664832   18.675073   22.119181 C.3        1 MOL1         0.1211
       8    H5      21.697771   18.906173   22.409213 H          1 MOL1         0.0786
       9    C4      19.852719   19.887441   21.567246 C.3        1 MOL1        -0.1768
      10    H6      20.167235   20.857584   21.970874 H          1 MOL1         0.0829
      11    H7      19.793376   19.967123   20.475991 H          1 MOL1         0.0829
      12    O1      20.639140   17.524622   21.302157 O.3        1 MOL1        -0.5515
      13    H8      19.699234   17.367501   21.075877 H          1 MOL1         0.3773
@<TRIPOS>BOND
    1     1     2    1
    2     1     3    1
    3     1     4    1
    4     4     5    1
    5     4     6    1
    6     4     7    1
    7     7     8    1
    8     1     9    1
    9     7     9    1
   10     9    10    1
   11     9    11    1
   12     7    12    1
   13    12    13    1
@<TRIPOS>SUBSTRUCTURE
       1 MOL1            1 RESIDUE      1      MOL     
@<SCITEGIC>MOL_PROPERTY
VConf Rank
SciTegic.value.IntegerValue
990

@<SCITEGIC>MOL_PROPERTY
Conf_Id
SciTegic.value.IntegerValue
44

@<SCITEGIC>MOL_PROPERTY
Delta U+W
SciTegic.value.DoubleValue
0.823

@<SCITEGIC>MOL_PROPERTY
U+W
SciTegic.value.DoubleValue
-2.308

@<SCITEGIC>MOL_PROPERTY
Grad RMS
SciTegic.value.DoubleValue
0.000000

@<SCITEGIC>MOL_PROPERTY
U
SciTegic.value.DoubleValue
0.039

@<SCITEGIC>MOL_PROPERTY
W
SciTegic.value.DoubleValue
-2.348

@<SCITEGIC>MOL_PROPERTY
W(PB)
SciTegic.value.DoubleValue
-3.918

@<SCITEGIC>MOL_PROPERTY
W(SA)
SciTegic.value.DoubleValue
1.571

@<SCITEGIC>MOL_PROPERTY
Valence
SciTegic.value.DoubleValue
7.320

@<SCITEGIC>MOL_PROPERTY
Coulomb
SciTegic.value.DoubleValue
-8.530

@<SCITEGIC>MOL_PROPERTY
VdW
SciTegic.value.DoubleValue
1.249

@<SCITEGIC>MOL_PROPERTY
VdW6
SciTegic.value.DoubleValue
-2.615

@<SCITEGIC>MOL_PROPERTY
VdW12
SciTegic.value.DoubleValue
3.864

@<SCITEGIC>MOL_PROPERTY
Bond
SciTegic.value.DoubleValue
0.056

@<SCITEGIC>MOL_PROPERTY
Angle
SciTegic.value.DoubleValue
0.694

@<SCITEGIC>MOL_PROPERTY
Pdih
SciTegic.value.DoubleValue
6.570

@<SCITEGIC>MOL_PROPERTY
Idih
SciTegic.value.DoubleValue
0.000

@<SCITEGIC>MOL_PROPERTY
Tether
SciTegic.value.DoubleValue
0.000

@<TRIPOS>MOLECULE
guest-s16_confgen4.mol2 : confsearch ligand conformer 991
          13          13           1
SMALL
USER_CHARGES
 
@<TRIPOS>ATOM
       1    C1      19.388384   18.597761   21.037762 C.3        1 MOL1        -0.1693
       2    H1      20.280040   18.413419   20.424123 H          1 MOL1         0.0829
       3    H2      18.501530   18.301074   20.465219 H          1 MOL1         0.0829
       4    C2      19.334016   20.011698   21.704945 C.3        1 MOL1        -0.1768
       5    H3      19.792216   20.830917   21.140237 H          1 MOL1         0.0829
       6    H4      18.336342   20.325904   22.035861 H          1 MOL1         0.0829
       7    C3      20.217387   19.383385   22.824644 C.3        1 MOL1         0.1211
       8    H5      21.289610   19.366570   22.585651 H          1 MOL1         0.0786
       9    C4      19.476192   18.051089   22.500898 C.3        1 MOL1        -0.1768
      10    H6      20.059394   17.134020   22.638859 H          1 MOL1         0.0829
      11    H7      18.508721   17.933620   23.004877 H          1 MOL1         0.0829
      12    O1      20.001478   19.893928   24.119741 O.3        1 MOL1        -0.5515
      13    H8      20.487417   19.314522   24.745326 H          1 MOL1         0.3773
@<TRIPOS>BOND
    1     1     2    1
    2     1     3    1
    3     1     4    1
    4     4     5    1
    5     4     6    1
    6     4     7    1
    7     7     8    1
    8     1     9    1
    9     7     9    1
   10     9    10    1
   11     9    11    1
   12     7    12    1
   13    12    13    1
@<TRIPOS>SUBSTRUCTURE
       1 MOL1            1 RESIDUE      1      MOL     
@<SCITEGIC>MOL_PROPERTY
VConf Rank
SciTegic.value.IntegerValue
991

@<SCITEGIC>MOL_PROPERTY
Conf_Id
SciTegic.value.IntegerValue
22

@<SCITEGIC>MOL_PROPERTY
Delta U+W
SciTegic.value.DoubleValue
0.000

@<SCITEGIC>MOL_PROPERTY
U+W
SciTegic.value.DoubleValue
-3.131

@<SCITEGIC>MOL_PROPERTY
Grad RMS
SciTegic.value.DoubleValue
0.000000

@<SCITEGIC>MOL_PROPERTY
U
SciTegic.value.DoubleValue
-0.154

@<SCITEGIC>MOL_PROPERTY
W
SciTegic.value.DoubleValue
-2.978

@<SCITEGIC>MOL_PROPERTY
W(PB)
SciTegic.value.DoubleValue
-4.579

@<SCITEGIC>MOL_PROPERTY
W(SA)
SciTegic.value.DoubleValue
1.601

@<SCITEGIC>MOL_PROPERTY
Valence
SciTegic.value.DoubleValue
6.333

@<SCITEGIC>MOL_PROPERTY
Coulomb
SciTegic.value.DoubleValue
-7.439

@<SCITEGIC>MOL_PROPERTY
VdW
SciTegic.value.DoubleValue
0.952

@<SCITEGIC>MOL_PROPERTY
VdW6
SciTegic.value.DoubleValue
-2.120

@<SCITEGIC>MOL_PROPERTY
VdW12
SciTegic.value.DoubleValue
3.072

@<SCITEGIC>MOL_PROPERTY
Bond
SciTegic.value.DoubleValue
0.065

@<SCITEGIC>MOL_PROPERTY
Angle
SciTegic.value.DoubleValue
0.931

@<SCITEGIC>MOL_PROPERTY
Pdih
SciTegic.value.DoubleValue
5.338

@<SCITEGIC>MOL_PROPERTY
Idih
SciTegic.value.DoubleValue
0.000

@<SCITEGIC>MOL_PROPERTY
Tether
SciTegic.value.DoubleValue
0.000

@<TRIPOS>MOLECULE
guest-s16_confgen4.mol2 : confsearch ligand conformer 992
          13          13           1
SMALL
USER_CHARGES
 
@<TRIPOS>ATOM
       1    C1      20.359662   18.951453   23.344723 C.3        1 MOL1        -0.1693
       2    H1      20.937747   19.877369   23.463397 H          1 MOL1         0.0829
       3    H2      20.604369   18.276883   24.173826 H          1 MOL1         0.0829
       4    C2      20.412146   18.326068   21.911730 C.3        1 MOL1        -0.1768
       5    H3      20.127915   17.267460   21.863206 H          1 MOL1         0.0829
       6    H4      21.347336   18.465883   21.358518 H          1 MOL1         0.0829
       7    C3      19.263232   19.321418   21.567535 C.3        1 MOL1         0.1211
       8    H5      19.610451   20.331760   21.311194 H          1 MOL1         0.0786
       9    C4      18.836413   19.163194   23.058050 C.3        1 MOL1        -0.1768
      10    H6      18.204784   18.289103   23.259531 H          1 MOL1         0.0829
      11    H7      18.375672   20.044358   23.517645 H          1 MOL1         0.0829
      12    O1      18.328182   18.858611   20.620942 O.3        1 MOL1        -0.5515
      13    H8      18.774192   18.860821   19.746714 H          1 MOL1         0.3773
@<TRIPOS>BOND
    1     1     2    1
    2     1     3    1
    3     1     4    1
    4     4     5    1
    5     4     6    1
    6     4     7    1
    7     7     8    1
    8     1     9    1
    9     7     9    1
   10     9    10    1
   11     9    11    1
   12     7    12    1
   13    12    13    1
@<TRIPOS>SUBSTRUCTURE
       1 MOL1            1 RESIDUE      1      MOL     
@<SCITEGIC>MOL_PROPERTY
VConf Rank
SciTegic.value.IntegerValue
992

@<SCITEGIC>MOL_PROPERTY
Conf_Id
SciTegic.value.IntegerValue
19

@<SCITEGIC>MOL_PROPERTY
Delta U+W
SciTegic.value.DoubleValue
-0.011

@<SCITEGIC>MOL_PROPERTY
U+W
SciTegic.value.DoubleValue
-3.142

@<SCITEGIC>MOL_PROPERTY
Grad RMS
SciTegic.value.DoubleValue
0.000000

@<SCITEGIC>MOL_PROPERTY
U
SciTegic.value.DoubleValue
-0.154

@<SCITEGIC>MOL_PROPERTY
W
SciTegic.value.DoubleValue
-2.989

@<SCITEGIC>MOL_PROPERTY
W(PB)
SciTegic.value.DoubleValue
-4.588

@<SCITEGIC>MOL_PROPERTY
W(SA)
SciTegic.value.DoubleValue
1.599

@<SCITEGIC>MOL_PROPERTY
Valence
SciTegic.value.DoubleValue
6.334

@<SCITEGIC>MOL_PROPERTY
Coulomb
SciTegic.value.DoubleValue
-7.439

@<SCITEGIC>MOL_PROPERTY
VdW
SciTegic.value.DoubleValue
0.951

@<SCITEGIC>MOL_PROPERTY
VdW6
SciTegic.value.DoubleValue
-2.120

@<SCITEGIC>MOL_PROPERTY
VdW12
SciTegic.value.DoubleValue
3.072

@<SCITEGIC>MOL_PROPERTY
Bond
SciTegic.value.DoubleValue
0.065

@<SCITEGIC>MOL_PROPERTY
Angle
SciTegic.value.DoubleValue
0.930

@<SCITEGIC>MOL_PROPERTY
Pdih
SciTegic.value.DoubleValue
5.339

@<SCITEGIC>MOL_PROPERTY
Idih
SciTegic.value.DoubleValue
0.000

@<SCITEGIC>MOL_PROPERTY
Tether
SciTegic.value.DoubleValue
0.000

@<TRIPOS>MOLECULE
guest-s16_confgen4.mol2 : confsearch ligand conformer 993
          13          13           1
SMALL
USER_CHARGES
 
@<TRIPOS>ATOM
       1    C1      18.420407   19.220005   22.425031 C.3        1 MOL1        -0.1693
       2    H1      17.464399   19.365964   21.908581 H          1 MOL1         0.0829
       3    H2      18.227517   19.130315   23.502044 H          1 MOL1         0.0829
       4    C2      19.564615   20.220003   22.051182 C.3        1 MOL1        -0.1768
       5    H3      19.526850   20.589487   21.019280 H          1 MOL1         0.0829
       6    H4      19.696314   21.074100   22.724657 H          1 MOL1         0.0829
       7    C3      20.548053   19.027809   22.267862 C.3        1 MOL1         0.1211
       8    H5      21.407922   19.014780   21.585756 H          1 MOL1         0.0786
       9    C4      19.358358   18.113570   21.837877 C.3        1 MOL1        -0.1768
      10    H6      19.306863   17.132837   22.323536 H          1 MOL1         0.0829
      11    H7      19.270052   17.972083   20.753830 H          1 MOL1         0.0829
      12    O1      20.985065   18.851950   23.600618 O.3        1 MOL1        -0.5515
      13    H8      21.445272   17.986794   23.643845 H          1 MOL1         0.3773
@<TRIPOS>BOND
    1     1     2    1
    2     1     3    1
    3     1     4    1
    4     4     5    1
    5     4     6    1
    6     4     7    1
    7     7     8    1
    8     1     9    1
    9     7     9    1
   10     9    10    1
   11     9    11    1
   12     7    12    1
   13    12    13    1
@<TRIPOS>SUBSTRUCTURE
       1 MOL1            1 RESIDUE      1      MOL     
@<SCITEGIC>MOL_PROPERTY
VConf Rank
SciTegic.value.IntegerValue
993

@<SCITEGIC>MOL_PROPERTY
Conf_Id
SciTegic.value.IntegerValue
20

@<SCITEGIC>MOL_PROPERTY
Delta U+W
SciTegic.value.DoubleValue
1.030

@<SCITEGIC>MOL_PROPERTY
U+W
SciTegic.value.DoubleValue
-2.101

@<SCITEGIC>MOL_PROPERTY
Grad RMS
SciTegic.value.DoubleValue
0.000000

@<SCITEGIC>MOL_PROPERTY
U
SciTegic.value.DoubleValue
0.841

@<SCITEGIC>MOL_PROPERTY
W
SciTegic.value.DoubleValue
-2.942

@<SCITEGIC>MOL_PROPERTY
W(PB)
SciTegic.value.DoubleValue
-4.530

@<SCITEGIC>MOL_PROPERTY
W(SA)
SciTegic.value.DoubleValue
1.587

@<SCITEGIC>MOL_PROPERTY
Valence
SciTegic.value.DoubleValue
6.736

@<SCITEGIC>MOL_PROPERTY
Coulomb
SciTegic.value.DoubleValue
-7.246

@<SCITEGIC>MOL_PROPERTY
VdW
SciTegic.value.DoubleValue
1.352

@<SCITEGIC>MOL_PROPERTY
VdW6
SciTegic.value.DoubleValue
-2.500

@<SCITEGIC>MOL_PROPERTY
VdW12
SciTegic.value.DoubleValue
3.851

@<SCITEGIC>MOL_PROPERTY
Bond
SciTegic.value.DoubleValue
0.063

@<SCITEGIC>MOL_PROPERTY
Angle
SciTegic.value.DoubleValue
0.687

@<SCITEGIC>MOL_PROPERTY
Pdih
SciTegic.value.DoubleValue
5.986

@<SCITEGIC>MOL_PROPERTY
Idih
SciTegic.value.DoubleValue
0.000

@<SCITEGIC>MOL_PROPERTY
Tether
SciTegic.value.DoubleValue
0.000

@<TRIPOS>MOLECULE
guest-s16_confgen4.mol2 : confsearch ligand conformer 994
          13          13           1
SMALL
USER_CHARGES
 
@<TRIPOS>ATOM
       1    C1      20.594816   19.903065   22.359213 C.3        1 MOL1        -0.1693
       2    H1      20.297264   20.912621   22.046276 H          1 MOL1         0.0829
       3    H2      21.617954   19.945555   22.751392 H          1 MOL1         0.0829
       4    C2      20.308105   18.781187   21.307289 C.3        1 MOL1        -0.1768
       5    H3      20.379625   19.077326   20.254921 H          1 MOL1         0.0829
       6    H4      20.884104   17.859081   21.453348 H          1 MOL1         0.0829
       7    C3      18.869804   18.756697   21.907162 C.3        1 MOL1         0.1211
       8    H5      18.204159   19.528048   21.496520 H          1 MOL1         0.0786
       9    C4      19.547026   19.159627   23.251846 C.3        1 MOL1        -0.1768
      10    H6      19.952915   18.322107   23.832538 H          1 MOL1         0.0829
      11    H7      18.946397   19.789983   23.916817 H          1 MOL1         0.0829
      12    O1      18.234476   17.500449   21.902988 O.3        1 MOL1        -0.5515
      13    H8      18.871957   16.857091   22.277725 H          1 MOL1         0.3773
@<TRIPOS>BOND
    1     1     2    1
    2     1     3    1
    3     1     4    1
    4     4     5    1
    5     4     6    1
    6     4     7    1
    7     7     8    1
    8     1     9    1
    9     7     9    1
   10     9    10    1
   11     9    11    1
   12     7    12    1
   13    12    13    1
@<TRIPOS>SUBSTRUCTURE
       1 MOL1            1 RESIDUE      1      MOL     
@<SCITEGIC>MOL_PROPERTY
VConf Rank
SciTegic.value.IntegerValue
994

@<SCITEGIC>MOL_PROPERTY
Conf_Id
SciTegic.value.IntegerValue
24

@<SCITEGIC>MOL_PROPERTY
Delta U+W
SciTegic.value.DoubleValue
0.356

@<SCITEGIC>MOL_PROPERTY
U+W
SciTegic.value.DoubleValue
-2.775

@<SCITEGIC>MOL_PROPERTY
Grad RMS
SciTegic.value.DoubleValue
0.000000

@<SCITEGIC>MOL_PROPERTY
U
SciTegic.value.DoubleValue
-0.184

@<SCITEGIC>MOL_PROPERTY
W
SciTegic.value.DoubleValue
-2.591

@<SCITEGIC>MOL_PROPERTY
W(PB)
SciTegic.value.DoubleValue
-4.184

@<SCITEGIC>MOL_PROPERTY
W(SA)
SciTegic.value.DoubleValue
1.593

@<SCITEGIC>MOL_PROPERTY
Valence
SciTegic.value.DoubleValue
6.840

@<SCITEGIC>MOL_PROPERTY
Coulomb
SciTegic.value.DoubleValue
-7.916

@<SCITEGIC>MOL_PROPERTY
VdW
SciTegic.value.DoubleValue
0.893

@<SCITEGIC>MOL_PROPERTY
VdW6
SciTegic.value.DoubleValue
-2.167

@<SCITEGIC>MOL_PROPERTY
VdW12
SciTegic.value.DoubleValue
3.060

@<SCITEGIC>MOL_PROPERTY
Bond
SciTegic.value.DoubleValue
0.059

@<SCITEGIC>MOL_PROPERTY
Angle
SciTegic.value.DoubleValue
0.918

@<SCITEGIC>MOL_PROPERTY
Pdih
SciTegic.value.DoubleValue
5.862

@<SCITEGIC>MOL_PROPERTY
Idih
SciTegic.value.DoubleValue
0.000

@<SCITEGIC>MOL_PROPERTY
Tether
SciTegic.value.DoubleValue
0.000

@<TRIPOS>MOLECULE
guest-s16_confgen4.mol2 : confsearch ligand conformer 995
          13          13           1
SMALL
USER_CHARGES
 
@<TRIPOS>ATOM
       1    C1      20.285175   18.045895   21.963263 C.3        1 MOL1        -0.1693
       2    H1      21.180206   17.454152   22.189388 H          1 MOL1         0.0829
       3    H2      19.724563   17.536646   21.169113 H          1 MOL1         0.0829
       4    C2      20.517939   19.575770   21.727801 C.3        1 MOL1        -0.1768
       5    H3      21.360853   19.997673   22.288613 H          1 MOL1         0.0829
       6    H4      20.599023   19.897098   20.683348 H          1 MOL1         0.0829
       7    C3      19.129334   19.797516   22.403520 C.3        1 MOL1         0.1211
       8    H5      19.056353   20.702351   23.020314 H          1 MOL1         0.0786
       9    C4      19.427216   18.487033   23.195918 C.3        1 MOL1        -0.1768
      10    H6      20.002700   18.641993   24.116689 H          1 MOL1         0.0829
      11    H7      18.558919   17.860707   23.429336 H          1 MOL1         0.0829
      12    O1      18.025911   19.720980   21.526978 O.3        1 MOL1        -0.5515
      13    H8      18.143666   18.900158   21.005730 H          1 MOL1         0.3773
@<TRIPOS>BOND
    1     1     2    1
    2     1     3    1
    3     1     4    1
    4     4     5    1
    5     4     6    1
    6     4     7    1
    7     7     8    1
    8     1     9    1
    9     7     9    1
   10     9    10    1
   11     9    11    1
   12     7    12    1
   13    12    13    1
@<TRIPOS>SUBSTRUCTURE
       1 MOL1            1 RESIDUE      1      MOL     
@<SCITEGIC>MOL_PROPERTY
VConf Rank
SciTegic.value.IntegerValue
995

@<SCITEGIC>MOL_PROPERTY
Conf_Id
SciTegic.value.IntegerValue
44

@<SCITEGIC>MOL_PROPERTY
Delta U+W
SciTegic.value.DoubleValue
0.823

@<SCITEGIC>MOL_PROPERTY
U+W
SciTegic.value.DoubleValue
-2.308

@<SCITEGIC>MOL_PROPERTY
Grad RMS
SciTegic.value.DoubleValue
0.000000

@<SCITEGIC>MOL_PROPERTY
U
SciTegic.value.DoubleValue
0.039

@<SCITEGIC>MOL_PROPERTY
W
SciTegic.value.DoubleValue
-2.348

@<SCITEGIC>MOL_PROPERTY
W(PB)
SciTegic.value.DoubleValue
-3.918

@<SCITEGIC>MOL_PROPERTY
W(SA)
SciTegic.value.DoubleValue
1.571

@<SCITEGIC>MOL_PROPERTY
Valence
SciTegic.value.DoubleValue
7.320

@<SCITEGIC>MOL_PROPERTY
Coulomb
SciTegic.value.DoubleValue
-8.530

@<SCITEGIC>MOL_PROPERTY
VdW
SciTegic.value.DoubleValue
1.249

@<SCITEGIC>MOL_PROPERTY
VdW6
SciTegic.value.DoubleValue
-2.615

@<SCITEGIC>MOL_PROPERTY
VdW12
SciTegic.value.DoubleValue
3.864

@<SCITEGIC>MOL_PROPERTY
Bond
SciTegic.value.DoubleValue
0.056

@<SCITEGIC>MOL_PROPERTY
Angle
SciTegic.value.DoubleValue
0.694

@<SCITEGIC>MOL_PROPERTY
Pdih
SciTegic.value.DoubleValue
6.570

@<SCITEGIC>MOL_PROPERTY
Idih
SciTegic.value.DoubleValue
0.000

@<SCITEGIC>MOL_PROPERTY
Tether
SciTegic.value.DoubleValue
0.000

@<TRIPOS>MOLECULE
guest-s16_confgen4.mol2 : confsearch ligand conformer 996
          13          13           1
SMALL
USER_CHARGES
 
@<TRIPOS>ATOM
       1    C1      18.598322   18.285235   22.406035 C.3        1 MOL1        -0.1693
       2    H1      17.744716   18.819712   22.843386 H          1 MOL1         0.0829
       3    H2      18.287972   17.259429   22.174208 H          1 MOL1         0.0829
       4    C2      19.939367   18.434954   23.197546 C.3        1 MOL1        -0.1768
       5    H3      19.850771   18.533908   24.284891 H          1 MOL1         0.0829
       6    H4      20.693594   17.670549   22.973018 H          1 MOL1         0.0829
       7    C3      20.115424   19.767058   22.408019 C.3        1 MOL1         0.1211
       8    H5      19.579348   20.618048   22.850174 H          1 MOL1         0.0786
       9    C4      19.335968   19.055202   21.261327 C.3        1 MOL1        -0.1768
      10    H6      18.711658   19.701640   20.634806 H          1 MOL1         0.0829
      11    H7      19.956077   18.425403   20.611241 H          1 MOL1         0.0829
      12    O1      21.446201   20.116606   22.105703 O.3        1 MOL1        -0.5515
      13    H8      21.413311   20.870162   21.477791 H          1 MOL1         0.3773
@<TRIPOS>BOND
    1     1     2    1
    2     1     3    1
    3     1     4    1
    4     4     5    1
    5     4     6    1
    6     4     7    1
    7     7     8    1
    8     1     9    1
    9     7     9    1
   10     9    10    1
   11     9    11    1
   12     7    12    1
   13    12    13    1
@<TRIPOS>SUBSTRUCTURE
       1 MOL1            1 RESIDUE      1      MOL     
@<SCITEGIC>MOL_PROPERTY
VConf Rank
SciTegic.value.IntegerValue
996

@<SCITEGIC>MOL_PROPERTY
Conf_Id
SciTegic.value.IntegerValue
22

@<SCITEGIC>MOL_PROPERTY
Delta U+W
SciTegic.value.DoubleValue
0.000

@<SCITEGIC>MOL_PROPERTY
U+W
SciTegic.value.DoubleValue
-3.131

@<SCITEGIC>MOL_PROPERTY
Grad RMS
SciTegic.value.DoubleValue
0.000000

@<SCITEGIC>MOL_PROPERTY
U
SciTegic.value.DoubleValue
-0.154

@<SCITEGIC>MOL_PROPERTY
W
SciTegic.value.DoubleValue
-2.978

@<SCITEGIC>MOL_PROPERTY
W(PB)
SciTegic.value.DoubleValue
-4.579

@<SCITEGIC>MOL_PROPERTY
W(SA)
SciTegic.value.DoubleValue
1.601

@<SCITEGIC>MOL_PROPERTY
Valence
SciTegic.value.DoubleValue
6.333

@<SCITEGIC>MOL_PROPERTY
Coulomb
SciTegic.value.DoubleValue
-7.439

@<SCITEGIC>MOL_PROPERTY
VdW
SciTegic.value.DoubleValue
0.952

@<SCITEGIC>MOL_PROPERTY
VdW6
SciTegic.value.DoubleValue
-2.120

@<SCITEGIC>MOL_PROPERTY
VdW12
SciTegic.value.DoubleValue
3.072

@<SCITEGIC>MOL_PROPERTY
Bond
SciTegic.value.DoubleValue
0.065

@<SCITEGIC>MOL_PROPERTY
Angle
SciTegic.value.DoubleValue
0.931

@<SCITEGIC>MOL_PROPERTY
Pdih
SciTegic.value.DoubleValue
5.338

@<SCITEGIC>MOL_PROPERTY
Idih
SciTegic.value.DoubleValue
0.000

@<SCITEGIC>MOL_PROPERTY
Tether
SciTegic.value.DoubleValue
0.000

@<TRIPOS>MOLECULE
guest-s16_confgen4.mol2 : confsearch ligand conformer 997
          13          13           1
SMALL
USER_CHARGES
 
@<TRIPOS>ATOM
       1    C1      19.557149   17.657431   22.603045 C.3        1 MOL1        -0.1693
       2    H1      20.536461   17.164910   22.665969 H          1 MOL1         0.0829
       3    H2      18.777597   16.915348   22.812687 H          1 MOL1         0.0829
       4    C2      19.345872   18.533326   21.324179 C.3        1 MOL1        -0.1768
       5    H3      18.297337   18.753713   21.087963 H          1 MOL1         0.0829
       6    H4      19.847093   18.186433   20.413895 H          1 MOL1         0.0829
       7    C3      20.080037   19.654929   22.119290 C.3        1 MOL1         0.1211
       8    H5      21.175756   19.583696   22.082070 H          1 MOL1         0.0786
       9    C4      19.451121   19.005907   23.388967 C.3        1 MOL1        -0.1768
      10    H6      18.426437   19.332252   23.606006 H          1 MOL1         0.0829
      11    H7      20.046025   19.079427   24.305834 H          1 MOL1         0.0829
      12    O1      19.654380   20.968616   21.840733 O.3        1 MOL1        -0.5515
      13    H8      19.986834   21.198392   20.946373 H          1 MOL1         0.3773
@<TRIPOS>BOND
    1     1     2    1
    2     1     3    1
    3     1     4    1
    4     4     5    1
    5     4     6    1
    6     4     7    1
    7     7     8    1
    8     1     9    1
    9     7     9    1
   10     9    10    1
   11     9    11    1
   12     7    12    1
   13    12    13    1
@<TRIPOS>SUBSTRUCTURE
       1 MOL1            1 RESIDUE      1      MOL     
@<SCITEGIC>MOL_PROPERTY
VConf Rank
SciTegic.value.IntegerValue
997

@<SCITEGIC>MOL_PROPERTY
Conf_Id
SciTegic.value.IntegerValue
19

@<SCITEGIC>MOL_PROPERTY
Delta U+W
SciTegic.value.DoubleValue
-0.011

@<SCITEGIC>MOL_PROPERTY
U+W
SciTegic.value.DoubleValue
-3.142

@<SCITEGIC>MOL_PROPERTY
Grad RMS
SciTegic.value.DoubleValue
0.000000

@<SCITEGIC>MOL_PROPERTY
U
SciTegic.value.DoubleValue
-0.154

@<SCITEGIC>MOL_PROPERTY
W
SciTegic.value.DoubleValue
-2.989

@<SCITEGIC>MOL_PROPERTY
W(PB)
SciTegic.value.DoubleValue
-4.588

@<SCITEGIC>MOL_PROPERTY
W(SA)
SciTegic.value.DoubleValue
1.599

@<SCITEGIC>MOL_PROPERTY
Valence
SciTegic.value.DoubleValue
6.334

@<SCITEGIC>MOL_PROPERTY
Coulomb
SciTegic.value.DoubleValue
-7.439

@<SCITEGIC>MOL_PROPERTY
VdW
SciTegic.value.DoubleValue
0.951

@<SCITEGIC>MOL_PROPERTY
VdW6
SciTegic.value.DoubleValue
-2.120

@<SCITEGIC>MOL_PROPERTY
VdW12
SciTegic.value.DoubleValue
3.072

@<SCITEGIC>MOL_PROPERTY
Bond
SciTegic.value.DoubleValue
0.065

@<SCITEGIC>MOL_PROPERTY
Angle
SciTegic.value.DoubleValue
0.930

@<SCITEGIC>MOL_PROPERTY
Pdih
SciTegic.value.DoubleValue
5.339

@<SCITEGIC>MOL_PROPERTY
Idih
SciTegic.value.DoubleValue
0.000

@<SCITEGIC>MOL_PROPERTY
Tether
SciTegic.value.DoubleValue
0.000

@<TRIPOS>MOLECULE
guest-s16_confgen4.mol2 : confsearch ligand conformer 998
          13          13           1
SMALL
USER_CHARGES
 
@<TRIPOS>ATOM
       1    C1      19.845302   18.875777   21.080080 C.3        1 MOL1        -0.1693
       2    H1      19.395533   18.608543   20.116612 H          1 MOL1         0.0829
       3    H2      20.895421   19.149132   20.913545 H          1 MOL1         0.0829
       4    C2      19.615473   17.863881   22.251497 C.3        1 MOL1        -0.1768
       5    H3      18.667011   17.315698   22.199729 H          1 MOL1         0.0829
       6    H4      20.424443   17.148059   22.434690 H          1 MOL1         0.0829
       7    C3      19.584511   19.107672   23.193544 C.3        1 MOL1         0.1211
       8    H5      18.882056   19.027785   24.033179 H          1 MOL1         0.0786
       9    C4      19.040335   19.890734   21.957914 C.3        1 MOL1        -0.1768
      10    H6      19.346465   20.939944   21.881797 H          1 MOL1         0.0829
      11    H7      17.951980   19.834127   21.834412 H          1 MOL1         0.0829
      12    O1      20.849587   19.532230   23.659890 O.3        1 MOL1        -0.5515
      13    H8      20.723570   20.406113   24.087212 H          1 MOL1         0.3773
@<TRIPOS>BOND
    1     1     2    1
    2     1     3    1
    3     1     4    1
    4     4     5    1
    5     4     6    1
    6     4     7    1
    7     7     8    1
    8     1     9    1
    9     7     9    1
   10     9    10    1
   11     9    11    1
   12     7    12    1
   13    12    13    1
@<TRIPOS>SUBSTRUCTURE
       1 MOL1            1 RESIDUE      1      MOL     
@<SCITEGIC>MOL_PROPERTY
VConf Rank
SciTegic.value.IntegerValue
998

@<SCITEGIC>MOL_PROPERTY
Conf_Id
SciTegic.value.IntegerValue
20

@<SCITEGIC>MOL_PROPERTY
Delta U+W
SciTegic.value.DoubleValue
1.030

@<SCITEGIC>MOL_PROPERTY
U+W
SciTegic.value.DoubleValue
-2.101

@<SCITEGIC>MOL_PROPERTY
Grad RMS
SciTegic.value.DoubleValue
0.000000

@<SCITEGIC>MOL_PROPERTY
U
SciTegic.value.DoubleValue
0.841

@<SCITEGIC>MOL_PROPERTY
W
SciTegic.value.DoubleValue
-2.942

@<SCITEGIC>MOL_PROPERTY
W(PB)
SciTegic.value.DoubleValue
-4.530

@<SCITEGIC>MOL_PROPERTY
W(SA)
SciTegic.value.DoubleValue
1.587

@<SCITEGIC>MOL_PROPERTY
Valence
SciTegic.value.DoubleValue
6.736

@<SCITEGIC>MOL_PROPERTY
Coulomb
SciTegic.value.DoubleValue
-7.246

@<SCITEGIC>MOL_PROPERTY
VdW
SciTegic.value.DoubleValue
1.352

@<SCITEGIC>MOL_PROPERTY
VdW6
SciTegic.value.DoubleValue
-2.500

@<SCITEGIC>MOL_PROPERTY
VdW12
SciTegic.value.DoubleValue
3.851

@<SCITEGIC>MOL_PROPERTY
Bond
SciTegic.value.DoubleValue
0.063

@<SCITEGIC>MOL_PROPERTY
Angle
SciTegic.value.DoubleValue
0.687

@<SCITEGIC>MOL_PROPERTY
Pdih
SciTegic.value.DoubleValue
5.986

@<SCITEGIC>MOL_PROPERTY
Idih
SciTegic.value.DoubleValue
0.000

@<SCITEGIC>MOL_PROPERTY
Tether
SciTegic.value.DoubleValue
0.000

@<TRIPOS>MOLECULE
guest-s16_confgen4.mol2 : confsearch ligand conformer 999
          13          13           1
SMALL
USER_CHARGES
 
@<TRIPOS>ATOM
       1    C1      19.498112   17.858435   22.830396 C.3        1 MOL1        -0.1693
       2    H1      19.743895   17.802808   23.899118 H          1 MOL1         0.0829
       3    H2      19.067784   16.898849   22.519858 H          1 MOL1         0.0829
       4    C2      20.641648   18.423936   21.924917 C.3        1 MOL1        -0.1768
       5    H3      21.665306   18.201724   22.245911 H          1 MOL1         0.0829
       6    H4      20.545640   18.178595   20.860033 H          1 MOL1         0.0829
       7    C3      20.096775   19.828292   22.324985 C.3        1 MOL1         0.1211
       8    H5      20.471058   20.190904   23.292000 H          1 MOL1         0.0786
       9    C4      18.702212   19.137317   22.408069 C.3        1 MOL1        -0.1768
      10    H6      18.172716   19.051425   21.451176 H          1 MOL1         0.0829
      11    H7      18.013054   19.545131   23.155759 H          1 MOL1         0.0829
      12    O1      20.218810   20.826960   21.340309 O.3        1 MOL1        -0.5515
      13    H8      19.871593   20.448461   20.505504 H          1 MOL1         0.3773
@<TRIPOS>BOND
    1     1     2    1
    2     1     3    1
    3     1     4    1
    4     4     5    1
    5     4     6    1
    6     4     7    1
    7     7     8    1
    8     1     9    1
    9     7     9    1
   10     9    10    1
   11     9    11    1
   12     7    12    1
   13    12    13    1
@<TRIPOS>SUBSTRUCTURE
       1 MOL1            1 RESIDUE      1      MOL     
@<SCITEGIC>MOL_PROPERTY
VConf Rank
SciTegic.value.IntegerValue
999

@<SCITEGIC>MOL_PROPERTY
Conf_Id
SciTegic.value.IntegerValue
24

@<SCITEGIC>MOL_PROPERTY
Delta U+W
SciTegic.value.DoubleValue
0.356

@<SCITEGIC>MOL_PROPERTY
U+W
SciTegic.value.DoubleValue
-2.775

@<SCITEGIC>MOL_PROPERTY
Grad RMS
SciTegic.value.DoubleValue
0.000000

@<SCITEGIC>MOL_PROPERTY
U
SciTegic.value.DoubleValue
-0.184

@<SCITEGIC>MOL_PROPERTY
W
SciTegic.value.DoubleValue
-2.591

@<SCITEGIC>MOL_PROPERTY
W(PB)
SciTegic.value.DoubleValue
-4.184

@<SCITEGIC>MOL_PROPERTY
W(SA)
SciTegic.value.DoubleValue
1.593

@<SCITEGIC>MOL_PROPERTY
Valence
SciTegic.value.DoubleValue
6.840

@<SCITEGIC>MOL_PROPERTY
Coulomb
SciTegic.value.DoubleValue
-7.916

@<SCITEGIC>MOL_PROPERTY
VdW
SciTegic.value.DoubleValue
0.893

@<SCITEGIC>MOL_PROPERTY
VdW6
SciTegic.value.DoubleValue
-2.167

@<SCITEGIC>MOL_PROPERTY
VdW12
SciTegic.value.DoubleValue
3.060

@<SCITEGIC>MOL_PROPERTY
Bond
SciTegic.value.DoubleValue
0.059

@<SCITEGIC>MOL_PROPERTY
Angle
SciTegic.value.DoubleValue
0.918

@<SCITEGIC>MOL_PROPERTY
Pdih
SciTegic.value.DoubleValue
5.862

@<SCITEGIC>MOL_PROPERTY
Idih
SciTegic.value.DoubleValue
0.000

@<SCITEGIC>MOL_PROPERTY
Tether
SciTegic.value.DoubleValue
0.000

@<TRIPOS>MOLECULE
guest-s16_confgen4.mol2 : confsearch ligand conformer 1000
          13          13           1
SMALL
USER_CHARGES
 
@<TRIPOS>ATOM
       1    C1      19.615581   18.982706   23.331658 C.3        1 MOL1        -0.1693
       2    H1      18.957454   19.140427   24.194424 H          1 MOL1         0.0829
       3    H2      20.617814   18.731775   23.701603 H          1 MOL1         0.0829
       4    C2      19.579374   20.095207   22.231127 C.3        1 MOL1        -0.1768
       5    H3      18.612886   20.604382   22.132849 H          1 MOL1         0.0829
       6    H4      20.368535   20.853553   22.284459 H          1 MOL1         0.0829
       7    C3      19.803360   18.949761   21.195862 C.3        1 MOL1         0.1211
       8    H5      19.282645   19.085008   20.239279 H          1 MOL1         0.0786
       9    C4      19.067015   18.029364   22.217948 C.3        1 MOL1        -0.1768
      10    H6      17.974905   18.032024   22.116440 H          1 MOL1         0.0829
      11    H7      19.410210   16.989570   22.259810 H          1 MOL1         0.0829
      12    O1      21.155226   18.615948   20.966174 O.3        1 MOL1        -0.5515
      13    H8      21.566852   18.508246   21.848375 H          1 MOL1         0.3773
@<TRIPOS>BOND
    1     1     2    1
    2     1     3    1
    3     1     4    1
    4     4     5    1
    5     4     6    1
    6     4     7    1
    7     7     8    1
    8     1     9    1
    9     7     9    1
   10     9    10    1
   11     9    11    1
   12     7    12    1
   13    12    13    1
@<TRIPOS>SUBSTRUCTURE
       1 MOL1            1 RESIDUE      1      MOL     
@<SCITEGIC>MOL_PROPERTY
VConf Rank
SciTegic.value.IntegerValue
1000

@<SCITEGIC>MOL_PROPERTY
Conf_Id
SciTegic.value.IntegerValue
44

@<SCITEGIC>MOL_PROPERTY
Delta U+W
SciTegic.value.DoubleValue
0.823

@<SCITEGIC>MOL_PROPERTY
U+W
SciTegic.value.DoubleValue
-2.308

@<SCITEGIC>MOL_PROPERTY
Grad RMS
SciTegic.value.DoubleValue
0.000000

@<SCITEGIC>MOL_PROPERTY
U
SciTegic.value.DoubleValue
0.039

@<SCITEGIC>MOL_PROPERTY
W
SciTegic.value.DoubleValue
-2.348

@<SCITEGIC>MOL_PROPERTY
W(PB)
SciTegic.value.DoubleValue
-3.918

@<SCITEGIC>MOL_PROPERTY
W(SA)
SciTegic.value.DoubleValue
1.571

@<SCITEGIC>MOL_PROPERTY
Valence
SciTegic.value.DoubleValue
7.320

@<SCITEGIC>MOL_PROPERTY
Coulomb
SciTegic.value.DoubleValue
-8.530

@<SCITEGIC>MOL_PROPERTY
VdW
SciTegic.value.DoubleValue
1.249

@<SCITEGIC>MOL_PROPERTY
VdW6
SciTegic.value.DoubleValue
-2.615

@<SCITEGIC>MOL_PROPERTY
VdW12
SciTegic.value.DoubleValue
3.864

@<SCITEGIC>MOL_PROPERTY
Bond
SciTegic.value.DoubleValue
0.056

@<SCITEGIC>MOL_PROPERTY
Angle
SciTegic.value.DoubleValue
0.694

@<SCITEGIC>MOL_PROPERTY
Pdih
SciTegic.value.DoubleValue
6.570

@<SCITEGIC>MOL_PROPERTY
Idih
SciTegic.value.DoubleValue
0.000

@<SCITEGIC>MOL_PROPERTY
Tether
SciTegic.value.DoubleValue
0.000

